MODEL        1
REMARK 921   NORMALIZED FREE ENERGY PREDICTED BY IDOCK:   -7.11 KCAL/MOL
REMARK 922        TOTAL FREE ENERGY PREDICTED BY IDOCK:  -11.94 KCAL/MOL
REMARK 923 INTER-LIGAND FREE ENERGY PREDICTED BY IDOCK:  -10.84 KCAL/MOL
REMARK 924 INTRA-LIGAND FREE ENERGY PREDICTED BY IDOCK:   -1.09 KCAL/MOL
REMARK 927      BINDING AFFINITY PREDICTED BY RF-SCORE:    0.00 PKD
ROOT
HETATM    1  C   UNL     1     -11.120  16.208  70.073  1.00  0.00    -0.363 C  
HETATM    2  O   UNL     1      -9.926  16.626  69.417  1.00  0.00    -0.236 OA 
ENDROOT
BRANCH   2   3
HETATM    3  C   UNL     1     -10.065  17.619  68.484  1.00  0.00    -0.375 A  
HETATM    4  C   UNL     1      -9.938  18.974  68.840  1.00  0.00    -0.460 A  
HETATM    5  C   UNL     1     -10.093  19.985  67.893  1.00  0.00    -0.559 A  
HETATM    6  C   UNL     1     -10.365  19.655  66.571  1.00  0.00    -0.601 A  
HETATM    7  C   UNL     1     -10.459  18.315  66.199  1.00  0.00    -0.403 A  
HETATM    8  C   UNL     1     -10.296  17.285  67.137  1.00  0.00    -0.321 A  
BRANCH   8   9
HETATM    9  O   UNL     1     -10.403  16.042  66.563  1.00  0.00    -0.284 OA 
BRANCH   9  10
HETATM   10  C   UNL     1     -10.667  15.960  65.164  1.00  0.00    -0.429 C  
BRANCH  10  11
HETATM   11  C   UNL     1     -11.625  14.787  64.881  1.00  0.00    -0.401 C  
HETATM   12  H   UNL     1     -13.162  14.384  63.674  1.00  0.00     0.000 HD 
HETATM   13  O   UNL     1     -12.571  15.107  63.848  1.00  0.00    -0.794 OA 
BRANCH  11  14
HETATM   14  C   UNL     1     -10.841  13.522  64.447  1.00  0.00    -0.389 C  
BRANCH  14  15
HETATM   15  N   UNL     1     -11.502  12.239  64.760  1.00  0.00    -0.321 NA 
HETATM   16  C   UNL     1     -10.791  11.096  64.169  1.00  0.00    -0.285 C  
HETATM   17  C   UNL     1      -9.399  10.898  64.789  1.00  0.00    -0.226 C  
HETATM   18  N   UNL     1      -9.415  10.610  66.241  1.00  0.00    -0.172 NA 
HETATM   19  C   UNL     1     -10.290  11.578  66.938  1.00  0.00    -0.223 C  
HETATM   20  C   UNL     1     -11.601  12.006  66.218  1.00  0.00    -0.310 C  
BRANCH  18  21
HETATM   21  C   UNL     1      -9.804   9.199  66.488  1.00  0.00    -0.264 C  
BRANCH  21  22
HETATM   22  C   UNL     1      -9.671   8.869  67.996  1.00  0.00    -0.156 C  
HETATM   23  N   UNL     1     -10.883   8.485  68.541  1.00  0.00    -0.437 N  
HETATM   24  O   UNL     1      -8.591   8.909  68.577  1.00  0.00    -0.131 OA 
HETATM   25  H   UNL     1     -11.673   8.442  67.897  1.00  0.00     0.000 HD 
BRANCH  23  26
HETATM   26  C   UNL     1     -11.153   8.146  69.877  1.00  0.00    -0.102 A  
HETATM   27  C   UNL     1     -11.041   6.833  70.380  1.00  0.00    -0.357 A  
HETATM   28  C   UNL     1     -11.297   6.607  71.744  1.00  0.00    -0.320 A  
HETATM   29  C   UNL     1     -10.602   5.644  69.571  1.00  0.00    -0.384 C  
HETATM   30  C   UNL     1     -11.610   7.658  72.601  1.00  0.00    -0.371 A  
HETATM   31  C   UNL     1     -11.680   8.956  72.110  1.00  0.00    -0.411 A  
HETATM   32  C   UNL     1     -11.453   9.215  70.751  1.00  0.00    -0.337 A  
HETATM   33  C   UNL     1     -11.616  10.625  70.245  1.00  0.00    -0.424 C  
ENDBRANCH  23  26
ENDBRANCH  21  22
ENDBRANCH  18  21
ENDBRANCH  14  15
ENDBRANCH  11  14
ENDBRANCH  10  11
ENDBRANCH   9  10
ENDBRANCH   8   9
ENDBRANCH   2   3
TORSDOF 9
ENDMDL
MODEL        2
REMARK 921   NORMALIZED FREE ENERGY PREDICTED BY IDOCK:   -6.83 KCAL/MOL
REMARK 922        TOTAL FREE ENERGY PREDICTED BY IDOCK:  -11.52 KCAL/MOL
REMARK 923 INTER-LIGAND FREE ENERGY PREDICTED BY IDOCK:  -10.53 KCAL/MOL
REMARK 924 INTRA-LIGAND FREE ENERGY PREDICTED BY IDOCK:   -1.00 KCAL/MOL
REMARK 927      BINDING AFFINITY PREDICTED BY RF-SCORE:    0.00 PKD
ROOT
HETATM    1  C   UNL     1      -6.296  17.581  66.264  1.00  0.00    -0.244 C  
HETATM    2  O   UNL     1      -7.547  17.763  65.607  1.00  0.00    -0.541 OA 
ENDROOT
BRANCH   2   3
HETATM    3  C   UNL     1      -8.520  18.405  66.326  1.00  0.00    -0.196 A  
HETATM    4  C   UNL     1      -8.329  19.714  66.803  1.00  0.00    -0.338 A  
HETATM    5  C   UNL     1      -9.314  20.361  67.546  1.00  0.00    -0.500 A  
HETATM    6  C   UNL     1     -10.514  19.713  67.813  1.00  0.00    -0.573 A  
HETATM    7  C   UNL     1     -10.729  18.428  67.318  1.00  0.00    -0.389 A  
HETATM    8  C   UNL     1      -9.752  17.765  66.559  1.00  0.00    -0.320 A  
BRANCH   8   9
HETATM    9  O   UNL     1     -10.171  16.524  66.149  1.00  0.00    -0.316 OA 
BRANCH   9  10
HETATM   10  C   UNL     1     -10.833  16.412  64.890  1.00  0.00    -0.250 C  
BRANCH  10  11
HETATM   11  C   UNL     1     -11.719  15.152  64.877  1.00  0.00    -0.290 C  
HETATM   12  H   UNL     1     -13.194  14.386  63.773  1.00  0.00     0.000 HD 
HETATM   13  O   UNL     1     -12.648  15.163  63.781  1.00  0.00    -0.752 OA 
BRANCH  11  14
HETATM   14  C   UNL     1     -10.857  13.867  64.771  1.00  0.00    -0.419 C  
BRANCH  14  15
HETATM   15  N   UNL     1     -11.579  12.606  65.038  1.00  0.00    -0.330 NA 
HETATM   16  C   UNL     1     -10.976  11.468  64.329  1.00  0.00    -0.341 C  
HETATM   17  C   UNL     1      -9.565  11.146  64.847  1.00  0.00    -0.239 C  
HETATM   18  N   UNL     1      -9.516  10.757  66.275  1.00  0.00    -0.176 NA 
HETATM   19  C   UNL     1     -10.287  11.723  67.088  1.00  0.00    -0.215 C  
HETATM   20  C   UNL     1     -11.608  12.277  66.481  1.00  0.00    -0.377 C  
BRANCH  18  21
HETATM   21  C   UNL     1      -9.978   9.357  66.451  1.00  0.00    -0.276 C  
BRANCH  21  22
HETATM   22  C   UNL     1      -9.728   8.897  67.909  1.00  0.00    -0.160 C  
HETATM   23  N   UNL     1     -10.911   8.574  68.550  1.00  0.00    -0.436 N  
HETATM   24  O   UNL     1      -8.597   8.796  68.374  1.00  0.00    -0.132 OA 
HETATM   25  H   UNL     1     -11.761   8.651  67.991  1.00  0.00     0.000 HD 
BRANCH  23  26
HETATM   26  C   UNL     1     -11.078   8.152  69.879  1.00  0.00    -0.102 A  
HETATM   27  C   UNL     1     -10.931   6.810  70.289  1.00  0.00    -0.339 A  
HETATM   28  C   UNL     1     -11.082   6.500  71.652  1.00  0.00    -0.302 A  
HETATM   29  C   UNL     1     -10.559   5.675  69.376  1.00  0.00    -0.374 C  
HETATM   30  C   UNL     1     -11.325   7.494  72.594  1.00  0.00    -0.395 A  
HETATM   31  C   UNL     1     -11.429   8.820  72.192  1.00  0.00    -0.421 A  
HETATM   32  C   UNL     1     -11.307   9.164  70.838  1.00  0.00    -0.359 A  
HETATM   33  C   UNL     1     -11.505  10.602  70.435  1.00  0.00    -0.422 C  
ENDBRANCH  23  26
ENDBRANCH  21  22
ENDBRANCH  18  21
ENDBRANCH  14  15
ENDBRANCH  11  14
ENDBRANCH  10  11
ENDBRANCH   9  10
ENDBRANCH   8   9
ENDBRANCH   2   3
TORSDOF 9
ENDMDL
MODEL        3
REMARK 921   NORMALIZED FREE ENERGY PREDICTED BY IDOCK:   -6.81 KCAL/MOL
REMARK 922        TOTAL FREE ENERGY PREDICTED BY IDOCK:  -11.48 KCAL/MOL
REMARK 923 INTER-LIGAND FREE ENERGY PREDICTED BY IDOCK:  -10.46 KCAL/MOL
REMARK 924 INTRA-LIGAND FREE ENERGY PREDICTED BY IDOCK:   -1.03 KCAL/MOL
REMARK 927      BINDING AFFINITY PREDICTED BY RF-SCORE:    0.00 PKD
ROOT
HETATM    1  C   UNL     1     -10.662  19.700  66.517  1.00  0.00    -0.434 C  
HETATM    2  O   UNL     1     -10.489  19.014  67.753  1.00  0.00    -0.392 OA 
ENDROOT
BRANCH   2   3
HETATM    3  C   UNL     1      -9.198  18.720  68.107  1.00  0.00    -0.314 A  
HETATM    4  C   UNL     1      -8.372  19.685  68.712  1.00  0.00    -0.280 A  
HETATM    5  C   UNL     1      -7.055  19.389  69.059  1.00  0.00    -0.397 A  
HETATM    6  C   UNL     1      -6.547  18.118  68.817  1.00  0.00    -0.238 A  
HETATM    7  C   UNL     1      -7.366  17.144  68.249  1.00  0.00    -0.214 A  
HETATM    8  C   UNL     1      -8.697  17.421  67.903  1.00  0.00    -0.237 A  
BRANCH   8   9
HETATM    9  O   UNL     1      -9.335  16.323  67.382  1.00  0.00    -0.218 OA 
BRANCH   9  10
HETATM   10  C   UNL     1      -9.306  16.126  65.969  1.00  0.00    -0.333 C  
BRANCH  10  11
HETATM   11  C   UNL     1     -10.742  15.959  65.436  1.00  0.00    -0.399 C  
HETATM   12  H   UNL     1     -11.921  16.795  64.061  1.00  0.00     0.000 HD 
HETATM   13  O   UNL     1     -11.036  16.898  64.390  1.00  0.00    -1.128 OA 
BRANCH  11  14
HETATM   14  C   UNL     1     -10.965  14.528  64.881  1.00  0.00    -0.410 C  
BRANCH  14  15
HETATM   15  N   UNL     1     -12.119  13.808  65.456  1.00  0.00    -0.385 NA 
HETATM   16  C   UNL     1     -12.031  12.358  65.226  1.00  0.00    -0.404 C  
HETATM   17  C   UNL     1     -10.851  11.724  65.978  1.00  0.00    -0.296 C  
HETATM   18  N   UNL     1     -10.924  11.858  67.450  1.00  0.00    -0.248 NA 
HETATM   19  C   UNL     1     -11.232  13.259  67.814  1.00  0.00    -0.280 C  
HETATM   20  C   UNL     1     -12.241  14.028  66.914  1.00  0.00    -0.380 C  
BRANCH  18  21
HETATM   21  C   UNL     1     -11.897  10.889  68.014  1.00  0.00     0.012 C  
BRANCH  21  22
HETATM   22  C   UNL     1     -11.608  10.663  69.519  1.00  0.00    -0.288 C  
HETATM   23  N   UNL     1     -11.101   9.398  69.756  1.00  0.00    -0.354 N  
HETATM   24  O   UNL     1     -11.775  11.548  70.353  1.00  0.00    -0.320 OA 
HETATM   25  H   UNL     1     -10.961   8.808  68.935  1.00  0.00     0.000 HD 
BRANCH  23  26
HETATM   26  C   UNL     1     -10.755   8.831  70.993  1.00  0.00    -0.229 A  
HETATM   27  C   UNL     1     -11.692   8.224  71.855  1.00  0.00    -0.381 A  
HETATM   28  C   UNL     1     -11.235   7.652  73.056  1.00  0.00    -0.388 A  
HETATM   29  C   UNL     1     -13.159   8.085  71.558  1.00  0.00    -0.322 C  
HETATM   30  C   UNL     1      -9.881   7.635  73.375  1.00  0.00    -0.362 A  
HETATM   31  C   UNL     1      -8.956   8.198  72.504  1.00  0.00    -0.286 A  
HETATM   32  C   UNL     1      -9.377   8.798  71.310  1.00  0.00    -0.319 A  
HETATM   33  C   UNL     1      -8.351   9.466  70.432  1.00  0.00    -0.234 C  
ENDBRANCH  23  26
ENDBRANCH  21  22
ENDBRANCH  18  21
ENDBRANCH  14  15
ENDBRANCH  11  14
ENDBRANCH  10  11
ENDBRANCH   9  10
ENDBRANCH   8   9
ENDBRANCH   2   3
TORSDOF 9
ENDMDL
MODEL        4
REMARK 921   NORMALIZED FREE ENERGY PREDICTED BY IDOCK:   -6.77 KCAL/MOL
REMARK 922        TOTAL FREE ENERGY PREDICTED BY IDOCK:  -11.43 KCAL/MOL
REMARK 923 INTER-LIGAND FREE ENERGY PREDICTED BY IDOCK:  -10.34 KCAL/MOL
REMARK 924 INTRA-LIGAND FREE ENERGY PREDICTED BY IDOCK:   -1.09 KCAL/MOL
REMARK 927      BINDING AFFINITY PREDICTED BY RF-SCORE:    0.00 PKD
ROOT
HETATM    1  C   UNL     1     -10.530  19.648  66.179  1.00  0.00    -0.524 C  
HETATM    2  O   UNL     1     -10.420  19.161  67.513  1.00  0.00    -0.400 OA 
ENDROOT
BRANCH   2   3
HETATM    3  C   UNL     1      -9.154  18.863  67.945  1.00  0.00    -0.300 A  
HETATM    4  C   UNL     1      -8.345  19.839  68.554  1.00  0.00    -0.265 A  
HETATM    5  C   UNL     1      -7.053  19.539  68.981  1.00  0.00    -0.399 A  
HETATM    6  C   UNL     1      -6.553  18.252  68.817  1.00  0.00    -0.242 A  
HETATM    7  C   UNL     1      -7.358  17.268  68.245  1.00  0.00    -0.214 A  
HETATM    8  C   UNL     1      -8.665  17.550  67.819  1.00  0.00    -0.230 A  
BRANCH   8   9
HETATM    9  O   UNL     1      -9.292  16.441  67.310  1.00  0.00    -0.218 OA 
BRANCH   9  10
HETATM   10  C   UNL     1      -9.326  16.269  65.894  1.00  0.00    -0.264 C  
BRANCH  10  11
HETATM   11  C   UNL     1     -10.773  16.008  65.434  1.00  0.00    -0.383 C  
HETATM   12  H   UNL     1     -12.024  16.663  64.024  1.00  0.00     0.000 HD 
HETATM   13  O   UNL     1     -11.132  16.824  64.308  1.00  0.00    -1.106 OA 
BRANCH  11  14
HETATM   14  C   UNL     1     -10.970  14.521  65.039  1.00  0.00    -0.398 C  
BRANCH  14  15
HETATM   15  N   UNL     1     -12.046  13.818  65.766  1.00  0.00    -0.402 NA 
HETATM   16  C   UNL     1     -11.952  12.359  65.611  1.00  0.00    -0.386 C  
HETATM   17  C   UNL     1     -10.689  11.788  66.276  1.00  0.00    -0.270 C  
HETATM   18  N   UNL     1     -10.619  12.007  67.738  1.00  0.00    -0.202 NA 
HETATM   19  C   UNL     1     -10.918  13.422  68.051  1.00  0.00    -0.244 C  
HETATM   20  C   UNL     1     -12.027  14.122  67.215  1.00  0.00    -0.414 C  
BRANCH  18  21
HETATM   21  C   UNL     1     -11.511  11.058  68.451  1.00  0.00    -0.308 C  
BRANCH  21  22
HETATM   22  C   UNL     1     -10.703   9.820  68.916  1.00  0.00    -0.217 C  
HETATM   23  N   UNL     1     -11.521   8.869  69.499  1.00  0.00    -0.362 N  
HETATM   24  O   UNL     1      -9.496   9.721  68.720  1.00  0.00    -0.147 OA 
HETATM   25  H   UNL     1     -12.518   9.085  69.522  1.00  0.00     0.000 HD 
BRANCH  23  26
HETATM   26  C   UNL     1     -11.140   7.641  70.063  1.00  0.00    -0.191 A  
HETATM   27  C   UNL     1     -10.884   6.484  69.298  1.00  0.00    -0.361 A  
HETATM   28  C   UNL     1     -10.470   5.313  69.959  1.00  0.00    -0.351 A  
HETATM   29  C   UNL     1     -10.961   6.420  67.798  1.00  0.00    -0.425 C  
HETATM   30  C   UNL     1     -10.266   5.298  71.335  1.00  0.00    -0.279 A  
HETATM   31  C   UNL     1     -10.481   6.451  72.081  1.00  0.00    -0.234 A  
HETATM   32  C   UNL     1     -10.916   7.629  71.459  1.00  0.00    -0.263 A  
HETATM   33  C   UNL     1     -11.212   8.834  72.314  1.00  0.00    -0.343 C  
ENDBRANCH  23  26
ENDBRANCH  21  22
ENDBRANCH  18  21
ENDBRANCH  14  15
ENDBRANCH  11  14
ENDBRANCH  10  11
ENDBRANCH   9  10
ENDBRANCH   8   9
ENDBRANCH   2   3
TORSDOF 9
ENDMDL
MODEL        5
REMARK 921   NORMALIZED FREE ENERGY PREDICTED BY IDOCK:   -6.68 KCAL/MOL
REMARK 922        TOTAL FREE ENERGY PREDICTED BY IDOCK:  -11.29 KCAL/MOL
REMARK 923 INTER-LIGAND FREE ENERGY PREDICTED BY IDOCK:  -10.25 KCAL/MOL
REMARK 924 INTRA-LIGAND FREE ENERGY PREDICTED BY IDOCK:   -1.04 KCAL/MOL
REMARK 927      BINDING AFFINITY PREDICTED BY RF-SCORE:    0.00 PKD
ROOT
HETATM    1  C   UNL     1     -10.577  19.690  66.061  1.00  0.00    -0.483 C  
HETATM    2  O   UNL     1     -10.599  19.255  67.418  1.00  0.00    -0.436 OA 
ENDROOT
BRANCH   2   3
HETATM    3  C   UNL     1      -9.425  18.749  67.910  1.00  0.00    -0.304 A  
HETATM    4  C   UNL     1      -8.503  19.571  68.582  1.00  0.00    -0.364 A  
HETATM    5  C   UNL     1      -7.303  19.057  69.071  1.00  0.00    -0.341 A  
HETATM    6  C   UNL     1      -7.012  17.708  68.905  1.00  0.00    -0.251 A  
HETATM    7  C   UNL     1      -7.933  16.876  68.269  1.00  0.00    -0.211 A  
HETATM    8  C   UNL     1      -9.150  17.374  67.781  1.00  0.00    -0.243 A  
BRANCH   8   9
HETATM    9  O   UNL     1      -9.920  16.390  67.214  1.00  0.00    -0.248 OA 
BRANCH   9  10
HETATM   10  C   UNL     1      -9.714  16.072  65.839  1.00  0.00    -0.343 C  
BRANCH  10  11
HETATM   11  C   UNL     1     -11.050  15.661  65.191  1.00  0.00    -0.348 C  
HETATM   12  H   UNL     1     -12.333  16.386  63.846  1.00  0.00     0.000 HD 
HETATM   13  O   UNL     1     -11.509  16.640  64.245  1.00  0.00    -1.075 OA 
BRANCH  11  14
HETATM   14  C   UNL     1     -10.916  14.301  64.458  1.00  0.00    -0.298 C  
BRANCH  14  15
HETATM   15  N   UNL     1     -11.833  13.244  64.929  1.00  0.00    -0.345 NA 
HETATM   16  C   UNL     1     -11.381  11.904  64.525  1.00  0.00    -0.316 C  
HETATM   17  C   UNL     1     -10.061  11.510  65.206  1.00  0.00    -0.269 C  
HETATM   18  N   UNL     1     -10.135  11.443  66.683  1.00  0.00    -0.207 NA 
HETATM   19  C   UNL     1     -10.785  12.663  67.212  1.00  0.00    -0.237 C  
HETATM   20  C   UNL     1     -11.977  13.248  66.402  1.00  0.00    -0.410 C  
BRANCH  18  21
HETATM   21  C   UNL     1     -10.813  10.195  67.115  1.00  0.00    -0.189 C  
BRANCH  21  22
HETATM   22  C   UNL     1     -10.350   9.806  68.541  1.00  0.00    -0.202 C  
HETATM   23  N   UNL     1     -11.099   8.762  69.053  1.00  0.00    -0.429 N  
HETATM   24  O   UNL     1      -9.395  10.352  69.085  1.00  0.00    -0.186 OA 
HETATM   25  H   UNL     1     -11.816   8.378  68.437  1.00  0.00     0.000 HD 
BRANCH  23  26
HETATM   26  C   UNL     1     -10.988   8.169  70.321  1.00  0.00    -0.240 A  
HETATM   27  C   UNL     1     -11.477   8.767  71.501  1.00  0.00    -0.375 A  
HETATM   28  C   UNL     1     -11.349   8.071  72.716  1.00  0.00    -0.439 A  
HETATM   29  C   UNL     1     -12.191  10.090  71.554  1.00  0.00    -0.496 C  
HETATM   30  C   UNL     1     -10.797   6.794  72.759  1.00  0.00    -0.294 A  
HETATM   31  C   UNL     1     -10.354   6.191  71.588  1.00  0.00    -0.259 A  
HETATM   32  C   UNL     1     -10.443   6.865  70.362  1.00  0.00    -0.229 A  
HETATM   33  C   UNL     1      -9.880   6.207  69.130  1.00  0.00    -0.176 C  
ENDBRANCH  23  26
ENDBRANCH  21  22
ENDBRANCH  18  21
ENDBRANCH  14  15
ENDBRANCH  11  14
ENDBRANCH  10  11
ENDBRANCH   9  10
ENDBRANCH   8   9
ENDBRANCH   2   3
TORSDOF 9
ENDMDL
MODEL        6
REMARK 921   NORMALIZED FREE ENERGY PREDICTED BY IDOCK:   -6.56 KCAL/MOL
REMARK 922        TOTAL FREE ENERGY PREDICTED BY IDOCK:  -11.11 KCAL/MOL
REMARK 923 INTER-LIGAND FREE ENERGY PREDICTED BY IDOCK:  -10.05 KCAL/MOL
REMARK 924 INTRA-LIGAND FREE ENERGY PREDICTED BY IDOCK:   -1.06 KCAL/MOL
REMARK 927      BINDING AFFINITY PREDICTED BY RF-SCORE:    0.00 PKD
ROOT
HETATM    1  C   UNL     1     -12.659  13.455  71.086  1.00  0.00    -0.345 C  
HETATM    2  O   UNL     1     -12.034  12.376  70.398  1.00  0.00    -0.344 OA 
ENDROOT
BRANCH   2   3
HETATM    3  C   UNL     1     -12.161  11.138  70.972  1.00  0.00    -0.333 A  
HETATM    4  C   UNL     1     -13.231  10.844  71.837  1.00  0.00    -0.508 A  
HETATM    5  C   UNL     1     -13.352   9.589  72.431  1.00  0.00    -0.469 A  
HETATM    6  C   UNL     1     -12.411   8.603  72.159  1.00  0.00    -0.453 A  
HETATM    7  C   UNL     1     -11.366   8.872  71.277  1.00  0.00    -0.371 A  
HETATM    8  C   UNL     1     -11.234  10.126  70.662  1.00  0.00    -0.340 A  
BRANCH   8   9
HETATM    9  O   UNL     1     -10.155  10.175  69.815  1.00  0.00    -0.230 OA 
BRANCH   9  10
HETATM   10  C   UNL     1     -10.063   9.203  68.775  1.00  0.00    -0.197 C  
BRANCH  10  11
HETATM   11  C   UNL     1      -9.964   9.907  67.408  1.00  0.00    -0.189 C  
HETATM   12  H   UNL     1     -10.080   9.422  65.476  1.00  0.00     0.000 HD 
HETATM   13  O   UNL     1     -10.140   8.988  66.319  1.00  0.00    -0.295 OA 
BRANCH  11  14
HETATM   14  C   UNL     1     -11.034  11.023  67.280  1.00  0.00    -0.297 C  
BRANCH  14  15
HETATM   15  N   UNL     1     -10.846  11.940  66.138  1.00  0.00    -0.281 NA 
HETATM   16  C   UNL     1     -11.997  12.837  65.960  1.00  0.00    -0.432 C  
HETATM   17  C   UNL     1     -12.154  13.816  67.134  1.00  0.00    -0.378 C  
HETATM   18  N   UNL     1     -11.003  14.728  67.324  1.00  0.00    -0.309 NA 
HETATM   19  C   UNL     1      -9.740  13.958  67.302  1.00  0.00    -0.245 C  
HETATM   20  C   UNL     1      -9.637  12.779  66.291  1.00  0.00    -0.242 C  
BRANCH  18  21
HETATM   21  C   UNL     1     -11.031  15.819  66.317  1.00  0.00    -0.163 C  
BRANCH  21  22
HETATM   22  C   UNL     1      -9.703  16.616  66.363  1.00  0.00    -0.286 C  
HETATM   23  N   UNL     1      -9.705  17.547  67.387  1.00  0.00    -0.268 N  
HETATM   24  O   UNL     1      -8.775  16.377  65.599  1.00  0.00    -0.372 OA 
HETATM   25  H   UNL     1     -10.538  17.569  67.975  1.00  0.00     0.000 HD 
BRANCH  23  26
HETATM   26  C   UNL     1      -8.693  18.466  67.711  1.00  0.00    -0.267 A  
HETATM   27  C   UNL     1      -7.582  18.141  68.518  1.00  0.00    -0.298 A  
HETATM   28  C   UNL     1      -6.604  19.124  68.750  1.00  0.00    -0.306 A  
HETATM   29  C   UNL     1      -7.326  16.782  69.108  1.00  0.00    -0.213 C  
HETATM   30  C   UNL     1      -6.695  20.383  68.163  1.00  0.00    -0.326 A  
HETATM   31  C   UNL     1      -7.771  20.686  67.337  1.00  0.00    -0.355 A  
HETATM   32  C   UNL     1      -8.776  19.738  67.101  1.00  0.00    -0.383 A  
HETATM   33  C   UNL     1      -9.964  20.134  66.262  1.00  0.00    -0.557 C  
ENDBRANCH  23  26
ENDBRANCH  21  22
ENDBRANCH  18  21
ENDBRANCH  14  15
ENDBRANCH  11  14
ENDBRANCH  10  11
ENDBRANCH   9  10
ENDBRANCH   8   9
ENDBRANCH   2   3
TORSDOF 9
ENDMDL
MODEL        7
REMARK 921   NORMALIZED FREE ENERGY PREDICTED BY IDOCK:   -6.52 KCAL/MOL
REMARK 922        TOTAL FREE ENERGY PREDICTED BY IDOCK:  -11.05 KCAL/MOL
REMARK 923 INTER-LIGAND FREE ENERGY PREDICTED BY IDOCK:   -9.65 KCAL/MOL
REMARK 924 INTRA-LIGAND FREE ENERGY PREDICTED BY IDOCK:   -1.40 KCAL/MOL
REMARK 927      BINDING AFFINITY PREDICTED BY RF-SCORE:    0.00 PKD
ROOT
HETATM    1  C   UNL     1     -13.145  11.406  71.608  1.00  0.00    -0.393 C  
HETATM    2  O   UNL     1     -12.851  12.539  70.795  1.00  0.00    -0.161 OA 
ENDROOT
BRANCH   2   3
HETATM    3  C   UNL     1     -12.671  13.726  71.454  1.00  0.00    -0.367 A  
HETATM    4  C   UNL     1     -13.061  13.879  72.797  1.00  0.00    -0.484 A  
HETATM    5  C   UNL     1     -12.889  15.091  73.463  1.00  0.00    -0.636 A  
HETATM    6  C   UNL     1     -12.313  16.167  72.798  1.00  0.00    -0.585 A  
HETATM    7  C   UNL     1     -11.892  16.018  71.478  1.00  0.00    -0.554 A  
HETATM    8  C   UNL     1     -12.047  14.802  70.795  1.00  0.00    -0.309 A  
BRANCH   8   9
HETATM    9  O   UNL     1     -11.547  14.859  69.519  1.00  0.00    -0.269 OA 
BRANCH   9  10
HETATM   10  C   UNL     1     -11.680  16.078  68.790  1.00  0.00    -0.299 C  
BRANCH  10  11
HETATM   11  C   UNL     1     -10.716  16.076  67.588  1.00  0.00    -0.320 C  
HETATM   12  H   UNL     1      -9.567  17.378  66.605  1.00  0.00     0.000 HD 
HETATM   13  O   UNL     1     -10.161  17.379  67.346  1.00  0.00    -0.305 OA 
BRANCH  11  14
HETATM   14  C   UNL     1      -9.546  15.085  67.817  1.00  0.00    -0.203 C  
BRANCH  14  15
HETATM   15  N   UNL     1      -9.338  14.102  66.734  1.00  0.00    -0.272 NA 
HETATM   16  C   UNL     1      -8.629  12.905  67.207  1.00  0.00    -0.205 C  
HETATM   17  C   UNL     1      -9.464  12.099  68.215  1.00  0.00    -0.204 C  
HETATM   18  N   UNL     1     -10.740  11.580  67.671  1.00  0.00    -0.201 NA 
HETATM   19  C   UNL     1     -11.463  12.659  66.964  1.00  0.00    -0.346 C  
HETATM   20  C   UNL     1     -10.616  13.663  66.130  1.00  0.00    -0.291 C  
BRANCH  18  21
HETATM   21  C   UNL     1     -10.496  10.391  66.814  1.00  0.00    -0.225 C  
BRANCH  21  22
HETATM   22  C   UNL     1      -9.815   9.273  67.642  1.00  0.00    -0.176 C  
HETATM   23  N   UNL     1     -10.705   8.671  68.513  1.00  0.00    -0.416 N  
HETATM   24  O   UNL     1      -8.640   8.962  67.471  1.00  0.00    -0.119 OA 
HETATM   25  H   UNL     1     -11.667   9.009  68.479  1.00  0.00     0.000 HD 
BRANCH  23  26
HETATM   26  C   UNL     1     -10.440   7.647  69.437  1.00  0.00    -0.220 A  
HETATM   27  C   UNL     1     -10.160   7.888  70.799  1.00  0.00    -0.201 A  
HETATM   28  C   UNL     1      -9.946   6.789  71.650  1.00  0.00    -0.183 A  
HETATM   29  C   UNL     1     -10.133   9.250  71.436  1.00  0.00    -0.348 C  
HETATM   30  C   UNL     1     -10.053   5.484  71.180  1.00  0.00    -0.267 A  
HETATM   31  C   UNL     1     -10.369   5.250  69.847  1.00  0.00    -0.374 A  
HETATM   32  C   UNL     1     -10.566   6.321  68.964  1.00  0.00    -0.322 A  
HETATM   33  C   UNL     1     -10.829   6.024  67.511  1.00  0.00    -0.393 C  
ENDBRANCH  23  26
ENDBRANCH  21  22
ENDBRANCH  18  21
ENDBRANCH  14  15
ENDBRANCH  11  14
ENDBRANCH  10  11
ENDBRANCH   9  10
ENDBRANCH   8   9
ENDBRANCH   2   3
TORSDOF 9
ENDMDL
MODEL        8
REMARK 921   NORMALIZED FREE ENERGY PREDICTED BY IDOCK:   -6.50 KCAL/MOL
REMARK 922        TOTAL FREE ENERGY PREDICTED BY IDOCK:  -11.02 KCAL/MOL
REMARK 923 INTER-LIGAND FREE ENERGY PREDICTED BY IDOCK:   -9.75 KCAL/MOL
REMARK 924 INTRA-LIGAND FREE ENERGY PREDICTED BY IDOCK:   -1.27 KCAL/MOL
REMARK 927      BINDING AFFINITY PREDICTED BY RF-SCORE:    0.00 PKD
ROOT
HETATM    1  C   UNL     1     -13.317  11.490  71.872  1.00  0.00    -0.303 C  
HETATM    2  O   UNL     1     -12.887  12.495  70.959  1.00  0.00    -0.270 OA 
ENDROOT
BRANCH   2   3
HETATM    3  C   UNL     1     -12.636  13.731  71.494  1.00  0.00    -0.318 A  
HETATM    4  C   UNL     1     -13.059  14.060  72.795  1.00  0.00    -0.537 A  
HETATM    5  C   UNL     1     -12.815  15.322  73.333  1.00  0.00    -0.667 A  
HETATM    6  C   UNL     1     -12.131  16.272  72.583  1.00  0.00    -0.628 A  
HETATM    7  C   UNL     1     -11.678  15.947  71.306  1.00  0.00    -0.504 A  
HETATM    8  C   UNL     1     -11.906  14.678  70.752  1.00  0.00    -0.311 A  
BRANCH   8   9
HETATM    9  O   UNL     1     -11.359  14.556  69.499  1.00  0.00    -0.254 OA 
BRANCH   9  10
HETATM   10  C   UNL     1     -11.664  15.551  68.523  1.00  0.00    -0.337 C  
BRANCH  10  11
HETATM   11  C   UNL     1     -11.040  15.164  67.169  1.00  0.00    -0.335 C  
HETATM   12  H   UNL     1     -10.139  16.069  65.637  1.00  0.00     0.000 HD 
HETATM   13  O   UNL     1     -10.524  16.308  66.472  1.00  0.00    -0.301 OA 
BRANCH  11  14
HETATM   14  C   UNL     1      -9.884  14.148  67.361  1.00  0.00    -0.239 C  
BRANCH  14  15
HETATM   15  N   UNL     1      -9.966  12.941  66.514  1.00  0.00    -0.253 NA 
HETATM   16  C   UNL     1      -8.986  11.921  66.915  1.00  0.00    -0.196 C  
HETATM   17  C   UNL     1      -9.282  11.353  68.312  1.00  0.00    -0.183 C  
HETATM   18  N   UNL     1     -10.591  10.670  68.427  1.00  0.00    -0.186 NA 
HETATM   19  C   UNL     1     -11.655  11.518  67.846  1.00  0.00    -0.282 C  
HETATM   20  C   UNL     1     -11.309  12.321  66.559  1.00  0.00    -0.351 C  
BRANCH  18  21
HETATM   21  C   UNL     1     -10.530   9.320  67.812  1.00  0.00    -0.255 C  
BRANCH  21  22
HETATM   22  C   UNL     1      -9.948   8.303  68.826  1.00  0.00    -0.183 C  
HETATM   23  N   UNL     1     -10.946   7.553  69.422  1.00  0.00    -0.421 N  
HETATM   24  O   UNL     1      -8.741   8.180  69.002  1.00  0.00    -0.141 OA 
HETATM   25  H   UNL     1     -11.899   7.739  69.109  1.00  0.00     0.000 HD 
BRANCH  23  26
HETATM   26  C   UNL     1     -10.800   6.564  70.409  1.00  0.00    -0.273 A  
HETATM   27  C   UNL     1     -10.294   5.274  70.143  1.00  0.00    -0.354 A  
HETATM   28  C   UNL     1     -10.152   4.369  71.210  1.00  0.00    -0.202 A  
HETATM   29  C   UNL     1      -9.829   4.802  68.793  1.00  0.00    -0.218 C  
HETATM   30  C   UNL     1     -10.456   4.744  72.516  1.00  0.00    -0.264 A  
HETATM   31  C   UNL     1     -10.916   6.028  72.779  1.00  0.00    -0.299 A  
HETATM   32  C   UNL     1     -11.092   6.949  71.737  1.00  0.00    -0.275 A  
HETATM   33  C   UNL     1     -11.667   8.304  72.056  1.00  0.00    -0.407 C  
ENDBRANCH  23  26
ENDBRANCH  21  22
ENDBRANCH  18  21
ENDBRANCH  14  15
ENDBRANCH  11  14
ENDBRANCH  10  11
ENDBRANCH   9  10
ENDBRANCH   8   9
ENDBRANCH   2   3
TORSDOF 9
ENDMDL
MODEL        9
REMARK 921   NORMALIZED FREE ENERGY PREDICTED BY IDOCK:   -6.49 KCAL/MOL
REMARK 922        TOTAL FREE ENERGY PREDICTED BY IDOCK:  -11.01 KCAL/MOL
REMARK 923 INTER-LIGAND FREE ENERGY PREDICTED BY IDOCK:   -9.33 KCAL/MOL
REMARK 924 INTRA-LIGAND FREE ENERGY PREDICTED BY IDOCK:   -1.67 KCAL/MOL
REMARK 927      BINDING AFFINITY PREDICTED BY RF-SCORE:    0.00 PKD
ROOT
HETATM    1  C   UNL     1      -7.416   7.184  71.461  1.00  0.00    -0.086 C  
HETATM    2  O   UNL     1      -8.456   6.617  70.668  1.00  0.00    -0.134 OA 
ENDROOT
BRANCH   2   3
HETATM    3  C   UNL     1      -9.736   6.966  71.010  1.00  0.00    -0.174 A  
HETATM    4  C   UNL     1      -9.988   7.889  72.041  1.00  0.00    -0.251 A  
HETATM    5  C   UNL     1     -11.290   8.233  72.397  1.00  0.00    -0.457 A  
HETATM    6  C   UNL     1     -12.363   7.667  71.718  1.00  0.00    -0.349 A  
HETATM    7  C   UNL     1     -12.126   6.776  70.673  1.00  0.00    -0.371 A  
HETATM    8  C   UNL     1     -10.821   6.427  70.294  1.00  0.00    -0.293 A  
BRANCH   8   9
HETATM    9  O   UNL     1     -10.807   5.558  69.232  1.00  0.00    -0.269 OA 
BRANCH   9  10
HETATM   10  C   UNL     1     -10.989   6.086  67.919  1.00  0.00    -0.237 C  
BRANCH  10  11
HETATM   11  C   UNL     1      -9.633   6.536  67.344  1.00  0.00    -0.125 C  
HETATM   12  H   UNL     1      -8.392   6.000  65.876  1.00  0.00     0.000 HD 
HETATM   13  O   UNL     1      -9.229   5.723  66.230  1.00  0.00    -0.152 OA 
BRANCH  11  14
HETATM   14  C   UNL     1      -9.691   8.012  66.872  1.00  0.00    -0.225 C  
BRANCH  14  15
HETATM   15  N   UNL     1      -9.357   9.012  67.906  1.00  0.00    -0.140 NA 
HETATM   16  C   UNL     1      -8.499  10.083  67.377  1.00  0.00    -0.121 C  
HETATM   17  C   UNL     1      -9.225  10.938  66.326  1.00  0.00    -0.177 C  
HETATM   18  N   UNL     1     -10.421  11.645  66.838  1.00  0.00    -0.220 NA 
HETATM   19  C   UNL     1     -11.277  10.705  67.594  1.00  0.00    -0.290 C  
HETATM   20  C   UNL     1     -10.566   9.642  68.481  1.00  0.00    -0.220 C  
BRANCH  18  21
HETATM   21  C   UNL     1     -10.024  12.833  67.635  1.00  0.00    -0.217 C  
BRANCH  21  22
HETATM   22  C   UNL     1     -11.265  13.435  68.341  1.00  0.00    -0.279 C  
HETATM   23  N   UNL     1     -11.127  13.411  69.718  1.00  0.00    -0.465 N  
HETATM   24  O   UNL     1     -12.204  13.910  67.712  1.00  0.00    -0.338 OA 
HETATM   25  H   UNL     1     -10.248  13.039  70.077  1.00  0.00     0.000 HD 
BRANCH  23  26
HETATM   26  C   UNL     1     -12.058  13.839  70.679  1.00  0.00    -0.333 A  
HETATM   27  C   UNL     1     -12.905  12.957  71.383  1.00  0.00    -0.377 A  
HETATM   28  C   UNL     1     -13.774  13.485  72.354  1.00  0.00    -0.704 A  
HETATM   29  C   UNL     1     -12.907  11.462  71.217  1.00  0.00    -0.481 C  
HETATM   30  C   UNL     1     -13.775  14.843  72.657  1.00  0.00    -0.552 A  
HETATM   31  C   UNL     1     -12.910  15.703  71.990  1.00  0.00    -0.518 A  
HETATM   32  C   UNL     1     -12.046  15.215  71.000  1.00  0.00    -0.389 A  
HETATM   33  C   UNL     1     -11.181  16.192  70.247  1.00  0.00    -0.389 C  
ENDBRANCH  23  26
ENDBRANCH  21  22
ENDBRANCH  18  21
ENDBRANCH  14  15
ENDBRANCH  11  14
ENDBRANCH  10  11
ENDBRANCH   9  10
ENDBRANCH   8   9
ENDBRANCH   2   3
TORSDOF 9
ENDMDL
MODEL       10
REMARK 921   NORMALIZED FREE ENERGY PREDICTED BY IDOCK:   -6.46 KCAL/MOL
REMARK 922        TOTAL FREE ENERGY PREDICTED BY IDOCK:  -10.95 KCAL/MOL
REMARK 923 INTER-LIGAND FREE ENERGY PREDICTED BY IDOCK:  -10.25 KCAL/MOL
REMARK 924 INTRA-LIGAND FREE ENERGY PREDICTED BY IDOCK:   -0.71 KCAL/MOL
REMARK 927      BINDING AFFINITY PREDICTED BY RF-SCORE:    0.00 PKD
ROOT
HETATM    1  C   UNL     1      -5.345  19.302  64.555  1.00  0.00    -0.210 C  
HETATM    2  O   UNL     1      -6.647  18.807  64.856  1.00  0.00    -0.516 OA 
ENDROOT
BRANCH   2   3
HETATM    3  C   UNL     1      -7.080  18.989  66.143  1.00  0.00    -0.253 A  
HETATM    4  C   UNL     1      -6.282  19.652  67.093  1.00  0.00    -0.196 A  
HETATM    5  C   UNL     1      -6.719  19.825  68.405  1.00  0.00    -0.324 A  
HETATM    6  C   UNL     1      -7.967  19.346  68.786  1.00  0.00    -0.391 A  
HETATM    7  C   UNL     1      -8.780  18.716  67.845  1.00  0.00    -0.309 A  
HETATM    8  C   UNL     1      -8.362  18.544  66.517  1.00  0.00    -0.281 A  
BRANCH   8   9
HETATM    9  O   UNL     1      -9.317  17.925  65.751  1.00  0.00    -0.507 OA 
BRANCH   9  10
HETATM   10  C   UNL     1      -9.592  16.545  65.990  1.00  0.00    -0.290 C  
BRANCH  10  11
HETATM   11  C   UNL     1     -10.910  16.148  65.299  1.00  0.00    -0.336 C  
HETATM   12  H   UNL     1     -12.001  16.733  63.735  1.00  0.00     0.000 HD 
HETATM   13  O   UNL     1     -11.188  16.978  64.160  1.00  0.00    -1.130 OA 
BRANCH  11  14
HETATM   14  C   UNL     1     -10.867  14.672  64.826  1.00  0.00    -0.385 C  
BRANCH  14  15
HETATM   15  N   UNL     1     -11.991  13.833  65.289  1.00  0.00    -0.355 NA 
HETATM   16  C   UNL     1     -11.695  12.399  65.163  1.00  0.00    -0.382 C  
HETATM   17  C   UNL     1     -10.559  11.958  66.100  1.00  0.00    -0.258 C  
HETATM   18  N   UNL     1     -10.851  12.148  67.539  1.00  0.00    -0.234 NA 
HETATM   19  C   UNL     1     -11.376  13.511  67.773  1.00  0.00    -0.296 C  
HETATM   20  C   UNL     1     -12.339  14.101  66.703  1.00  0.00    -0.339 C  
BRANCH  18  21
HETATM   21  C   UNL     1     -11.765  11.086  68.031  1.00  0.00    -0.179 C  
BRANCH  21  22
HETATM   22  C   UNL     1     -11.463  10.774  69.518  1.00  0.00    -0.294 C  
HETATM   23  N   UNL     1     -10.952   9.498  69.676  1.00  0.00    -0.299 N  
HETATM   24  O   UNL     1     -11.624  11.608  70.402  1.00  0.00    -0.257 OA 
HETATM   25  H   UNL     1     -10.819   8.957  68.821  1.00  0.00     0.000 HD 
BRANCH  23  26
HETATM   26  C   UNL     1     -10.595   8.860  70.875  1.00  0.00    -0.233 A  
HETATM   27  C   UNL     1      -9.273   8.818  71.366  1.00  0.00    -0.325 A  
HETATM   28  C   UNL     1      -9.028   8.186  72.598  1.00  0.00    -0.299 A  
HETATM   29  C   UNL     1      -8.092   9.460  70.691  1.00  0.00    -0.197 C  
HETATM   30  C   UNL     1     -10.069   7.652  73.351  1.00  0.00    -0.379 A  
HETATM   31  C   UNL     1     -11.375   7.732  72.884  1.00  0.00    -0.406 A  
HETATM   32  C   UNL     1     -11.654   8.333  71.649  1.00  0.00    -0.337 A  
HETATM   33  C   UNL     1     -13.073   8.329  71.144  1.00  0.00    -0.050 C  
ENDBRANCH  23  26
ENDBRANCH  21  22
ENDBRANCH  18  21
ENDBRANCH  14  15
ENDBRANCH  11  14
ENDBRANCH  10  11
ENDBRANCH   9  10
ENDBRANCH   8   9
ENDBRANCH   2   3
TORSDOF 9
ENDMDL
MODEL       11
REMARK 921   NORMALIZED FREE ENERGY PREDICTED BY IDOCK:   -6.43 KCAL/MOL
REMARK 922        TOTAL FREE ENERGY PREDICTED BY IDOCK:  -10.91 KCAL/MOL
REMARK 923 INTER-LIGAND FREE ENERGY PREDICTED BY IDOCK:   -9.75 KCAL/MOL
REMARK 924 INTRA-LIGAND FREE ENERGY PREDICTED BY IDOCK:   -1.16 KCAL/MOL
REMARK 927      BINDING AFFINITY PREDICTED BY RF-SCORE:    0.00 PKD
ROOT
HETATM    1  C   UNL     1     -12.126   7.221  71.288  1.00  0.00    -0.338 C  
HETATM    2  O   UNL     1     -11.410   8.244  70.602  1.00  0.00    -0.264 OA 
ENDROOT
BRANCH   2   3
HETATM    3  C   UNL     1     -11.870   9.523  70.773  1.00  0.00    -0.277 A  
HETATM    4  C   UNL     1     -12.746   9.847  71.825  1.00  0.00    -0.523 A  
HETATM    5  C   UNL     1     -13.224  11.145  71.990  1.00  0.00    -0.428 A  
HETATM    6  C   UNL     1     -12.822  12.145  71.111  1.00  0.00    -0.313 A  
HETATM    7  C   UNL     1     -11.928  11.843  70.085  1.00  0.00    -0.413 A  
HETATM    8  C   UNL     1     -11.429  10.544  69.911  1.00  0.00    -0.310 A  
BRANCH   8   9
HETATM    9  O   UNL     1     -10.547  10.466  68.862  1.00  0.00    -0.190 OA 
BRANCH   9  10
HETATM   10  C   UNL     1     -11.032  10.016  67.598  1.00  0.00    -0.234 C  
BRANCH  10  11
HETATM   11  C   UNL     1     -10.226  10.676  66.463  1.00  0.00    -0.233 C  
HETATM   12  H   UNL     1      -9.278  10.119  64.798  1.00  0.00     0.000 HD 
HETATM   13  O   UNL     1      -9.775   9.712  65.498  1.00  0.00    -0.280 OA 
BRANCH  11  14
HETATM   14  C   UNL     1     -11.076  11.742  65.726  1.00  0.00    -0.297 C  
BRANCH  14  15
HETATM   15  N   UNL     1     -11.545  12.860  66.569  1.00  0.00    -0.351 NA 
HETATM   16  C   UNL     1     -10.432  13.550  67.237  1.00  0.00    -0.248 C  
HETATM   17  C   UNL     1      -9.514  14.269  66.235  1.00  0.00    -0.252 C  
HETATM   18  N   UNL     1     -10.184  15.329  65.448  1.00  0.00    -0.373 NA 
HETATM   19  C   UNL     1     -11.455  14.816  64.892  1.00  0.00    -0.412 C  
HETATM   20  C   UNL     1     -12.300  13.866  65.789  1.00  0.00    -0.486 C  
BRANCH  18  21
HETATM   21  C   UNL     1     -10.365  16.552  66.269  1.00  0.00    -0.320 C  
BRANCH  21  22
HETATM   22  C   UNL     1      -8.996  17.235  66.512  1.00  0.00    -0.268 C  
HETATM   23  N   UNL     1      -8.812  17.545  67.848  1.00  0.00    -0.242 N  
HETATM   24  O   UNL     1      -8.187  17.408  65.606  1.00  0.00    -0.491 OA 
HETATM   25  H   UNL     1      -9.563  17.269  68.481  1.00  0.00     0.000 HD 
BRANCH  23  26
HETATM   26  C   UNL     1      -7.714  18.195  68.433  1.00  0.00    -0.295 A  
HETATM   27  C   UNL     1      -7.459  19.574  68.282  1.00  0.00    -0.350 A  
HETATM   28  C   UNL     1      -6.351  20.134  68.942  1.00  0.00    -0.358 A  
HETATM   29  C   UNL     1      -8.331  20.521  67.504  1.00  0.00    -0.310 C  
HETATM   30  C   UNL     1      -5.542  19.363  69.770  1.00  0.00    -0.249 A  
HETATM   31  C   UNL     1      -5.819  18.013  69.949  1.00  0.00    -0.237 A  
HETATM   32  C   UNL     1      -6.901  17.415  69.288  1.00  0.00    -0.200 A  
HETATM   33  C   UNL     1      -7.120  15.933  69.448  1.00  0.00    -0.215 C  
ENDBRANCH  23  26
ENDBRANCH  21  22
ENDBRANCH  18  21
ENDBRANCH  14  15
ENDBRANCH  11  14
ENDBRANCH  10  11
ENDBRANCH   9  10
ENDBRANCH   8   9
ENDBRANCH   2   3
TORSDOF 9
ENDMDL
MODEL       12
REMARK 921   NORMALIZED FREE ENERGY PREDICTED BY IDOCK:   -6.39 KCAL/MOL
REMARK 922        TOTAL FREE ENERGY PREDICTED BY IDOCK:  -10.84 KCAL/MOL
REMARK 923 INTER-LIGAND FREE ENERGY PREDICTED BY IDOCK:   -9.14 KCAL/MOL
REMARK 924 INTRA-LIGAND FREE ENERGY PREDICTED BY IDOCK:   -1.70 KCAL/MOL
REMARK 927      BINDING AFFINITY PREDICTED BY RF-SCORE:    0.00 PKD
ROOT
HETATM    1  C   UNL     1      -8.171   5.868  72.933  1.00  0.00    -0.118 C  
HETATM    2  O   UNL     1      -8.593   6.673  71.836  1.00  0.00    -0.124 OA 
ENDROOT
BRANCH   2   3
HETATM    3  C   UNL     1      -9.929   6.973  71.784  1.00  0.00    -0.176 A  
HETATM    4  C   UNL     1     -10.479   7.990  72.585  1.00  0.00    -0.408 A  
HETATM    5  C   UNL     1     -11.840   8.285  72.541  1.00  0.00    -0.439 A  
HETATM    6  C   UNL     1     -12.673   7.573  71.685  1.00  0.00    -0.385 A  
HETATM    7  C   UNL     1     -12.134   6.585  70.862  1.00  0.00    -0.293 A  
HETATM    8  C   UNL     1     -10.764   6.283  70.885  1.00  0.00    -0.259 A  
BRANCH   8   9
HETATM    9  O   UNL     1     -10.437   5.300  69.985  1.00  0.00    -0.293 OA 
BRANCH   9  10
HETATM   10  C   UNL     1     -10.533   5.594  68.592  1.00  0.00    -0.207 C  
BRANCH  10  11
HETATM   11  C   UNL     1      -9.201   6.180  68.088  1.00  0.00    -0.117 C  
HETATM   12  H   UNL     1      -7.763   5.696  66.792  1.00  0.00     0.000 HD 
HETATM   13  O   UNL     1      -8.584   5.335  67.103  1.00  0.00    -0.107 OA 
BRANCH  11  14
HETATM   14  C   UNL     1      -9.412   7.583  67.463  1.00  0.00    -0.139 C  
BRANCH  14  15
HETATM   15  N   UNL     1      -8.975   8.715  68.305  1.00  0.00    -0.142 NA 
HETATM   16  C   UNL     1      -8.340   9.777  67.511  1.00  0.00    -0.114 C  
HETATM   17  C   UNL     1      -9.332  10.454  66.553  1.00  0.00    -0.163 C  
HETATM   18  N   UNL     1     -10.465  11.127  67.227  1.00  0.00    -0.214 NA 
HETATM   19  C   UNL     1     -11.067  10.221  68.229  1.00  0.00    -0.254 C  
HETATM   20  C   UNL     1     -10.101   9.319  69.051  1.00  0.00    -0.199 C  
BRANCH  18  21
HETATM   21  C   UNL     1     -10.031  12.423  67.808  1.00  0.00    -0.205 C  
BRANCH  21  22
HETATM   22  C   UNL     1     -11.245  13.158  68.429  1.00  0.00    -0.271 C  
HETATM   23  N   UNL     1     -11.123  13.268  69.803  1.00  0.00    -0.470 N  
HETATM   24  O   UNL     1     -12.151  13.614  67.740  1.00  0.00    -0.358 OA 
HETATM   25  H   UNL     1     -10.269  12.890  70.212  1.00  0.00     0.000 HD 
BRANCH  23  26
HETATM   26  C   UNL     1     -12.039  13.840  70.701  1.00  0.00    -0.333 A  
HETATM   27  C   UNL     1     -12.176  15.232  70.886  1.00  0.00    -0.409 A  
HETATM   28  C   UNL     1     -13.151  15.703  71.783  1.00  0.00    -0.546 A  
HETATM   29  C   UNL     1     -11.387  16.273  70.140  1.00  0.00    -0.292 C  
HETATM   30  C   UNL     1     -14.004  14.825  72.445  1.00  0.00    -0.575 A  
HETATM   31  C   UNL     1     -13.893  13.456  72.230  1.00  0.00    -0.671 A  
HETATM   32  C   UNL     1     -12.917  12.949  71.361  1.00  0.00    -0.362 A  
HETATM   33  C   UNL     1     -12.779  11.456  71.216  1.00  0.00    -0.498 C  
ENDBRANCH  23  26
ENDBRANCH  21  22
ENDBRANCH  18  21
ENDBRANCH  14  15
ENDBRANCH  11  14
ENDBRANCH  10  11
ENDBRANCH   9  10
ENDBRANCH   8   9
ENDBRANCH   2   3
TORSDOF 9
ENDMDL
MODEL       13
REMARK 921   NORMALIZED FREE ENERGY PREDICTED BY IDOCK:   -6.38 KCAL/MOL
REMARK 922        TOTAL FREE ENERGY PREDICTED BY IDOCK:  -10.83 KCAL/MOL
REMARK 923 INTER-LIGAND FREE ENERGY PREDICTED BY IDOCK:   -9.98 KCAL/MOL
REMARK 924 INTRA-LIGAND FREE ENERGY PREDICTED BY IDOCK:   -0.85 KCAL/MOL
REMARK 927      BINDING AFFINITY PREDICTED BY RF-SCORE:    0.00 PKD
ROOT
HETATM    1  C   UNL     1     -10.829   5.723  71.397  1.00  0.00    -0.251 C  
HETATM    2  O   UNL     1     -11.803   6.350  70.568  1.00  0.00    -0.374 OA 
ENDROOT
BRANCH   2   3
HETATM    3  C   UNL     1     -12.286   7.555  71.008  1.00  0.00    -0.259 A  
HETATM    4  C   UNL     1     -13.504   7.640  71.705  1.00  0.00    -0.415 A  
HETATM    5  C   UNL     1     -14.001   8.867  72.140  1.00  0.00    -0.520 A  
HETATM    6  C   UNL     1     -13.279  10.029  71.895  1.00  0.00    -0.557 A  
HETATM    7  C   UNL     1     -12.054   9.954  71.234  1.00  0.00    -0.485 A  
HETATM    8  C   UNL     1     -11.534   8.726  70.799  1.00  0.00    -0.270 A  
BRANCH   8   9
HETATM    9  O   UNL     1     -10.309   8.868  70.195  1.00  0.00    -0.193 OA 
BRANCH   9  10
HETATM   10  C   UNL     1     -10.245   8.832  68.770  1.00  0.00    -0.206 C  
BRANCH  10  11
HETATM   11  C   UNL     1      -9.753  10.190  68.234  1.00  0.00    -0.141 C  
HETATM   12  H   UNL     1      -8.061  10.985  67.538  1.00  0.00     0.000 HD 
HETATM   13  O   UNL     1      -8.364  10.147  67.868  1.00  0.00    -0.116 OA 
BRANCH  11  14
HETATM   14  C   UNL     1     -10.571  10.626  66.991  1.00  0.00    -0.262 C  
BRANCH  14  15
HETATM   15  N   UNL     1     -11.699  11.536  67.274  1.00  0.00    -0.603 NA 
HETATM   16  C   UNL     1     -11.461  12.351  68.474  1.00  0.00    -0.306 C  
HETATM   17  C   UNL     1     -10.296  13.335  68.283  1.00  0.00    -0.249 C  
HETATM   18  N   UNL     1     -10.507  14.325  67.203  1.00  0.00    -0.265 NA 
HETATM   19  C   UNL     1     -10.971  13.642  65.976  1.00  0.00    -0.286 C  
HETATM   20  C   UNL     1     -11.965  12.458  66.147  1.00  0.00    -0.327 C  
BRANCH  18  21
HETATM   21  C   UNL     1     -11.433  15.396  67.652  1.00  0.00    -0.251 C  
BRANCH  21  22
HETATM   22  C   UNL     1     -10.633  16.539  68.326  1.00  0.00    -0.326 C  
HETATM   23  N   UNL     1      -9.713  17.097  67.456  1.00  0.00    -0.251 N  
HETATM   24  O   UNL     1     -10.862  16.902  69.475  1.00  0.00    -0.303 OA 
HETATM   25  H   UNL     1      -9.700  16.717  66.510  1.00  0.00     0.000 HD 
BRANCH  23  26
HETATM   26  C   UNL     1      -8.795  18.126  67.724  1.00  0.00    -0.256 A  
HETATM   27  C   UNL     1      -7.618  17.936  68.478  1.00  0.00    -0.290 A  
HETATM   28  C   UNL     1      -6.746  19.025  68.656  1.00  0.00    -0.306 A  
HETATM   29  C   UNL     1      -7.185  16.622  69.066  1.00  0.00    -0.222 C  
HETATM   30  C   UNL     1      -7.004  20.258  68.065  1.00  0.00    -0.327 A  
HETATM   31  C   UNL     1      -8.144  20.429  67.288  1.00  0.00    -0.384 A  
HETATM   32  C   UNL     1      -9.048  19.373  67.109  1.00  0.00    -0.359 A  
HETATM   33  C   UNL     1     -10.310  19.624  66.325  1.00  0.00    -0.619 C  
ENDBRANCH  23  26
ENDBRANCH  21  22
ENDBRANCH  18  21
ENDBRANCH  14  15
ENDBRANCH  11  14
ENDBRANCH  10  11
ENDBRANCH   9  10
ENDBRANCH   8   9
ENDBRANCH   2   3
TORSDOF 9
ENDMDL
MODEL       14
REMARK 921   NORMALIZED FREE ENERGY PREDICTED BY IDOCK:   -6.36 KCAL/MOL
REMARK 922        TOTAL FREE ENERGY PREDICTED BY IDOCK:  -10.80 KCAL/MOL
REMARK 923 INTER-LIGAND FREE ENERGY PREDICTED BY IDOCK:   -9.39 KCAL/MOL
REMARK 924 INTRA-LIGAND FREE ENERGY PREDICTED BY IDOCK:   -1.41 KCAL/MOL
REMARK 927      BINDING AFFINITY PREDICTED BY RF-SCORE:    0.00 PKD
ROOT
HETATM    1  C   UNL     1     -14.348   7.377  71.702  1.00  0.00    -0.461 C  
HETATM    2  O   UNL     1     -13.137   7.823  71.098  1.00  0.00    -0.234 OA 
ENDROOT
BRANCH   2   3
HETATM    3  C   UNL     1     -11.976   7.346  71.647  1.00  0.00    -0.307 A  
HETATM    4  C   UNL     1     -11.642   7.611  72.987  1.00  0.00    -0.183 A  
HETATM    5  C   UNL     1     -10.454   7.137  73.541  1.00  0.00    -0.422 A  
HETATM    6  C   UNL     1      -9.586   6.378  72.765  1.00  0.00    -0.154 A  
HETATM    7  C   UNL     1      -9.922   6.080  71.445  1.00  0.00    -0.223 A  
HETATM    8  C   UNL     1     -11.118   6.541  70.875  1.00  0.00    -0.292 A  
BRANCH   8   9
HETATM    9  O   UNL     1     -11.269   6.118  69.578  1.00  0.00    -0.389 OA 
BRANCH   9  10
HETATM   10  C   UNL     1     -10.298   5.222  69.037  1.00  0.00    -0.176 C  
BRANCH  10  11
HETATM   11  C   UNL     1      -9.672   5.833  67.770  1.00  0.00    -0.119 C  
HETATM   12  H   UNL     1     -10.237   6.308  65.916  1.00  0.00     0.000 HD 
HETATM   13  O   UNL     1     -10.623   5.931  66.698  1.00  0.00    -0.263 OA 
BRANCH  11  14
HETATM   14  C   UNL     1      -9.113   7.251  68.054  1.00  0.00    -0.133 C  
BRANCH  14  15
HETATM   15  N   UNL     1      -9.468   8.276  67.052  1.00  0.00    -0.164 NA 
HETATM   16  C   UNL     1     -10.651   9.050  67.455  1.00  0.00    -0.237 C  
HETATM   17  C   UNL     1     -10.385   9.903  68.706  1.00  0.00    -0.203 C  
HETATM   18  N   UNL     1      -9.322  10.919  68.534  1.00  0.00    -0.174 NA 
HETATM   19  C   UNL     1      -8.127  10.300  67.920  1.00  0.00    -0.102 C  
HETATM   20  C   UNL     1      -8.362   9.229  66.816  1.00  0.00    -0.123 C  
BRANCH  18  21
HETATM   21  C   UNL     1      -9.830  12.081  67.762  1.00  0.00    -0.190 C  
BRANCH  21  22
HETATM   22  C   UNL     1     -11.186  12.552  68.345  1.00  0.00    -0.272 C  
HETATM   23  N   UNL     1     -11.036  13.083  69.614  1.00  0.00    -0.468 N  
HETATM   24  O   UNL     1     -12.227  12.490  67.700  1.00  0.00    -0.401 OA 
HETATM   25  H   UNL     1     -10.084  13.119  69.978  1.00  0.00     0.000 HD 
BRANCH  23  26
HETATM   26  C   UNL     1     -12.042  13.577  70.461  1.00  0.00    -0.335 A  
HETATM   27  C   UNL     1     -12.843  12.749  71.276  1.00  0.00    -0.355 A  
HETATM   28  C   UNL     1     -13.798  13.348  72.116  1.00  0.00    -0.605 A  
HETATM   29  C   UNL     1     -12.711  11.254  71.363  1.00  0.00    -0.501 C  
HETATM   30  C   UNL     1     -13.927  14.732  72.187  1.00  0.00    -0.590 A  
HETATM   31  C   UNL     1     -13.109  15.546  71.413  1.00  0.00    -0.580 A  
HETATM   32  C   UNL     1     -12.162  14.983  70.546  1.00  0.00    -0.391 A  
HETATM   33  C   UNL     1     -11.349  15.897  69.666  1.00  0.00    -0.342 C  
ENDBRANCH  23  26
ENDBRANCH  21  22
ENDBRANCH  18  21
ENDBRANCH  14  15
ENDBRANCH  11  14
ENDBRANCH  10  11
ENDBRANCH   9  10
ENDBRANCH   8   9
ENDBRANCH   2   3
TORSDOF 9
ENDMDL
MODEL       15
REMARK 921   NORMALIZED FREE ENERGY PREDICTED BY IDOCK:   -6.36 KCAL/MOL
REMARK 922        TOTAL FREE ENERGY PREDICTED BY IDOCK:  -10.80 KCAL/MOL
REMARK 923 INTER-LIGAND FREE ENERGY PREDICTED BY IDOCK:   -9.72 KCAL/MOL
REMARK 924 INTRA-LIGAND FREE ENERGY PREDICTED BY IDOCK:   -1.08 KCAL/MOL
REMARK 927      BINDING AFFINITY PREDICTED BY RF-SCORE:    0.00 PKD
ROOT
HETATM    1  C   UNL     1     -11.602   6.584  69.945  1.00  0.00    -0.368 C  
HETATM    2  O   UNL     1     -10.782   7.642  70.433  1.00  0.00    -0.227 OA 
ENDROOT
BRANCH   2   3
HETATM    3  C   UNL     1     -11.413   8.832  70.681  1.00  0.00    -0.231 A  
HETATM    4  C   UNL     1     -12.294   8.976  71.768  1.00  0.00    -0.438 A  
HETATM    5  C   UNL     1     -12.946  10.183  72.012  1.00  0.00    -0.508 A  
HETATM    6  C   UNL     1     -12.717  11.271  71.178  1.00  0.00    -0.492 A  
HETATM    7  C   UNL     1     -11.821  11.151  70.117  1.00  0.00    -0.449 A  
HETATM    8  C   UNL     1     -11.148   9.946  69.863  1.00  0.00    -0.275 A  
BRANCH   8   9
HETATM    9  O   UNL     1     -10.296  10.046  68.792  1.00  0.00    -0.180 OA 
BRANCH   9  10
HETATM   10  C   UNL     1     -10.776   9.667  67.503  1.00  0.00    -0.256 C  
BRANCH  10  11
HETATM   11  C   UNL     1     -10.242  10.643  66.438  1.00  0.00    -0.234 C  
HETATM   12  H   UNL     1      -9.128  10.571  64.784  1.00  0.00     0.000 HD 
HETATM   13  O   UNL     1      -9.458   9.969  65.441  1.00  0.00    -0.209 OA 
BRANCH  11  14
HETATM   14  C   UNL     1     -11.405  11.380  65.726  1.00  0.00    -0.008 C  
BRANCH  14  15
HETATM   15  N   UNL     1     -11.918  12.570  66.435  1.00  0.00    -0.577 NA 
HETATM   16  C   UNL     1     -10.844  13.312  67.112  1.00  0.00    -0.258 C  
HETATM   17  C   UNL     1      -9.855  13.935  66.115  1.00  0.00    -0.302 C  
HETATM   18  N   UNL     1     -10.461  14.924  65.194  1.00  0.00    -0.401 NA 
HETATM   19  C   UNL     1     -11.698  14.370  64.602  1.00  0.00    -0.430 C  
HETATM   20  C   UNL     1     -12.609  13.507  65.521  1.00  0.00    -0.481 C  
BRANCH  18  21
HETATM   21  C   UNL     1     -10.684  16.216  65.891  1.00  0.00    -0.255 C  
BRANCH  21  22
HETATM   22  C   UNL     1      -9.326  16.839  66.299  1.00  0.00    -0.279 C  
HETATM   23  N   UNL     1      -9.251  17.044  67.665  1.00  0.00    -0.232 N  
HETATM   24  O   UNL     1      -8.438  17.055  65.480  1.00  0.00    -0.256 OA 
HETATM   25  H   UNL     1     -10.059  16.745  68.210  1.00  0.00     0.000 HD 
BRANCH  23  26
HETATM   26  C   UNL     1      -8.192  17.617  68.388  1.00  0.00    -0.289 A  
HETATM   27  C   UNL     1      -7.134  16.864  68.940  1.00  0.00    -0.220 A  
HETATM   28  C   UNL     1      -6.102  17.540  69.614  1.00  0.00    -0.249 A  
HETATM   29  C   UNL     1      -6.991  15.373  68.808  1.00  0.00    -0.116 C  
HETATM   30  C   UNL     1      -6.087  18.928  69.700  1.00  0.00    -0.285 A  
HETATM   31  C   UNL     1      -7.110  19.670  69.121  1.00  0.00    -0.378 A  
HETATM   32  C   UNL     1      -8.168  19.029  68.461  1.00  0.00    -0.390 A  
HETATM   33  C   UNL     1      -9.296  19.865  67.915  1.00  0.00    -0.448 C  
ENDBRANCH  23  26
ENDBRANCH  21  22
ENDBRANCH  18  21
ENDBRANCH  14  15
ENDBRANCH  11  14
ENDBRANCH  10  11
ENDBRANCH   9  10
ENDBRANCH   8   9
ENDBRANCH   2   3
TORSDOF 9
ENDMDL
MODEL       16
REMARK 921   NORMALIZED FREE ENERGY PREDICTED BY IDOCK:   -6.34 KCAL/MOL
REMARK 922        TOTAL FREE ENERGY PREDICTED BY IDOCK:  -10.76 KCAL/MOL
REMARK 923 INTER-LIGAND FREE ENERGY PREDICTED BY IDOCK:   -9.44 KCAL/MOL
REMARK 924 INTRA-LIGAND FREE ENERGY PREDICTED BY IDOCK:   -1.32 KCAL/MOL
REMARK 927      BINDING AFFINITY PREDICTED BY RF-SCORE:    0.00 PKD
ROOT
HETATM    1  C   UNL     1     -13.265  13.496  71.830  1.00  0.00    -0.422 C  
HETATM    2  O   UNL     1     -12.615  12.701  70.843  1.00  0.00    -0.338 OA 
ENDROOT
BRANCH   2   3
HETATM    3  C   UNL     1     -12.546  11.357  71.099  1.00  0.00    -0.386 A  
HETATM    4  C   UNL     1     -13.467  10.731  71.958  1.00  0.00    -0.296 A  
HETATM    5  C   UNL     1     -13.387   9.366  72.228  1.00  0.00    -0.539 A  
HETATM    6  C   UNL     1     -12.390   8.602  71.632  1.00  0.00    -0.384 A  
HETATM    7  C   UNL     1     -11.492   9.205  70.753  1.00  0.00    -0.337 A  
HETATM    8  C   UNL     1     -11.564  10.575  70.461  1.00  0.00    -0.350 A  
BRANCH   8   9
HETATM    9  O   UNL     1     -10.606  10.962  69.558  1.00  0.00    -0.229 OA 
BRANCH   9  10
HETATM   10  C   UNL     1      -9.812   9.953  68.935  1.00  0.00    -0.176 C  
BRANCH  10  11
HETATM   11  C   UNL     1      -9.970  10.035  67.405  1.00  0.00    -0.197 C  
HETATM   12  H   UNL     1     -10.311   8.795  65.879  1.00  0.00     0.000 HD 
HETATM   13  O   UNL     1     -10.214   8.745  66.823  1.00  0.00    -0.266 OA 
BRANCH  11  14
HETATM   14  C   UNL     1     -11.142  10.973  67.017  1.00  0.00    -0.244 C  
BRANCH  14  15
HETATM   15  N   UNL     1     -10.804  12.022  66.033  1.00  0.00    -0.278 NA 
HETATM   16  C   UNL     1     -11.866  13.032  65.921  1.00  0.00    -0.416 C  
HETATM   17  C   UNL     1     -12.030  13.846  67.215  1.00  0.00    -0.411 C  
HETATM   18  N   UNL     1     -10.828  14.619  67.603  1.00  0.00    -0.277 NA 
HETATM   19  C   UNL     1      -9.630  13.753  67.543  1.00  0.00    -0.219 C  
HETATM   20  C   UNL     1      -9.547  12.723  66.379  1.00  0.00    -0.254 C  
BRANCH  18  21
HETATM   21  C   UNL     1     -10.699  15.839  66.767  1.00  0.00    -0.293 C  
BRANCH  21  22
HETATM   22  C   UNL     1     -10.097  16.994  67.605  1.00  0.00    -0.298 C  
HETATM   23  N   UNL     1      -8.793  17.267  67.230  1.00  0.00    -0.219 N  
HETATM   24  O   UNL     1     -10.753  17.596  68.449  1.00  0.00    -0.338 OA 
HETATM   25  H   UNL     1      -8.420  16.712  66.460  1.00  0.00     0.000 HD 
BRANCH  23  26
HETATM   26  C   UNL     1      -7.924  18.220  67.786  1.00  0.00    -0.245 A  
HETATM   27  C   UNL     1      -7.964  19.591  67.457  1.00  0.00    -0.308 A  
HETATM   28  C   UNL     1      -7.074  20.468  68.100  1.00  0.00    -0.226 A  
HETATM   29  C   UNL     1      -8.944  20.208  66.498  1.00  0.00    -0.392 C  
HETATM   30  C   UNL     1      -6.197  20.013  69.080  1.00  0.00    -0.355 A  
HETATM   31  C   UNL     1      -6.188  18.668  69.432  1.00  0.00    -0.280 A  
HETATM   32  C   UNL     1      -7.046  17.760  68.794  1.00  0.00    -0.263 A  
HETATM   33  C   UNL     1      -6.949  16.300  69.149  1.00  0.00    -0.206 C  
ENDBRANCH  23  26
ENDBRANCH  21  22
ENDBRANCH  18  21
ENDBRANCH  14  15
ENDBRANCH  11  14
ENDBRANCH  10  11
ENDBRANCH   9  10
ENDBRANCH   8   9
ENDBRANCH   2   3
TORSDOF 9
ENDMDL
MODEL       17
REMARK 921   NORMALIZED FREE ENERGY PREDICTED BY IDOCK:   -6.32 KCAL/MOL
REMARK 922        TOTAL FREE ENERGY PREDICTED BY IDOCK:  -10.74 KCAL/MOL
REMARK 923 INTER-LIGAND FREE ENERGY PREDICTED BY IDOCK:   -9.69 KCAL/MOL
REMARK 924 INTRA-LIGAND FREE ENERGY PREDICTED BY IDOCK:   -1.04 KCAL/MOL
REMARK 927      BINDING AFFINITY PREDICTED BY RF-SCORE:    0.00 PKD
ROOT
HETATM    1  C   UNL     1      -9.923  15.812  69.835  1.00  0.00    -0.191 C  
HETATM    2  O   UNL     1     -11.326  15.679  69.628  1.00  0.00    -0.279 OA 
ENDROOT
BRANCH   2   3
HETATM    3  C   UNL     1     -12.035  15.097  70.646  1.00  0.00    -0.324 A  
HETATM    4  C   UNL     1     -12.499  15.856  71.736  1.00  0.00    -0.512 A  
HETATM    5  C   UNL     1     -13.209  15.261  72.777  1.00  0.00    -0.583 A  
HETATM    6  C   UNL     1     -13.476  13.897  72.739  1.00  0.00    -0.547 A  
HETATM    7  C   UNL     1     -13.050  13.141  71.648  1.00  0.00    -0.444 A  
HETATM    8  C   UNL     1     -12.344  13.725  70.586  1.00  0.00    -0.375 A  
BRANCH   8   9
HETATM    9  O   UNL     1     -12.040  12.815  69.605  1.00  0.00    -0.289 OA 
BRANCH   9  10
HETATM   10  C   UNL     1     -11.805  11.460  69.984  1.00  0.00    -0.359 C  
BRANCH  10  11
HETATM   11  C   UNL     1     -10.929  10.765  68.924  1.00  0.00    -0.241 C  
HETATM   12  H   UNL     1     -10.191   8.946  68.568  1.00  0.00     0.000 HD 
HETATM   13  O   UNL     1     -10.731   9.374  69.222  1.00  0.00    -0.227 OA 
BRANCH  11  14
HETATM   14  C   UNL     1     -11.570  10.874  67.516  1.00  0.00    -0.014 C  
BRANCH  14  15
HETATM   15  N   UNL     1     -10.646  11.279  66.438  1.00  0.00    -0.258 NA 
HETATM   16  C   UNL     1     -11.338  12.007  65.365  1.00  0.00    -0.321 C  
HETATM   17  C   UNL     1     -11.884  13.361  65.844  1.00  0.00    -0.376 C  
HETATM   18  N   UNL     1     -10.843  14.304  66.315  1.00  0.00    -0.305 NA 
HETATM   19  C   UNL     1      -9.929  13.618  67.254  1.00  0.00    -0.240 C  
HETATM   20  C   UNL     1      -9.552  12.141  66.938  1.00  0.00    -0.206 C  
BRANCH  18  21
HETATM   21  C   UNL     1     -10.134  14.916  65.164  1.00  0.00    -0.319 C  
BRANCH  21  22
HETATM   22  C   UNL     1     -10.080  16.455  65.333  1.00  0.00    -0.100 C  
HETATM   23  N   UNL     1      -9.040  16.839  66.161  1.00  0.00    -0.273 N  
HETATM   24  O   UNL     1     -10.852  17.201  64.741  1.00  0.00    -0.834 OA 
HETATM   25  H   UNL     1      -8.449  16.089  66.519  1.00  0.00     0.000 HD 
BRANCH  23  26
HETATM   26  C   UNL     1      -8.705  18.140  66.568  1.00  0.00    -0.268 A  
HETATM   27  C   UNL     1      -9.572  18.966  67.313  1.00  0.00    -0.346 A  
HETATM   28  C   UNL     1      -9.124  20.241  67.703  1.00  0.00    -0.423 A  
HETATM   29  C   UNL     1     -10.942  18.560  67.784  1.00  0.00    -0.152 C  
HETATM   30  C   UNL     1      -7.835  20.672  67.407  1.00  0.00    -0.329 A  
HETATM   31  C   UNL     1      -6.969  19.839  66.708  1.00  0.00    -0.225 A  
HETATM   32  C   UNL     1      -7.389  18.571  66.283  1.00  0.00    -0.290 A  
HETATM   33  C   UNL     1      -6.446  17.733  65.460  1.00  0.00    -0.039 C  
ENDBRANCH  23  26
ENDBRANCH  21  22
ENDBRANCH  18  21
ENDBRANCH  14  15
ENDBRANCH  11  14
ENDBRANCH  10  11
ENDBRANCH   9  10
ENDBRANCH   8   9
ENDBRANCH   2   3
TORSDOF 9
ENDMDL
MODEL       18
REMARK 921   NORMALIZED FREE ENERGY PREDICTED BY IDOCK:   -6.30 KCAL/MOL
REMARK 922        TOTAL FREE ENERGY PREDICTED BY IDOCK:  -10.70 KCAL/MOL
REMARK 923 INTER-LIGAND FREE ENERGY PREDICTED BY IDOCK:   -9.89 KCAL/MOL
REMARK 924 INTRA-LIGAND FREE ENERGY PREDICTED BY IDOCK:   -0.82 KCAL/MOL
REMARK 927      BINDING AFFINITY PREDICTED BY RF-SCORE:    0.00 PKD
ROOT
HETATM    1  C   UNL     1     -10.383  19.911  65.737  1.00  0.00    -0.410 C  
HETATM    2  O   UNL     1      -9.989  20.538  66.954  1.00  0.00    -0.453 OA 
ENDROOT
BRANCH   2   3
HETATM    3  C   UNL     1      -8.774  20.161  67.463  1.00  0.00    -0.336 A  
HETATM    4  C   UNL     1      -7.622  20.937  67.244  1.00  0.00    -0.312 A  
HETATM    5  C   UNL     1      -6.383  20.546  67.750  1.00  0.00    -0.319 A  
HETATM    6  C   UNL     1      -6.281  19.377  68.495  1.00  0.00    -0.270 A  
HETATM    7  C   UNL     1      -7.422  18.617  68.746  1.00  0.00    -0.322 A  
HETATM    8  C   UNL     1      -8.678  19.001  68.254  1.00  0.00    -0.331 A  
BRANCH   8   9
HETATM    9  O   UNL     1      -9.669  18.131  68.633  1.00  0.00    -0.333 OA 
BRANCH   9  10
HETATM   10  C   UNL     1      -9.574  16.768  68.221  1.00  0.00    -0.244 C  
BRANCH  10  11
HETATM   11  C   UNL     1     -10.220  16.596  66.833  1.00  0.00    -0.291 C  
HETATM   12  H   UNL     1      -9.650  16.593  64.921  1.00  0.00     0.000 HD 
HETATM   13  O   UNL     1      -9.252  16.700  65.777  1.00  0.00    -0.502 OA 
BRANCH  11  14
HETATM   14  C   UNL     1     -10.922  15.219  66.715  1.00  0.00    -0.306 C  
BRANCH  14  15
HETATM   15  N   UNL     1     -10.060  14.115  66.246  1.00  0.00    -0.290 NA 
HETATM   16  C   UNL     1      -9.558  13.299  67.361  1.00  0.00    -0.223 C  
HETATM   17  C   UNL     1     -10.687  12.541  68.077  1.00  0.00    -0.221 C  
HETATM   18  N   UNL     1     -11.416  11.581  67.217  1.00  0.00    -0.495 NA 
HETATM   19  C   UNL     1     -11.793  12.230  65.942  1.00  0.00    -0.354 C  
HETATM   20  C   UNL     1     -10.769  13.215  65.309  1.00  0.00    -0.303 C  
BRANCH  18  21
HETATM   21  C   UNL     1     -10.615  10.346  67.020  1.00  0.00    -0.245 C  
BRANCH  21  22
HETATM   22  C   UNL     1     -10.268   9.716  68.392  1.00  0.00    -0.188 C  
HETATM   23  N   UNL     1     -11.232   8.809  68.793  1.00  0.00    -0.304 N  
HETATM   24  O   UNL     1      -9.227   9.981  68.984  1.00  0.00    -0.158 OA 
HETATM   25  H   UNL     1     -12.005   8.657  68.145  1.00  0.00     0.000 HD 
BRANCH  23  26
HETATM   26  C   UNL     1     -11.272   8.073  69.989  1.00  0.00    -0.090 A  
HETATM   27  C   UNL     1     -11.664   8.626  71.226  1.00  0.00    -0.341 A  
HETATM   28  C   UNL     1     -11.706   7.792  72.357  1.00  0.00    -0.394 A  
HETATM   29  C   UNL     1     -12.109  10.049  71.421  1.00  0.00    -0.498 C  
HETATM   30  C   UNL     1     -11.414   6.435  72.262  1.00  0.00    -0.339 A  
HETATM   31  C   UNL     1     -11.067   5.885  71.034  1.00  0.00    -0.315 A  
HETATM   32  C   UNL     1     -10.992   6.691  69.889  1.00  0.00    -0.373 A  
HETATM   33  C   UNL     1     -10.536   6.071  68.594  1.00  0.00    -0.327 C  
ENDBRANCH  23  26
ENDBRANCH  21  22
ENDBRANCH  18  21
ENDBRANCH  14  15
ENDBRANCH  11  14
ENDBRANCH  10  11
ENDBRANCH   9  10
ENDBRANCH   8   9
ENDBRANCH   2   3
TORSDOF 9
ENDMDL
MODEL       19
REMARK 921   NORMALIZED FREE ENERGY PREDICTED BY IDOCK:   -6.28 KCAL/MOL
REMARK 922        TOTAL FREE ENERGY PREDICTED BY IDOCK:  -10.67 KCAL/MOL
REMARK 923 INTER-LIGAND FREE ENERGY PREDICTED BY IDOCK:   -9.34 KCAL/MOL
REMARK 924 INTRA-LIGAND FREE ENERGY PREDICTED BY IDOCK:   -1.33 KCAL/MOL
REMARK 927      BINDING AFFINITY PREDICTED BY RF-SCORE:    0.00 PKD
ROOT
HETATM    1  C   UNL     1     -11.974   8.264  72.135  1.00  0.00    -0.369 C  
HETATM    2  O   UNL     1     -12.764   8.882  71.123  1.00  0.00    -0.267 OA 
ENDROOT
BRANCH   2   3
HETATM    3  C   UNL     1     -12.695  10.248  71.052  1.00  0.00    -0.396 A  
HETATM    4  C   UNL     1     -13.247  11.058  72.061  1.00  0.00    -0.447 A  
HETATM    5  C   UNL     1     -13.188  12.448  71.982  1.00  0.00    -0.514 A  
HETATM    6  C   UNL     1     -12.564  13.051  70.896  1.00  0.00    -0.364 A  
HETATM    7  C   UNL     1     -11.984  12.259  69.906  1.00  0.00    -0.377 A  
HETATM    8  C   UNL     1     -12.025  10.858  69.975  1.00  0.00    -0.350 A  
BRANCH   8   9
HETATM    9  O   UNL     1     -11.377  10.270  68.918  1.00  0.00    -0.231 OA 
BRANCH   9  10
HETATM   10  C   UNL     1      -9.974  10.037  69.025  1.00  0.00    -0.196 C  
BRANCH  10  11
HETATM   11  C   UNL     1      -9.355   9.920  67.619  1.00  0.00    -0.140 C  
HETATM   12  H   UNL     1      -8.519   8.514  66.477  1.00  0.00     0.000 HD 
HETATM   13  O   UNL     1      -8.900   8.586  67.344  1.00  0.00    -0.132 OA 
BRANCH  11  14
HETATM   14  C   UNL     1     -10.381  10.319  66.526  1.00  0.00    -0.211 C  
BRANCH  14  15
HETATM   15  N   UNL     1      -9.958  11.428  65.647  1.00  0.00    -0.229 NA 
HETATM   16  C   UNL     1     -11.108  12.162  65.098  1.00  0.00    -0.322 C  
HETATM   17  C   UNL     1     -11.896  12.902  66.191  1.00  0.00    -0.429 C  
HETATM   18  N   UNL     1     -11.114  13.931  66.914  1.00  0.00    -0.296 NA 
HETATM   19  C   UNL     1      -9.812  13.370  67.338  1.00  0.00    -0.227 C  
HETATM   20  C   UNL     1      -9.096  12.400  66.355  1.00  0.00    -0.149 C  
BRANCH  18  21
HETATM   21  C   UNL     1     -10.972  15.156  66.087  1.00  0.00    -0.331 C  
BRANCH  21  22
HETATM   22  C   UNL     1     -10.480  16.333  66.964  1.00  0.00    -0.306 C  
HETATM   23  N   UNL     1      -9.478  17.052  66.335  1.00  0.00    -0.264 N  
HETATM   24  O   UNL     1     -10.985  16.588  68.053  1.00  0.00    -0.352 OA 
HETATM   25  H   UNL     1      -9.222  16.742  65.398  1.00  0.00     0.000 HD 
BRANCH  23  26
HETATM   26  C   UNL     1      -8.774  18.158  66.837  1.00  0.00    -0.259 A  
HETATM   27  C   UNL     1      -7.576  18.044  67.573  1.00  0.00    -0.214 A  
HETATM   28  C   UNL     1      -6.928  19.217  67.998  1.00  0.00    -0.282 A  
HETATM   29  C   UNL     1      -6.893  16.743  67.894  1.00  0.00    -0.156 C  
HETATM   30  C   UNL     1      -7.423  20.474  67.662  1.00  0.00    -0.323 A  
HETATM   31  C   UNL     1      -8.581  20.583  66.902  1.00  0.00    -0.271 A  
HETATM   32  C   UNL     1      -9.266  19.435  66.482  1.00  0.00    -0.403 A  
HETATM   33  C   UNL     1     -10.560  19.597  65.726  1.00  0.00    -0.537 C  
ENDBRANCH  23  26
ENDBRANCH  21  22
ENDBRANCH  18  21
ENDBRANCH  14  15
ENDBRANCH  11  14
ENDBRANCH  10  11
ENDBRANCH   9  10
ENDBRANCH   8   9
ENDBRANCH   2   3
TORSDOF 9
ENDMDL
MODEL       20
REMARK 921   NORMALIZED FREE ENERGY PREDICTED BY IDOCK:   -6.26 KCAL/MOL
REMARK 922        TOTAL FREE ENERGY PREDICTED BY IDOCK:  -10.65 KCAL/MOL
REMARK 923 INTER-LIGAND FREE ENERGY PREDICTED BY IDOCK:   -9.49 KCAL/MOL
REMARK 924 INTRA-LIGAND FREE ENERGY PREDICTED BY IDOCK:   -1.16 KCAL/MOL
REMARK 927      BINDING AFFINITY PREDICTED BY RF-SCORE:    0.00 PKD
ROOT
HETATM    1  C   UNL     1     -10.966  19.223  67.209  1.00  0.00    -0.338 C  
HETATM    2  O   UNL     1     -10.469  18.132  67.979  1.00  0.00    -0.377 OA 
ENDROOT
BRANCH   2   3
HETATM    3  C   UNL     1      -9.202  17.707  67.679  1.00  0.00    -0.245 A  
HETATM    4  C   UNL     1      -8.072  18.424  68.114  1.00  0.00    -0.305 A  
HETATM    5  C   UNL     1      -6.784  17.999  67.797  1.00  0.00    -0.200 A  
HETATM    6  C   UNL     1      -6.604  16.841  67.049  1.00  0.00    -0.239 A  
HETATM    7  C   UNL     1      -7.714  16.104  66.640  1.00  0.00    -0.265 A  
HETATM    8  C   UNL     1      -9.018  16.512  66.959  1.00  0.00    -0.204 A  
BRANCH   8   9
HETATM    9  O   UNL     1      -9.963  15.637  66.485  1.00  0.00    -0.252 OA 
BRANCH   9  10
HETATM   10  C   UNL     1     -10.695  15.996  65.314  1.00  0.00    -0.399 C  
BRANCH  10  11
HETATM   11  C   UNL     1     -11.653  14.854  64.926  1.00  0.00    -0.395 C  
HETATM   12  H   UNL     1     -13.172  14.553  63.667  1.00  0.00     0.000 HD 
HETATM   13  O   UNL     1     -12.581  15.257  63.906  1.00  0.00    -0.765 OA 
BRANCH  11  14
HETATM   14  C   UNL     1     -10.867  13.622  64.408  1.00  0.00    -0.361 C  
BRANCH  14  15
HETATM   15  N   UNL     1     -11.518  12.318  64.651  1.00  0.00    -0.325 NA 
HETATM   16  C   UNL     1     -10.699  11.197  64.168  1.00  0.00    -0.345 C  
HETATM   17  C   UNL     1      -9.390  11.054  64.961  1.00  0.00    -0.221 C  
HETATM   18  N   UNL     1      -9.580  10.776  66.403  1.00  0.00    -0.184 NA 
HETATM   19  C   UNL     1     -10.570  11.717  66.972  1.00  0.00    -0.237 C  
HETATM   20  C   UNL     1     -11.793  12.093  66.087  1.00  0.00    -0.254 C  
BRANCH  18  21
HETATM   21  C   UNL     1      -9.949   9.353  66.616  1.00  0.00    -0.258 C  
BRANCH  21  22
HETATM   22  C   UNL     1      -9.788   8.983  68.111  1.00  0.00    -0.166 C  
HETATM   23  N   UNL     1     -10.999   8.630  68.680  1.00  0.00    -0.439 N  
HETATM   24  O   UNL     1      -8.693   8.968  68.663  1.00  0.00    -0.131 OA 
HETATM   25  H   UNL     1     -11.807   8.632  68.058  1.00  0.00     0.000 HD 
BRANCH  23  26
HETATM   26  C   UNL     1     -11.246   8.269  70.015  1.00  0.00    -0.081 A  
HETATM   27  C   UNL     1     -11.101   6.952  70.500  1.00  0.00    -0.332 A  
HETATM   28  C   UNL     1     -11.336   6.704  71.864  1.00  0.00    -0.318 A  
HETATM   29  C   UNL     1     -10.648   5.783  69.670  1.00  0.00    -0.396 C  
HETATM   30  C   UNL     1     -11.658   7.737  72.738  1.00  0.00    -0.368 A  
HETATM   31  C   UNL     1     -11.760   9.040  72.265  1.00  0.00    -0.283 A  
HETATM   32  C   UNL     1     -11.556   9.321  70.907  1.00  0.00    -0.364 A  
HETATM   33  C   UNL     1     -11.753  10.733  70.421  1.00  0.00    -0.445 C  
ENDBRANCH  23  26
ENDBRANCH  21  22
ENDBRANCH  18  21
ENDBRANCH  14  15
ENDBRANCH  11  14
ENDBRANCH  10  11
ENDBRANCH   9  10
ENDBRANCH   8   9
ENDBRANCH   2   3
TORSDOF 9
ENDMDL
MODEL       21
REMARK 921   NORMALIZED FREE ENERGY PREDICTED BY IDOCK:   -6.20 KCAL/MOL
REMARK 922        TOTAL FREE ENERGY PREDICTED BY IDOCK:  -10.55 KCAL/MOL
REMARK 923 INTER-LIGAND FREE ENERGY PREDICTED BY IDOCK:   -9.30 KCAL/MOL
REMARK 924 INTRA-LIGAND FREE ENERGY PREDICTED BY IDOCK:   -1.25 KCAL/MOL
REMARK 927      BINDING AFFINITY PREDICTED BY RF-SCORE:    0.00 PKD
ROOT
HETATM    1  C   UNL     1     -13.070   7.495  71.401  1.00  0.00    -0.325 C  
HETATM    2  O   UNL     1     -11.751   7.430  70.866  1.00  0.00    -0.291 OA 
ENDROOT
BRANCH   2   3
HETATM    3  C   UNL     1     -11.105   6.229  70.993  1.00  0.00    -0.298 A  
HETATM    4  C   UNL     1     -10.927   5.629  72.253  1.00  0.00    -0.312 A  
HETATM    5  C   UNL     1     -10.258   4.413  72.383  1.00  0.00    -0.255 A  
HETATM    6  C   UNL     1      -9.767   3.772  71.253  1.00  0.00    -0.245 A  
HETATM    7  C   UNL     1      -9.966   4.340  69.995  1.00  0.00    -0.196 A  
HETATM    8  C   UNL     1     -10.647   5.557  69.845  1.00  0.00    -0.317 A  
BRANCH   8   9
HETATM    9  O   UNL     1     -10.756   5.928  68.528  1.00  0.00    -0.242 OA 
BRANCH   9  10
HETATM   10  C   UNL     1     -10.028   5.187  67.550  1.00  0.00    -0.174 C  
BRANCH  10  11
HETATM   11  C   UNL     1      -9.099   6.131  66.764  1.00  0.00    -0.133 C  
HETATM   12  H   UNL     1      -8.210   6.192  64.979  1.00  0.00     0.000 HD 
HETATM   13  O   UNL     1      -8.783   5.610  65.463  1.00  0.00    -0.152 OA 
BRANCH  11  14
HETATM   14  C   UNL     1      -9.750   7.527  66.582  1.00  0.00    -0.203 C  
BRANCH  14  15
HETATM   15  N   UNL     1      -9.015   8.646  67.205  1.00  0.00    -0.132 NA 
HETATM   16  C   UNL     1      -8.893   9.796  66.298  1.00  0.00    -0.147 C  
HETATM   17  C   UNL     1     -10.255  10.439  65.993  1.00  0.00    -0.228 C  
HETATM   18  N   UNL     1     -10.952  10.981  67.182  1.00  0.00    -0.283 NA 
HETATM   19  C   UNL     1     -10.950   9.977  68.268  1.00  0.00    -0.227 C  
HETATM   20  C   UNL     1      -9.667   9.116  68.448  1.00  0.00    -0.152 C  
BRANCH  18  21
HETATM   21  C   UNL     1     -10.352  12.276  67.592  1.00  0.00    -0.204 C  
BRANCH  21  22
HETATM   22  C   UNL     1     -11.413  13.147  68.309  1.00  0.00    -0.314 C  
HETATM   23  N   UNL     1     -11.204  13.179  69.677  1.00  0.00    -0.474 N  
HETATM   24  O   UNL     1     -12.281  13.755  67.691  1.00  0.00    -0.337 OA 
HETATM   25  H   UNL     1     -10.391  12.667  70.020  1.00  0.00     0.000 HD 
BRANCH  23  26
HETATM   26  C   UNL     1     -11.979  13.835  70.647  1.00  0.00    -0.266 A  
HETATM   27  C   UNL     1     -12.016  15.238  70.790  1.00  0.00    -0.384 A  
HETATM   28  C   UNL     1     -12.856  15.797  71.769  1.00  0.00    -0.517 A  
HETATM   29  C   UNL     1     -11.260  16.204  69.920  1.00  0.00    -0.349 C  
HETATM   30  C   UNL     1     -13.676  14.994  72.557  1.00  0.00    -0.572 A  
HETATM   31  C   UNL     1     -13.667  13.615  72.385  1.00  0.00    -0.697 A  
HETATM   32  C   UNL     1     -12.825  13.021  71.435  1.00  0.00    -0.385 A  
HETATM   33  C   UNL     1     -12.789  11.519  71.336  1.00  0.00    -0.489 C  
ENDBRANCH  23  26
ENDBRANCH  21  22
ENDBRANCH  18  21
ENDBRANCH  14  15
ENDBRANCH  11  14
ENDBRANCH  10  11
ENDBRANCH   9  10
ENDBRANCH   8   9
ENDBRANCH   2   3
TORSDOF 9
ENDMDL
MODEL       22
REMARK 921   NORMALIZED FREE ENERGY PREDICTED BY IDOCK:   -6.18 KCAL/MOL
REMARK 922        TOTAL FREE ENERGY PREDICTED BY IDOCK:  -10.53 KCAL/MOL
REMARK 923 INTER-LIGAND FREE ENERGY PREDICTED BY IDOCK:   -9.50 KCAL/MOL
REMARK 924 INTRA-LIGAND FREE ENERGY PREDICTED BY IDOCK:   -1.03 KCAL/MOL
REMARK 927      BINDING AFFINITY PREDICTED BY RF-SCORE:    0.00 PKD
ROOT
HETATM    1  C   UNL     1     -10.915  19.666  67.148  1.00  0.00    -0.301 C  
HETATM    2  O   UNL     1      -9.789  19.728  68.019  1.00  0.00    -0.373 OA 
ENDROOT
BRANCH   2   3
HETATM    3  C   UNL     1      -8.558  19.658  67.422  1.00  0.00    -0.306 A  
HETATM    4  C   UNL     1      -7.731  20.791  67.325  1.00  0.00    -0.332 A  
HETATM    5  C   UNL     1      -6.485  20.722  66.706  1.00  0.00    -0.338 A  
HETATM    6  C   UNL     1      -6.040  19.514  66.184  1.00  0.00    -0.182 A  
HETATM    7  C   UNL     1      -6.837  18.376  66.303  1.00  0.00    -0.268 A  
HETATM    8  C   UNL     1      -8.089  18.424  66.932  1.00  0.00    -0.245 A  
BRANCH   8   9
HETATM    9  O   UNL     1      -8.699  17.195  66.965  1.00  0.00    -0.212 OA 
BRANCH   9  10
HETATM   10  C   UNL     1      -8.962  16.533  65.729  1.00  0.00     0.029 C  
BRANCH  10  11
HETATM   11  C   UNL     1     -10.477  16.299  65.575  1.00  0.00    -0.362 C  
HETATM   12  H   UNL     1     -11.978  16.988  64.455  1.00  0.00     0.000 HD 
HETATM   13  O   UNL     1     -11.044  17.132  64.551  1.00  0.00    -1.105 OA 
BRANCH  11  14
HETATM   14  C   UNL     1     -10.777  14.820  65.219  1.00  0.00    -0.390 C  
BRANCH  14  15
HETATM   15  N   UNL     1     -11.857  14.194  66.009  1.00  0.00    -0.383 NA 
HETATM   16  C   UNL     1     -12.086  12.797  65.615  1.00  0.00    -0.459 C  
HETATM   17  C   UNL     1     -10.885  11.898  65.946  1.00  0.00    -0.297 C  
HETATM   18  N   UNL     1     -10.560  11.824  67.389  1.00  0.00    -0.217 NA 
HETATM   19  C   UNL     1     -10.515  13.185  67.966  1.00  0.00    -0.239 C  
HETATM   20  C   UNL     1     -11.566  14.214  67.460  1.00  0.00    -0.367 C  
BRANCH  18  21
HETATM   21  C   UNL     1     -11.514  10.930  68.093  1.00  0.00    -0.295 C  
BRANCH  21  22
HETATM   22  C   UNL     1     -10.743   9.795  68.813  1.00  0.00    -0.215 C  
HETATM   23  N   UNL     1     -10.415  10.146  70.110  1.00  0.00    -0.353 N  
HETATM   24  O   UNL     1     -10.523   8.716  68.273  1.00  0.00    -0.218 OA 
HETATM   25  H   UNL     1     -10.735  11.063  70.423  1.00  0.00     0.000 HD 
BRANCH  23  26
HETATM   26  C   UNL     1      -9.692   9.388  71.046  1.00  0.00    -0.223 A  
HETATM   27  C   UNL     1      -8.284   9.313  71.060  1.00  0.00    -0.122 A  
HETATM   28  C   UNL     1      -7.656   8.556  72.064  1.00  0.00    -0.132 A  
HETATM   29  C   UNL     1      -7.382  10.043  70.102  1.00  0.00    -0.171 C  
HETATM   30  C   UNL     1      -8.397   7.927  73.060  1.00  0.00    -0.218 A  
HETATM   31  C   UNL     1      -9.783   8.037  73.067  1.00  0.00    -0.348 A  
HETATM   32  C   UNL     1     -10.444   8.764  72.068  1.00  0.00    -0.414 A  
HETATM   33  C   UNL     1     -11.950   8.793  72.068  1.00  0.00    -0.446 C  
ENDBRANCH  23  26
ENDBRANCH  21  22
ENDBRANCH  18  21
ENDBRANCH  14  15
ENDBRANCH  11  14
ENDBRANCH  10  11
ENDBRANCH   9  10
ENDBRANCH   8   9
ENDBRANCH   2   3
TORSDOF 9
ENDMDL
MODEL       23
REMARK 921   NORMALIZED FREE ENERGY PREDICTED BY IDOCK:   -6.18 KCAL/MOL
REMARK 922        TOTAL FREE ENERGY PREDICTED BY IDOCK:  -10.53 KCAL/MOL
REMARK 923 INTER-LIGAND FREE ENERGY PREDICTED BY IDOCK:   -9.22 KCAL/MOL
REMARK 924 INTRA-LIGAND FREE ENERGY PREDICTED BY IDOCK:   -1.30 KCAL/MOL
REMARK 927      BINDING AFFINITY PREDICTED BY RF-SCORE:    0.00 PKD
ROOT
HETATM    1  C   UNL     1      -9.545  18.685  68.649  1.00  0.00    -0.368 C  
HETATM    2  O   UNL     1      -9.168  17.338  68.920  1.00  0.00    -0.256 OA 
ENDROOT
BRANCH   2   3
HETATM    3  C   UNL     1     -10.190  16.467  69.193  1.00  0.00    -0.298 A  
HETATM    4  C   UNL     1     -10.844  16.480  70.438  1.00  0.00    -0.086 A  
HETATM    5  C   UNL     1     -11.875  15.585  70.719  1.00  0.00    -0.406 A  
HETATM    6  C   UNL     1     -12.276  14.669  69.753  1.00  0.00    -0.347 A  
HETATM    7  C   UNL     1     -11.657  14.669  68.504  1.00  0.00    -0.346 A  
HETATM    8  C   UNL     1     -10.625  15.570  68.200  1.00  0.00    -0.266 A  
BRANCH   8   9
HETATM    9  O   UNL     1     -10.171  15.420  66.914  1.00  0.00    -0.263 OA 
BRANCH   9  10
HETATM   10  C   UNL     1     -10.793  16.181  65.879  1.00  0.00    -0.177 C  
BRANCH  10  11
HETATM   11  C   UNL     1     -11.557  15.242  64.927  1.00  0.00    -0.289 C  
HETATM   12  H   UNL     1     -12.482  15.350  63.162  1.00  0.00     0.000 HD 
HETATM   13  O   UNL     1     -12.011  15.929  63.749  1.00  0.00    -0.719 OA 
BRANCH  11  14
HETATM   14  C   UNL     1     -10.664  14.055  64.483  1.00  0.00    -0.336 C  
BRANCH  14  15
HETATM   15  N   UNL     1     -11.345  12.745  64.434  1.00  0.00    -0.327 NA 
HETATM   16  C   UNL     1     -10.447  11.676  63.972  1.00  0.00    -0.367 C  
HETATM   17  C   UNL     1      -9.308  11.408  64.969  1.00  0.00    -0.138 C  
HETATM   18  N   UNL     1      -9.762  10.955  66.304  1.00  0.00    -0.197 NA 
HETATM   19  C   UNL     1     -10.843  11.838  66.795  1.00  0.00    -0.270 C  
HETATM   20  C   UNL     1     -11.881  12.347  65.754  1.00  0.00    -0.406 C  
BRANCH  18  21
HETATM   21  C   UNL     1     -10.160   9.525  66.262  1.00  0.00    -0.257 C  
BRANCH  21  22
HETATM   22  C   UNL     1      -9.748   8.823  67.580  1.00  0.00    -0.169 C  
HETATM   23  N   UNL     1     -10.845   8.565  68.383  1.00  0.00    -0.441 N  
HETATM   24  O   UNL     1      -8.586   8.508  67.813  1.00  0.00    -0.132 OA 
HETATM   25  H   UNL     1     -11.753   8.836  68.005  1.00  0.00     0.000 HD 
BRANCH  23  26
HETATM   26  C   UNL     1     -10.855   7.975  69.657  1.00  0.00    -0.169 A  
HETATM   27  C   UNL     1     -10.637   6.598  69.874  1.00  0.00    -0.268 A  
HETATM   28  C   UNL     1     -10.629   6.114  71.194  1.00  0.00    -0.300 A  
HETATM   29  C   UNL     1     -10.347   5.599  68.788  1.00  0.00    -0.288 C  
HETATM   30  C   UNL     1     -10.784   6.974  72.277  1.00  0.00    -0.250 A  
HETATM   31  C   UNL     1     -10.957   8.336  72.061  1.00  0.00    -0.374 A  
HETATM   32  C   UNL     1     -10.994   8.851  70.758  1.00  0.00    -0.305 A  
HETATM   33  C   UNL     1     -11.263  10.320  70.566  1.00  0.00    -0.408 C  
ENDBRANCH  23  26
ENDBRANCH  21  22
ENDBRANCH  18  21
ENDBRANCH  14  15
ENDBRANCH  11  14
ENDBRANCH  10  11
ENDBRANCH   9  10
ENDBRANCH   8   9
ENDBRANCH   2   3
TORSDOF 9
ENDMDL
MODEL       24
REMARK 921   NORMALIZED FREE ENERGY PREDICTED BY IDOCK:   -6.18 KCAL/MOL
REMARK 922        TOTAL FREE ENERGY PREDICTED BY IDOCK:  -10.52 KCAL/MOL
REMARK 923 INTER-LIGAND FREE ENERGY PREDICTED BY IDOCK:   -9.43 KCAL/MOL
REMARK 924 INTRA-LIGAND FREE ENERGY PREDICTED BY IDOCK:   -1.09 KCAL/MOL
REMARK 927      BINDING AFFINITY PREDICTED BY RF-SCORE:    0.00 PKD
ROOT
HETATM    1  C   UNL     1     -11.969   6.482  71.295  1.00  0.00    -0.306 C  
HETATM    2  O   UNL     1     -11.151   7.572  71.710  1.00  0.00    -0.235 OA 
ENDROOT
BRANCH   2   3
HETATM    3  C   UNL     1     -11.640   8.826  71.457  1.00  0.00    -0.303 A  
HETATM    4  C   UNL     1     -12.719   9.349  72.193  1.00  0.00    -0.460 A  
HETATM    5  C   UNL     1     -13.225  10.619  71.927  1.00  0.00    -0.528 A  
HETATM    6  C   UNL     1     -12.650  11.394  70.926  1.00  0.00    -0.453 A  
HETATM    7  C   UNL     1     -11.560  10.901  70.212  1.00  0.00    -0.426 A  
HETATM    8  C   UNL     1     -11.031   9.628  70.474  1.00  0.00    -0.313 A  
BRANCH   8   9
HETATM    9  O   UNL     1      -9.948   9.345  69.680  1.00  0.00    -0.177 OA 
BRANCH   9  10
HETATM   10  C   UNL     1     -10.149   9.228  68.272  1.00  0.00    -0.185 C  
BRANCH  10  11
HETATM   11  C   UNL     1      -9.070  10.033  67.522  1.00  0.00    -0.134 C  
HETATM   12  H   UNL     1      -7.273   9.713  66.716  1.00  0.00     0.000 HD 
HETATM   13  O   UNL     1      -7.938   9.217  67.178  1.00  0.00    -0.105 OA 
BRANCH  11  14
HETATM   14  C   UNL     1      -9.641  10.646  66.218  1.00  0.00    -0.185 C  
BRANCH  14  15
HETATM   15  N   UNL     1     -10.846  11.482  66.395  1.00  0.00    -0.278 NA 
HETATM   16  C   UNL     1     -10.592  12.632  67.275  1.00  0.00    -0.228 C  
HETATM   17  C   UNL     1      -9.601  13.628  66.652  1.00  0.00    -0.283 C  
HETATM   18  N   UNL     1     -10.063  14.232  65.381  1.00  0.00    -0.357 NA 
HETATM   19  C   UNL     1     -10.560  13.176  64.472  1.00  0.00    -0.406 C  
HETATM   20  C   UNL     1     -11.357  12.001  65.107  1.00  0.00    -0.304 C  
BRANCH  18  21
HETATM   21  C   UNL     1     -11.071  15.290  65.643  1.00  0.00    -0.308 C  
BRANCH  21  22
HETATM   22  C   UNL     1     -10.484  16.356  66.600  1.00  0.00    -0.274 C  
HETATM   23  N   UNL     1      -9.470  17.079  65.995  1.00  0.00    -0.211 N  
HETATM   24  O   UNL     1     -10.933  16.536  67.727  1.00  0.00    -0.327 OA 
HETATM   25  H   UNL     1      -9.267  16.843  65.024  1.00  0.00     0.000 HD 
BRANCH  23  26
HETATM   26  C   UNL     1      -8.689  18.099  66.562  1.00  0.00    -0.268 A  
HETATM   27  C   UNL     1      -9.091  19.450  66.603  1.00  0.00    -0.391 A  
HETATM   28  C   UNL     1      -8.251  20.388  67.229  1.00  0.00    -0.390 A  
HETATM   29  C   UNL     1     -10.400  19.966  66.073  1.00  0.00    -0.591 C  
HETATM   30  C   UNL     1      -7.065  19.994  67.843  1.00  0.00    -0.319 A  
HETATM   31  C   UNL     1      -6.692  18.655  67.836  1.00  0.00    -0.222 A  
HETATM   32  C   UNL     1      -7.494  17.697  67.201  1.00  0.00    -0.217 A  
HETATM   33  C   UNL     1      -7.014  16.270  67.149  1.00  0.00    -0.243 C  
ENDBRANCH  23  26
ENDBRANCH  21  22
ENDBRANCH  18  21
ENDBRANCH  14  15
ENDBRANCH  11  14
ENDBRANCH  10  11
ENDBRANCH   9  10
ENDBRANCH   8   9
ENDBRANCH   2   3
TORSDOF 9
ENDMDL
MODEL       25
REMARK 921   NORMALIZED FREE ENERGY PREDICTED BY IDOCK:   -6.18 KCAL/MOL
REMARK 922        TOTAL FREE ENERGY PREDICTED BY IDOCK:  -10.52 KCAL/MOL
REMARK 923 INTER-LIGAND FREE ENERGY PREDICTED BY IDOCK:   -9.43 KCAL/MOL
REMARK 924 INTRA-LIGAND FREE ENERGY PREDICTED BY IDOCK:   -1.09 KCAL/MOL
REMARK 927      BINDING AFFINITY PREDICTED BY RF-SCORE:    0.00 PKD
ROOT
HETATM    1  C   UNL     1     -10.288  19.911  66.072  1.00  0.00    -0.486 C  
HETATM    2  O   UNL     1     -10.603  18.863  66.984  1.00  0.00    -0.410 OA 
ENDROOT
BRANCH   2   3
HETATM    3  C   UNL     1      -9.662  17.876  67.119  1.00  0.00    -0.289 A  
HETATM    4  C   UNL     1      -8.684  17.935  68.128  1.00  0.00    -0.268 A  
HETATM    5  C   UNL     1      -7.720  16.937  68.257  1.00  0.00    -0.205 A  
HETATM    6  C   UNL     1      -7.726  15.856  67.383  1.00  0.00    -0.203 A  
HETATM    7  C   UNL     1      -8.710  15.769  66.399  1.00  0.00    -0.372 A  
HETATM    8  C   UNL     1      -9.695  16.759  66.263  1.00  0.00    -0.297 A  
BRANCH   8   9
HETATM    9  O   UNL     1     -10.579  16.472  65.254  1.00  0.00    -0.575 OA 
BRANCH   9  10
HETATM   10  C   UNL     1     -10.665  15.126  64.786  1.00  0.00    -0.319 C  
BRANCH  10  11
HETATM   11  C   UNL     1     -12.099  14.597  64.978  1.00  0.00    -0.349 C  
HETATM   12  H   UNL     1     -13.565  13.842  63.855  1.00  0.00     0.000 HD 
HETATM   13  O   UNL     1     -12.681  14.168  63.736  1.00  0.00    -0.761 OA 
BRANCH  11  14
HETATM   14  C   UNL     1     -12.122  13.401  65.964  1.00  0.00    -0.438 C  
BRANCH  14  15
HETATM   15  N   UNL     1     -10.811  13.042  66.542  1.00  0.00    -0.276 NA 
HETATM   16  C   UNL     1     -10.756  13.309  67.987  1.00  0.00    -0.240 C  
HETATM   17  C   UNL     1     -11.714  12.404  68.779  1.00  0.00    -0.332 C  
HETATM   18  N   UNL     1     -11.421  10.958  68.661  1.00  0.00    -0.290 NA 
HETATM   19  C   UNL     1     -11.233  10.595  67.239  1.00  0.00    -0.161 C  
HETATM   20  C   UNL     1     -10.484  11.614  66.332  1.00  0.00    -0.244 C  
BRANCH  18  21
HETATM   21  C   UNL     1     -10.259  10.589  69.508  1.00  0.00    -0.200 C  
BRANCH  21  22
HETATM   22  C   UNL     1     -10.664   9.480  70.510  1.00  0.00    -0.298 C  
HETATM   23  N   UNL     1      -9.787   8.411  70.466  1.00  0.00    -0.182 N  
HETATM   24  O   UNL     1     -11.623   9.604  71.264  1.00  0.00    -0.334 OA 
HETATM   25  H   UNL     1      -8.999   8.500  69.824  1.00  0.00     0.000 HD 
BRANCH  23  26
HETATM   26  C   UNL     1      -9.853   7.217  71.204  1.00  0.00    -0.182 A  
HETATM   27  C   UNL     1      -9.287   7.067  72.487  1.00  0.00    -0.157 A  
HETATM   28  C   UNL     1      -9.443   5.840  73.156  1.00  0.00    -0.147 A  
HETATM   29  C   UNL     1      -8.567   8.156  73.234  1.00  0.00    -0.308 C  
HETATM   30  C   UNL     1     -10.182   4.803  72.594  1.00  0.00    -0.242 A  
HETATM   31  C   UNL     1     -10.773   4.969  71.348  1.00  0.00    -0.099 A  
HETATM   32  C   UNL     1     -10.618   6.170  70.641  1.00  0.00    -0.307 A  
HETATM   33  C   UNL     1     -11.209   6.280  69.260  1.00  0.00    -0.458 C  
ENDBRANCH  23  26
ENDBRANCH  21  22
ENDBRANCH  18  21
ENDBRANCH  14  15
ENDBRANCH  11  14
ENDBRANCH  10  11
ENDBRANCH   9  10
ENDBRANCH   8   9
ENDBRANCH   2   3
TORSDOF 9
ENDMDL
MODEL       26
REMARK 921   NORMALIZED FREE ENERGY PREDICTED BY IDOCK:   -6.16 KCAL/MOL
REMARK 922        TOTAL FREE ENERGY PREDICTED BY IDOCK:  -10.50 KCAL/MOL
REMARK 923 INTER-LIGAND FREE ENERGY PREDICTED BY IDOCK:   -8.71 KCAL/MOL
REMARK 924 INTRA-LIGAND FREE ENERGY PREDICTED BY IDOCK:   -1.79 KCAL/MOL
REMARK 927      BINDING AFFINITY PREDICTED BY RF-SCORE:    0.00 PKD
ROOT
HETATM    1  C   UNL     1     -12.021  13.429  68.183  1.00  0.00    -0.321 C  
HETATM    2  O   UNL     1     -12.051  12.199  67.464  1.00  0.00    -0.534 OA 
ENDROOT
BRANCH   2   3
HETATM    3  C   UNL     1     -11.849  12.284  66.112  1.00  0.00    -0.329 A  
HETATM    4  C   UNL     1     -12.333  13.377  65.371  1.00  0.00    -0.522 A  
HETATM    5  C   UNL     1     -12.138  13.456  63.993  1.00  0.00    -0.506 A  
HETATM    6  C   UNL     1     -11.445  12.446  63.336  1.00  0.00    -0.526 A  
HETATM    7  C   UNL     1     -10.932  11.374  64.064  1.00  0.00    -0.428 A  
HETATM    8  C   UNL     1     -11.109  11.284  65.453  1.00  0.00    -0.067 A  
BRANCH   8   9
HETATM    9  O   UNL     1     -10.508  10.168  65.979  1.00  0.00    -0.194 OA 
BRANCH   9  10
HETATM   10  C   UNL     1      -9.239   9.771  65.461  1.00  0.00    -0.215 C  
BRANCH  10  11
HETATM   11  C   UNL     1      -8.362   9.214  66.597  1.00  0.00    -0.122 C  
HETATM   12  H   UNL     1      -7.181   7.639  66.926  1.00  0.00     0.000 HD 
HETATM   13  O   UNL     1      -7.722   7.983  66.225  1.00  0.00    -0.088 OA 
BRANCH  11  14
HETATM   14  C   UNL     1      -7.262  10.231  66.999  1.00  0.00    -0.091 C  
BRANCH  14  15
HETATM   15  N   UNL     1      -7.468  10.891  68.304  1.00  0.00    -0.089 NA 
HETATM   16  C   UNL     1      -6.309  11.707  68.695  1.00  0.00    -0.055 C  
HETATM   17  C   UNL     1      -6.104  12.907  67.757  1.00  0.00    -0.143 C  
HETATM   18  N   UNL     1      -7.235  13.862  67.735  1.00  0.00    -0.148 NA 
HETATM   19  C   UNL     1      -8.509  13.132  67.563  1.00  0.00    -0.198 C  
HETATM   20  C   UNL     1      -8.659  11.769  68.300  1.00  0.00    -0.162 C  
BRANCH  18  21
HETATM   21  C   UNL     1      -7.219  14.717  68.949  1.00  0.00    -0.126 C  
BRANCH  21  22
HETATM   22  C   UNL     1      -8.325  15.797  68.850  1.00  0.00    -0.213 C  
HETATM   23  N   UNL     1      -8.076  16.688  67.821  1.00  0.00    -0.174 N  
HETATM   24  O   UNL     1      -9.309  15.788  69.583  1.00  0.00    -0.274 OA 
HETATM   25  H   UNL     1      -7.241  16.509  67.264  1.00  0.00     0.000 HD 
BRANCH  23  26
HETATM   26  C   UNL     1      -8.838  17.809  67.455  1.00  0.00    -0.243 A  
HETATM   27  C   UNL     1      -8.639  19.093  68.005  1.00  0.00    -0.345 A  
HETATM   28  C   UNL     1      -9.432  20.158  67.541  1.00  0.00    -0.523 A  
HETATM   29  C   UNL     1      -7.585  19.431  69.023  1.00  0.00    -0.369 C  
HETATM   30  C   UNL     1     -10.364  19.971  66.526  1.00  0.00    -0.572 A  
HETATM   31  C   UNL     1     -10.529  18.713  65.958  1.00  0.00    -0.456 A  
HETATM   32  C   UNL     1      -9.773  17.624  66.412  1.00  0.00    -0.303 A  
HETATM   33  C   UNL     1     -10.038  16.262  65.824  1.00  0.00    -0.373 C  
ENDBRANCH  23  26
ENDBRANCH  21  22
ENDBRANCH  18  21
ENDBRANCH  14  15
ENDBRANCH  11  14
ENDBRANCH  10  11
ENDBRANCH   9  10
ENDBRANCH   8   9
ENDBRANCH   2   3
TORSDOF 9
ENDMDL
MODEL       27
REMARK 921   NORMALIZED FREE ENERGY PREDICTED BY IDOCK:   -6.16 KCAL/MOL
REMARK 922        TOTAL FREE ENERGY PREDICTED BY IDOCK:  -10.50 KCAL/MOL
REMARK 923 INTER-LIGAND FREE ENERGY PREDICTED BY IDOCK:   -9.41 KCAL/MOL
REMARK 924 INTRA-LIGAND FREE ENERGY PREDICTED BY IDOCK:   -1.09 KCAL/MOL
REMARK 927      BINDING AFFINITY PREDICTED BY RF-SCORE:    0.00 PKD
ROOT
HETATM    1  C   UNL     1     -14.046   7.378  71.605  1.00  0.00    -0.421 C  
HETATM    2  O   UNL     1     -12.705   7.716  71.262  1.00  0.00    -0.321 OA 
ENDROOT
BRANCH   2   3
HETATM    3  C   UNL     1     -11.809   6.680  71.233  1.00  0.00    -0.350 A  
HETATM    4  C   UNL     1     -11.525   5.931  72.390  1.00  0.00    -0.358 A  
HETATM    5  C   UNL     1     -10.603   4.886  72.363  1.00  0.00    -0.263 A  
HETATM    6  C   UNL     1      -9.958   4.566  71.174  1.00  0.00    -0.257 A  
HETATM    7  C   UNL     1     -10.255   5.279  70.014  1.00  0.00    -0.358 A  
HETATM    8  C   UNL     1     -11.188   6.327  70.020  1.00  0.00    -0.412 A  
BRANCH   8   9
HETATM    9  O   UNL     1     -11.352   6.880  68.775  1.00  0.00    -0.080 OA 
BRANCH   9  10
HETATM   10  C   UNL     1     -10.363   7.793  68.301  1.00  0.00    -0.198 C  
BRANCH  10  11
HETATM   11  C   UNL     1     -10.682   9.215  68.802  1.00  0.00    -0.131 C  
HETATM   12  H   UNL     1     -10.014  10.485  70.188  1.00  0.00     0.000 HD 
HETATM   13  O   UNL     1      -9.817   9.608  69.879  1.00  0.00    -0.208 OA 
BRANCH  11  14
HETATM   14  C   UNL     1     -10.536  10.252  67.658  1.00  0.00    -0.263 C  
BRANCH  14  15
HETATM   15  N   UNL     1     -11.675  11.180  67.508  1.00  0.00    -0.578 NA 
HETATM   16  C   UNL     1     -11.745  12.148  68.613  1.00  0.00    -0.330 C  
HETATM   17  C   UNL     1     -10.546  13.109  68.616  1.00  0.00    -0.239 C  
HETATM   18  N   UNL     1     -10.435  13.947  67.400  1.00  0.00    -0.262 NA 
HETATM   19  C   UNL     1     -10.572  13.105  66.192  1.00  0.00    -0.279 C  
HETATM   20  C   UNL     1     -11.606  11.943  66.242  1.00  0.00    -0.246 C  
BRANCH  18  21
HETATM   21  C   UNL     1     -11.418  15.059  67.442  1.00  0.00    -0.317 C  
BRANCH  21  22
HETATM   22  C   UNL     1     -10.771  16.314  68.080  1.00  0.00    -0.331 C  
HETATM   23  N   UNL     1      -9.800  16.859  67.258  1.00  0.00    -0.259 N  
HETATM   24  O   UNL     1     -11.146  16.761  69.159  1.00  0.00    -0.266 OA 
HETATM   25  H   UNL     1      -9.660  16.397  66.359  1.00  0.00     0.000 HD 
BRANCH  23  26
HETATM   26  C   UNL     1      -8.985  17.973  67.517  1.00  0.00    -0.249 A  
HETATM   27  C   UNL     1      -7.846  17.922  68.348  1.00  0.00    -0.288 A  
HETATM   28  C   UNL     1      -7.075  19.087  68.511  1.00  0.00    -0.322 A  
HETATM   29  C   UNL     1      -7.347  16.681  69.036  1.00  0.00    -0.228 C  
HETATM   30  C   UNL     1      -7.393  20.260  67.834  1.00  0.00    -0.311 A  
HETATM   31  C   UNL     1      -8.493  20.295  66.985  1.00  0.00    -0.388 A  
HETATM   32  C   UNL     1      -9.297  19.160  66.816  1.00  0.00    -0.364 A  
HETATM   33  C   UNL     1     -10.524  19.263  65.948  1.00  0.00    -0.534 C  
ENDBRANCH  23  26
ENDBRANCH  21  22
ENDBRANCH  18  21
ENDBRANCH  14  15
ENDBRANCH  11  14
ENDBRANCH  10  11
ENDBRANCH   9  10
ENDBRANCH   8   9
ENDBRANCH   2   3
TORSDOF 9
ENDMDL
MODEL       28
REMARK 921   NORMALIZED FREE ENERGY PREDICTED BY IDOCK:   -6.16 KCAL/MOL
REMARK 922        TOTAL FREE ENERGY PREDICTED BY IDOCK:  -10.49 KCAL/MOL
REMARK 923 INTER-LIGAND FREE ENERGY PREDICTED BY IDOCK:   -9.46 KCAL/MOL
REMARK 924 INTRA-LIGAND FREE ENERGY PREDICTED BY IDOCK:   -1.04 KCAL/MOL
REMARK 927      BINDING AFFINITY PREDICTED BY RF-SCORE:    0.00 PKD
ROOT
HETATM    1  C   UNL     1     -10.506  19.957  66.055  1.00  0.00    -0.475 C  
HETATM    2  O   UNL     1     -10.751  18.861  66.932  1.00  0.00    -0.421 OA 
ENDROOT
BRANCH   2   3
HETATM    3  C   UNL     1      -9.735  17.952  67.062  1.00  0.00    -0.298 A  
HETATM    4  C   UNL     1      -8.728  18.120  68.029  1.00  0.00    -0.276 A  
HETATM    5  C   UNL     1      -7.687  17.201  68.153  1.00  0.00    -0.204 A  
HETATM    6  C   UNL     1      -7.644  16.092  67.317  1.00  0.00    -0.227 A  
HETATM    7  C   UNL     1      -8.654  15.897  66.376  1.00  0.00    -0.364 A  
HETATM    8  C   UNL     1      -9.715  16.805  66.246  1.00  0.00    -0.297 A  
BRANCH   8   9
HETATM    9  O   UNL     1     -10.612  16.417  65.282  1.00  0.00    -0.548 OA 
BRANCH   9  10
HETATM   10  C   UNL     1     -10.603  15.056  64.853  1.00  0.00    -0.374 C  
BRANCH  10  11
HETATM   11  C   UNL     1     -11.996  14.434  65.063  1.00  0.00    -0.412 C  
HETATM   12  H   UNL     1     -13.510  13.771  63.945  1.00  0.00     0.000 HD 
HETATM   13  O   UNL     1     -12.651  14.155  63.815  1.00  0.00    -0.804 OA 
BRANCH  11  14
HETATM   14  C   UNL     1     -11.898  13.111  65.867  1.00  0.00    -0.406 C  
BRANCH  14  15
HETATM   15  N   UNL     1     -10.591  12.866  66.509  1.00  0.00    -0.257 NA 
HETATM   16  C   UNL     1     -10.655  13.039  67.968  1.00  0.00    -0.235 C  
HETATM   17  C   UNL     1     -11.544  11.979  68.637  1.00  0.00    -0.319 C  
HETATM   18  N   UNL     1     -11.076  10.587  68.452  1.00  0.00    -0.266 NA 
HETATM   19  C   UNL     1     -10.761  10.345  67.027  1.00  0.00    -0.235 C  
HETATM   20  C   UNL     1     -10.085  11.502  66.236  1.00  0.00    -0.226 C  
BRANCH  18  21
HETATM   21  C   UNL     1      -9.931  10.298  69.353  1.00  0.00    -0.233 C  
BRANCH  21  22
HETATM   22  C   UNL     1     -10.026   8.844  69.880  1.00  0.00    -0.188 C  
HETATM   23  N   UNL     1     -10.288   8.813  71.238  1.00  0.00    -0.237 N  
HETATM   24  O   UNL     1      -9.928   7.875  69.135  1.00  0.00    -0.175 OA 
HETATM   25  H   UNL     1     -10.407   9.717  71.695  1.00  0.00     0.000 HD 
BRANCH  23  26
HETATM   26  C   UNL     1     -10.408   7.681  72.062  1.00  0.00    -0.207 A  
HETATM   27  C   UNL     1     -11.538   6.837  72.057  1.00  0.00    -0.327 A  
HETATM   28  C   UNL     1     -11.542   5.707  72.893  1.00  0.00    -0.252 A  
HETATM   29  C   UNL     1     -12.736   7.021  71.166  1.00  0.00    -0.361 C  
HETATM   30  C   UNL     1     -10.439   5.390  73.680  1.00  0.00    -0.291 A  
HETATM   31  C   UNL     1      -9.311   6.202  73.651  1.00  0.00    -0.136 A  
HETATM   32  C   UNL     1      -9.281   7.349  72.847  1.00  0.00    -0.198 A  
HETATM   33  C   UNL     1      -8.070   8.244  72.905  1.00  0.00    -0.211 C  
ENDBRANCH  23  26
ENDBRANCH  21  22
ENDBRANCH  18  21
ENDBRANCH  14  15
ENDBRANCH  11  14
ENDBRANCH  10  11
ENDBRANCH   9  10
ENDBRANCH   8   9
ENDBRANCH   2   3
TORSDOF 9
ENDMDL
MODEL       29
REMARK 921   NORMALIZED FREE ENERGY PREDICTED BY IDOCK:   -6.15 KCAL/MOL
REMARK 922        TOTAL FREE ENERGY PREDICTED BY IDOCK:  -10.48 KCAL/MOL
REMARK 923 INTER-LIGAND FREE ENERGY PREDICTED BY IDOCK:   -9.15 KCAL/MOL
REMARK 924 INTRA-LIGAND FREE ENERGY PREDICTED BY IDOCK:   -1.33 KCAL/MOL
REMARK 927      BINDING AFFINITY PREDICTED BY RF-SCORE:    0.00 PKD
ROOT
HETATM    1  C   UNL     1     -13.015  10.651  71.396  1.00  0.00    -0.443 C  
HETATM    2  O   UNL     1     -12.292  11.682  70.730  1.00  0.00    -0.376 OA 
ENDROOT
BRANCH   2   3
HETATM    3  C   UNL     1     -12.635  12.968  71.053  1.00  0.00    -0.299 A  
HETATM    4  C   UNL     1     -13.441  13.247  72.171  1.00  0.00    -0.655 A  
HETATM    5  C   UNL     1     -13.801  14.555  72.492  1.00  0.00    -0.555 A  
HETATM    6  C   UNL     1     -13.350  15.607  71.704  1.00  0.00    -0.543 A  
HETATM    7  C   UNL     1     -12.524  15.346  70.612  1.00  0.00    -0.478 A  
HETATM    8  C   UNL     1     -12.143  14.037  70.281  1.00  0.00    -0.355 A  
BRANCH   8   9
HETATM    9  O   UNL     1     -11.311  14.002  69.190  1.00  0.00    -0.254 OA 
BRANCH   9  10
HETATM   10  C   UNL     1     -11.824  14.428  67.929  1.00  0.00    -0.349 C  
BRANCH  10  11
HETATM   11  C   UNL     1     -11.099  13.684  66.792  1.00  0.00    -0.307 C  
HETATM   12  H   UNL     1     -10.457  14.065  64.941  1.00  0.00     0.000 HD 
HETATM   13  O   UNL     1     -10.904  14.524  65.643  1.00  0.00    -0.301 OA 
BRANCH  11  14
HETATM   14  C   UNL     1      -9.712  13.171  67.259  1.00  0.00    -0.230 C  
BRANCH  14  15
HETATM   15  N   UNL     1      -9.296  11.879  66.678  1.00  0.00    -0.200 NA 
HETATM   16  C   UNL     1      -8.261  11.220  67.488  1.00  0.00    -0.124 C  
HETATM   17  C   UNL     1      -8.790  10.796  68.867  1.00  0.00    -0.150 C  
HETATM   18  N   UNL     1      -9.898   9.815  68.818  1.00  0.00    -0.164 NA 
HETATM   19  C   UNL     1     -10.926  10.262  67.852  1.00  0.00    -0.292 C  
HETATM   20  C   UNL     1     -10.431  10.939  66.542  1.00  0.00    -0.253 C  
BRANCH  18  21
HETATM   21  C   UNL     1      -9.379   8.456  68.520  1.00  0.00    -0.139 C  
BRANCH  21  22
HETATM   22  C   UNL     1      -9.131   7.683  69.839  1.00  0.00    -0.147 C  
HETATM   23  N   UNL     1     -10.142   6.772  70.092  1.00  0.00    -0.177 N  
HETATM   24  O   UNL     1      -8.120   7.854  70.512  1.00  0.00    -0.105 OA 
HETATM   25  H   UNL     1     -10.879   6.711  69.390  1.00  0.00     0.000 HD 
BRANCH  23  26
HETATM   26  C   UNL     1     -10.272   5.924  71.204  1.00  0.00    -0.212 A  
HETATM   27  C   UNL     1     -10.765   6.355  72.453  1.00  0.00    -0.255 A  
HETATM   28  C   UNL     1     -10.891   5.415  73.492  1.00  0.00    -0.342 A  
HETATM   29  C   UNL     1     -11.231   7.754  72.749  1.00  0.00    -0.456 C  
HETATM   30  C   UNL     1     -10.584   4.073  73.289  1.00  0.00    -0.270 A  
HETATM   31  C   UNL     1     -10.137   3.645  72.044  1.00  0.00    -0.199 A  
HETATM   32  C   UNL     1      -9.977   4.558  70.993  1.00  0.00    -0.257 A  
HETATM   33  C   UNL     1      -9.416   4.066  69.684  1.00  0.00    -0.262 C  
ENDBRANCH  23  26
ENDBRANCH  21  22
ENDBRANCH  18  21
ENDBRANCH  14  15
ENDBRANCH  11  14
ENDBRANCH  10  11
ENDBRANCH   9  10
ENDBRANCH   8   9
ENDBRANCH   2   3
TORSDOF 9
ENDMDL
MODEL       30
REMARK 921   NORMALIZED FREE ENERGY PREDICTED BY IDOCK:   -6.13 KCAL/MOL
REMARK 922        TOTAL FREE ENERGY PREDICTED BY IDOCK:  -10.45 KCAL/MOL
REMARK 923 INTER-LIGAND FREE ENERGY PREDICTED BY IDOCK:   -8.95 KCAL/MOL
REMARK 924 INTRA-LIGAND FREE ENERGY PREDICTED BY IDOCK:   -1.50 KCAL/MOL
REMARK 927      BINDING AFFINITY PREDICTED BY RF-SCORE:    0.00 PKD
ROOT
HETATM    1  C   UNL     1     -10.619  17.533  68.358  1.00  0.00    -0.339 C  
HETATM    2  O   UNL     1     -10.041  16.619  69.286  1.00  0.00    -0.272 OA 
ENDROOT
BRANCH   2   3
HETATM    3  C   UNL     1     -10.899  15.723  69.867  1.00  0.00    -0.327 A  
HETATM    4  C   UNL     1     -11.420  15.943  71.155  1.00  0.00    -0.471 A  
HETATM    5  C   UNL     1     -12.283  15.024  71.749  1.00  0.00    -0.417 A  
HETATM    6  C   UNL     1     -12.648  13.874  71.060  1.00  0.00    -0.444 A  
HETATM    7  C   UNL     1     -12.164  13.661  69.770  1.00  0.00    -0.350 A  
HETATM    8  C   UNL     1     -11.304  14.580  69.151  1.00  0.00    -0.277 A  
BRANCH   8   9
HETATM    9  O   UNL     1     -10.965  14.195  67.878  1.00  0.00    -0.244 OA 
BRANCH   9  10
HETATM   10  C   UNL     1     -11.904  14.417  66.828  1.00  0.00    -0.410 C  
BRANCH  10  11
HETATM   11  C   UNL     1     -12.155  13.103  66.064  1.00  0.00    -0.436 C  
HETATM   12  H   UNL     1     -13.123  12.499  64.428  1.00  0.00     0.000 HD 
HETATM   13  O   UNL     1     -12.968  13.309  64.898  1.00  0.00    -0.727 OA 
BRANCH  11  14
HETATM   14  C   UNL     1     -10.818  12.458  65.616  1.00  0.00    -0.277 C  
BRANCH  14  15
HETATM   15  N   UNL     1     -10.668  11.029  65.960  1.00  0.00    -0.218 NA 
HETATM   16  C   UNL     1      -9.324  10.526  65.640  1.00  0.00    -0.200 C  
HETATM   17  C   UNL     1      -8.239  11.181  66.509  1.00  0.00    -0.167 C  
HETATM   18  N   UNL     1      -8.389  10.930  67.961  1.00  0.00    -0.119 NA 
HETATM   19  C   UNL     1      -9.784  11.194  68.377  1.00  0.00    -0.191 C  
HETATM   20  C   UNL     1     -10.916  10.774  67.397  1.00  0.00    -0.300 C  
BRANCH  18  21
HETATM   21  C   UNL     1      -7.936   9.558  68.303  1.00  0.00    -0.094 C  
BRANCH  21  22
HETATM   22  C   UNL     1      -8.197   9.272  69.802  1.00  0.00    -0.131 C  
HETATM   23  N   UNL     1      -9.085   8.224  69.972  1.00  0.00    -0.149 N  
HETATM   24  O   UNL     1      -7.623   9.891  70.692  1.00  0.00    -0.288 OA 
HETATM   25  H   UNL     1      -9.419   7.774  69.120  1.00  0.00     0.000 HD 
BRANCH  23  26
HETATM   26  C   UNL     1      -9.580   7.708  71.181  1.00  0.00    -0.158 A  
HETATM   27  C   UNL     1     -10.706   8.239  71.846  1.00  0.00    -0.350 A  
HETATM   28  C   UNL     1     -11.143   7.624  73.033  1.00  0.00    -0.437 A  
HETATM   29  C   UNL     1     -11.526   9.395  71.344  1.00  0.00    -0.449 C  
HETATM   30  C   UNL     1     -10.515   6.485  73.526  1.00  0.00    -0.317 A  
HETATM   31  C   UNL     1      -9.432   5.940  72.846  1.00  0.00    -0.154 A  
HETATM   32  C   UNL     1      -8.954   6.540  71.673  1.00  0.00    -0.143 A  
HETATM   33  C   UNL     1      -7.729   5.965  71.011  1.00  0.00    -0.101 C  
ENDBRANCH  23  26
ENDBRANCH  21  22
ENDBRANCH  18  21
ENDBRANCH  14  15
ENDBRANCH  11  14
ENDBRANCH  10  11
ENDBRANCH   9  10
ENDBRANCH   8   9
ENDBRANCH   2   3
TORSDOF 9
ENDMDL
MODEL       31
REMARK 921   NORMALIZED FREE ENERGY PREDICTED BY IDOCK:   -6.13 KCAL/MOL
REMARK 922        TOTAL FREE ENERGY PREDICTED BY IDOCK:  -10.44 KCAL/MOL
REMARK 923 INTER-LIGAND FREE ENERGY PREDICTED BY IDOCK:   -9.41 KCAL/MOL
REMARK 924 INTRA-LIGAND FREE ENERGY PREDICTED BY IDOCK:   -1.04 KCAL/MOL
REMARK 927      BINDING AFFINITY PREDICTED BY RF-SCORE:    0.00 PKD
ROOT
HETATM    1  C   UNL     1     -12.847  16.084  73.596  1.00  0.00    -0.595 C  
HETATM    2  O   UNL     1     -12.614  15.885  72.205  1.00  0.00    -0.418 OA 
ENDROOT
BRANCH   2   3
HETATM    3  C   UNL     1     -12.629  14.586  71.769  1.00  0.00    -0.346 A  
HETATM    4  C   UNL     1     -13.388  13.605  72.431  1.00  0.00    -0.641 A  
HETATM    5  C   UNL     1     -13.393  12.282  71.995  1.00  0.00    -0.491 A  
HETATM    6  C   UNL     1     -12.645  11.921  70.880  1.00  0.00    -0.361 A  
HETATM    7  C   UNL     1     -11.914  12.891  70.196  1.00  0.00    -0.373 A  
HETATM    8  C   UNL     1     -11.907  14.229  70.614  1.00  0.00    -0.281 A  
BRANCH   8   9
HETATM    9  O   UNL     1     -11.147  15.024  69.793  1.00  0.00    -0.254 OA 
BRANCH   9  10
HETATM   10  C   UNL     1     -11.802  15.751  68.754  1.00  0.00    -0.309 C  
BRANCH  10  11
HETATM   11  C   UNL     1     -10.964  15.688  67.463  1.00  0.00    -0.309 C  
HETATM   12  H   UNL     1      -9.039  15.607  66.946  1.00  0.00     0.000 HD 
HETATM   13  O   UNL     1      -9.556  15.646  67.743  1.00  0.00    -0.209 OA 
BRANCH  11  14
HETATM   14  C   UNL     1     -11.331  14.437  66.624  1.00  0.00    -0.353 C  
BRANCH  14  15
HETATM   15  N   UNL     1     -10.205  13.827  65.887  1.00  0.00    -0.305 NA 
HETATM   16  C   UNL     1      -9.546  12.770  66.668  1.00  0.00    -0.255 C  
HETATM   17  C   UNL     1     -10.468  11.563  66.901  1.00  0.00    -0.235 C  
HETATM   18  N   UNL     1     -10.906  10.884  65.660  1.00  0.00    -0.109 NA 
HETATM   19  C   UNL     1     -11.398  11.882  64.686  1.00  0.00    -0.293 C  
HETATM   20  C   UNL     1     -10.638  13.236  64.601  1.00  0.00    -0.404 C  
BRANCH  18  21
HETATM   21  C   UNL     1      -9.815  10.036  65.116  1.00  0.00    -0.318 C  
BRANCH  21  22
HETATM   22  C   UNL     1      -9.377   8.993  66.174  1.00  0.00    -0.232 C  
HETATM   23  N   UNL     1     -10.455   8.268  66.650  1.00  0.00    -0.392 N  
HETATM   24  O   UNL     1      -8.200   8.833  66.480  1.00  0.00    -0.108 OA 
HETATM   25  H   UNL     1     -11.362   8.486  66.237  1.00  0.00     0.000 HD 
BRANCH  23  26
HETATM   26  C   UNL     1     -10.446   7.266  67.634  1.00  0.00    -0.242 A  
HETATM   27  C   UNL     1     -10.284   5.895  67.343  1.00  0.00    -0.237 A  
HETATM   28  C   UNL     1     -10.251   4.977  68.406  1.00  0.00    -0.143 A  
HETATM   29  C   UNL     1     -10.079   5.336  65.962  1.00  0.00    -0.163 C  
HETATM   30  C   UNL     1     -10.328   5.404  69.728  1.00  0.00    -0.375 A  
HETATM   31  C   UNL     1     -10.447   6.759  70.014  1.00  0.00    -0.241 A  
HETATM   32  C   UNL     1     -10.507   7.701  68.978  1.00  0.00    -0.214 A  
HETATM   33  C   UNL     1     -10.714   9.151  69.328  1.00  0.00    -0.199 C  
ENDBRANCH  23  26
ENDBRANCH  21  22
ENDBRANCH  18  21
ENDBRANCH  14  15
ENDBRANCH  11  14
ENDBRANCH  10  11
ENDBRANCH   9  10
ENDBRANCH   8   9
ENDBRANCH   2   3
TORSDOF 9
ENDMDL
MODEL       32
REMARK 921   NORMALIZED FREE ENERGY PREDICTED BY IDOCK:   -6.10 KCAL/MOL
REMARK 922        TOTAL FREE ENERGY PREDICTED BY IDOCK:  -10.40 KCAL/MOL
REMARK 923 INTER-LIGAND FREE ENERGY PREDICTED BY IDOCK:   -8.96 KCAL/MOL
REMARK 924 INTRA-LIGAND FREE ENERGY PREDICTED BY IDOCK:   -1.44 KCAL/MOL
REMARK 927      BINDING AFFINITY PREDICTED BY RF-SCORE:    0.00 PKD
ROOT
HETATM    1  C   UNL     1     -11.975  16.226  72.675  1.00  0.00    -0.546 C  
HETATM    2  O   UNL     1     -12.612  15.731  71.500  1.00  0.00    -0.420 OA 
ENDROOT
BRANCH   2   3
HETATM    3  C   UNL     1     -12.667  14.369  71.370  1.00  0.00    -0.342 A  
HETATM    4  C   UNL     1     -13.432  13.584  72.251  1.00  0.00    -0.669 A  
HETATM    5  C   UNL     1     -13.477  12.197  72.126  1.00  0.00    -0.383 A  
HETATM    6  C   UNL     1     -12.766  11.573  71.108  1.00  0.00    -0.458 A  
HETATM    7  C   UNL     1     -12.031  12.342  70.207  1.00  0.00    -0.371 A  
HETATM    8  C   UNL     1     -11.983  13.740  70.312  1.00  0.00    -0.326 A  
BRANCH   8   9
HETATM    9  O   UNL     1     -11.227  14.307  69.317  1.00  0.00    -0.255 OA 
BRANCH   9  10
HETATM   10  C   UNL     1     -11.801  14.438  68.017  1.00  0.00    -0.325 C  
BRANCH  10  11
HETATM   11  C   UNL     1     -10.715  14.231  66.944  1.00  0.00    -0.290 C  
HETATM   12  H   UNL     1      -8.737  14.431  66.776  1.00  0.00     0.000 HD 
HETATM   13  O   UNL     1      -9.407  14.558  67.438  1.00  0.00    -0.188 OA 
BRANCH  11  14
HETATM   14  C   UNL     1     -10.695  12.761  66.450  1.00  0.00    -0.262 C  
BRANCH  14  15
HETATM   15  N   UNL     1      -9.512  11.980  66.862  1.00  0.00    -0.198 NA 
HETATM   16  C   UNL     1      -9.802  11.107  68.009  1.00  0.00    -0.174 C  
HETATM   17  C   UNL     1     -10.808  10.001  67.652  1.00  0.00    -0.278 C  
HETATM   18  N   UNL     1     -10.345   9.075  66.593  1.00  0.00    -0.251 NA 
HETATM   19  C   UNL     1      -9.813   9.845  65.448  1.00  0.00    -0.313 C  
HETATM   20  C   UNL     1      -8.997  11.131  65.765  1.00  0.00    -0.196 C  
BRANCH  18  21
HETATM   21  C   UNL     1      -9.364   8.105  67.142  1.00  0.00    -0.145 C  
BRANCH  21  22
HETATM   22  C   UNL     1     -10.078   7.105  68.085  1.00  0.00    -0.169 C  
HETATM   23  N   UNL     1      -9.515   7.109  69.349  1.00  0.00    -0.154 N  
HETATM   24  O   UNL     1     -11.053   6.454  67.724  1.00  0.00    -0.328 OA 
HETATM   25  H   UNL     1      -8.749   7.765  69.499  1.00  0.00     0.000 HD 
BRANCH  23  26
HETATM   26  C   UNL     1      -9.876   6.314  70.450  1.00  0.00    -0.176 A  
HETATM   27  C   UNL     1      -9.630   4.927  70.517  1.00  0.00    -0.253 A  
HETATM   28  C   UNL     1      -9.997   4.231  71.682  1.00  0.00    -0.250 A  
HETATM   29  C   UNL     1      -8.937   4.131  69.446  1.00  0.00    -0.161 C  
HETATM   30  C   UNL     1     -10.550   4.894  72.773  1.00  0.00    -0.273 A  
HETATM   31  C   UNL     1     -10.754   6.268  72.719  1.00  0.00    -0.269 A  
HETATM   32  C   UNL     1     -10.422   6.991  71.565  1.00  0.00    -0.222 A  
HETATM   33  C   UNL     1     -10.732   8.464  71.518  1.00  0.00    -0.313 C  
ENDBRANCH  23  26
ENDBRANCH  21  22
ENDBRANCH  18  21
ENDBRANCH  14  15
ENDBRANCH  11  14
ENDBRANCH  10  11
ENDBRANCH   9  10
ENDBRANCH   8   9
ENDBRANCH   2   3
TORSDOF 9
ENDMDL
MODEL       33
REMARK 921   NORMALIZED FREE ENERGY PREDICTED BY IDOCK:   -6.09 KCAL/MOL
REMARK 922        TOTAL FREE ENERGY PREDICTED BY IDOCK:  -10.40 KCAL/MOL
REMARK 923 INTER-LIGAND FREE ENERGY PREDICTED BY IDOCK:   -9.56 KCAL/MOL
REMARK 924 INTRA-LIGAND FREE ENERGY PREDICTED BY IDOCK:   -0.84 KCAL/MOL
REMARK 927      BINDING AFFINITY PREDICTED BY RF-SCORE:    0.00 PKD
ROOT
HETATM    1  C   UNL     1     -10.176   5.834  74.462  1.00  0.00    -0.270 C  
HETATM    2  O   UNL     1     -11.022   6.524  73.547  1.00  0.00    -0.229 OA 
ENDROOT
BRANCH   2   3
HETATM    3  C   UNL     1     -10.861   6.212  72.222  1.00  0.00    -0.244 A  
HETATM    4  C   UNL     1     -10.206   5.031  71.827  1.00  0.00    -0.272 A  
HETATM    5  C   UNL     1     -10.032   4.721  70.480  1.00  0.00    -0.306 A  
HETATM    6  C   UNL     1     -10.520   5.582  69.505  1.00  0.00    -0.368 A  
HETATM    7  C   UNL     1     -11.200   6.739  69.884  1.00  0.00    -0.379 A  
HETATM    8  C   UNL     1     -11.394   7.061  71.235  1.00  0.00    -0.274 A  
BRANCH   8   9
HETATM    9  O   UNL     1     -12.106   8.225  71.391  1.00  0.00    -0.291 OA 
BRANCH   9  10
HETATM   10  C   UNL     1     -11.399   9.464  71.358  1.00  0.00    -0.381 C  
BRANCH  10  11
HETATM   11  C   UNL     1     -12.262  10.539  70.672  1.00  0.00    -0.352 C  
HETATM   12  H   UNL     1     -13.489  12.020  71.204  1.00  0.00     0.000 HD 
HETATM   13  O   UNL     1     -12.956  11.357  71.627  1.00  0.00    -0.448 OA 
BRANCH  11  14
HETATM   14  C   UNL     1     -11.392  11.464  69.782  1.00  0.00    -0.255 C  
BRANCH  14  15
HETATM   15  N   UNL     1     -12.149  12.346  68.870  1.00  0.00    -0.211 NA 
HETATM   16  C   UNL     1     -12.068  13.756  69.277  1.00  0.00    -0.329 C  
HETATM   17  C   UNL     1     -10.642  14.314  69.151  1.00  0.00    -0.186 C  
HETATM   18  N   UNL     1     -10.102  14.298  67.772  1.00  0.00    -0.229 NA 
HETATM   19  C   UNL     1     -10.323  12.970  67.159  1.00  0.00    -0.243 C  
HETATM   20  C   UNL     1     -11.665  12.249  67.474  1.00  0.00    -0.332 C  
BRANCH  18  21
HETATM   21  C   UNL     1     -10.683  15.406  66.972  1.00  0.00    -0.321 C  
BRANCH  21  22
HETATM   22  C   UNL     1      -9.592  16.460  66.658  1.00  0.00    -0.256 C  
HETATM   23  N   UNL     1      -9.369  17.298  67.737  1.00  0.00    -0.247 N  
HETATM   24  O   UNL     1      -8.991  16.475  65.589  1.00  0.00    -0.449 OA 
HETATM   25  H   UNL     1      -9.912  17.103  68.578  1.00  0.00     0.000 HD 
BRANCH  23  26
HETATM   26  C   UNL     1      -8.482  18.384  67.809  1.00  0.00    -0.259 A  
HETATM   27  C   UNL     1      -8.766  19.653  67.260  1.00  0.00    -0.367 A  
HETATM   28  C   UNL     1      -7.826  20.685  67.421  1.00  0.00    -0.329 A  
HETATM   29  C   UNL     1     -10.046  20.010  66.556  1.00  0.00    -0.606 C  
HETATM   30  C   UNL     1      -6.655  20.486  68.146  1.00  0.00    -0.329 A  
HETATM   31  C   UNL     1      -6.398  19.247  68.721  1.00  0.00    -0.282 A  
HETATM   32  C   UNL     1      -7.302  18.187  68.561  1.00  0.00    -0.285 A  
HETATM   33  C   UNL     1      -6.947  16.840  69.133  1.00  0.00    -0.231 C  
ENDBRANCH  23  26
ENDBRANCH  21  22
ENDBRANCH  18  21
ENDBRANCH  14  15
ENDBRANCH  11  14
ENDBRANCH  10  11
ENDBRANCH   9  10
ENDBRANCH   8   9
ENDBRANCH   2   3
TORSDOF 9
ENDMDL
MODEL       34
REMARK 921   NORMALIZED FREE ENERGY PREDICTED BY IDOCK:   -6.07 KCAL/MOL
REMARK 922        TOTAL FREE ENERGY PREDICTED BY IDOCK:  -10.35 KCAL/MOL
REMARK 923 INTER-LIGAND FREE ENERGY PREDICTED BY IDOCK:   -9.49 KCAL/MOL
REMARK 924 INTRA-LIGAND FREE ENERGY PREDICTED BY IDOCK:   -0.87 KCAL/MOL
REMARK 927      BINDING AFFINITY PREDICTED BY RF-SCORE:    0.00 PKD
ROOT
HETATM    1  C   UNL     1      -6.083  18.697  66.075  1.00  0.00    -0.190 C  
HETATM    2  O   UNL     1      -7.419  18.792  65.590  1.00  0.00    -0.488 OA 
ENDROOT
BRANCH   2   3
HETATM    3  C   UNL     1      -8.375  19.130  66.511  1.00  0.00    -0.315 A  
HETATM    4  C   UNL     1      -8.102  20.051  67.538  1.00  0.00    -0.351 A  
HETATM    5  C   UNL     1      -9.071  20.384  68.483  1.00  0.00     0.235 A  
HETATM    6  C   UNL     1     -10.334  19.808  68.408  1.00  0.00    -0.513 A  
HETATM    7  C   UNL     1     -10.627  18.919  67.375  1.00  0.00    -0.534 A  
HETATM    8  C   UNL     1      -9.667  18.581  66.409  1.00  0.00    -0.336 A  
BRANCH   8   9
HETATM    9  O   UNL     1     -10.163  17.712  65.470  1.00  0.00    -0.600 OA 
BRANCH   9  10
HETATM   10  C   UNL     1     -10.087  16.312  65.731  1.00  0.00    -0.347 C  
BRANCH  10  11
HETATM   11  C   UNL     1     -11.175  15.571  64.931  1.00  0.00    -0.389 C  
HETATM   12  H   UNL     1     -12.207  15.826  63.242  1.00  0.00     0.000 HD 
HETATM   13  O   UNL     1     -11.537  16.283  63.736  1.00  0.00    -0.952 OA 
BRANCH  11  14
HETATM   14  C   UNL     1     -10.698  14.152  64.526  1.00  0.00    -0.303 C  
BRANCH  14  15
HETATM   15  N   UNL     1     -11.701  13.082  64.700  1.00  0.00    -0.343 NA 
HETATM   16  C   UNL     1     -11.208  11.784  64.217  1.00  0.00    -0.344 C  
HETATM   17  C   UNL     1     -10.033  11.262  65.059  1.00  0.00    -0.274 C  
HETATM   18  N   UNL     1     -10.363  11.023  66.482  1.00  0.00    -0.238 NA 
HETATM   19  C   UNL     1     -11.074  12.195  67.039  1.00  0.00    -0.294 C  
HETATM   20  C   UNL     1     -12.097  12.917  66.116  1.00  0.00    -0.393 C  
BRANCH  18  21
HETATM   21  C   UNL     1     -11.127   9.759  66.635  1.00  0.00     0.374 C  
BRANCH  21  22
HETATM   22  C   UNL     1     -10.246   8.687  67.323  1.00  0.00    -0.268 C  
HETATM   23  N   UNL     1     -10.997   7.605  67.745  1.00  0.00    -0.501 N  
HETATM   24  O   UNL     1      -9.028   8.806  67.409  1.00  0.00    -0.132 OA 
HETATM   25  H   UNL     1     -11.994   7.639  67.533  1.00  0.00     0.000 HD 
BRANCH  23  26
HETATM   26  C   UNL     1     -10.548   6.466  68.432  1.00  0.00    -0.257 A  
HETATM   27  C   UNL     1      -9.882   5.394  67.802  1.00  0.00    -0.174 A  
HETATM   28  C   UNL     1      -9.438   4.316  68.589  1.00  0.00    -0.221 A  
HETATM   29  C   UNL     1      -9.550   5.340  66.336  1.00  0.00    -0.171 C  
HETATM   30  C   UNL     1      -9.604   4.318  69.970  1.00  0.00    -0.274 A  
HETATM   31  C   UNL     1     -10.224   5.395  70.593  1.00  0.00    -0.323 A  
HETATM   32  C   UNL     1     -10.700   6.476  69.838  1.00  0.00    -0.310 A  
HETATM   33  C   UNL     1     -11.435   7.585  70.543  1.00  0.00    -0.259 C  
ENDBRANCH  23  26
ENDBRANCH  21  22
ENDBRANCH  18  21
ENDBRANCH  14  15
ENDBRANCH  11  14
ENDBRANCH  10  11
ENDBRANCH   9  10
ENDBRANCH   8   9
ENDBRANCH   2   3
TORSDOF 9
ENDMDL
MODEL       35
REMARK 921   NORMALIZED FREE ENERGY PREDICTED BY IDOCK:   -6.04 KCAL/MOL
REMARK 922        TOTAL FREE ENERGY PREDICTED BY IDOCK:  -10.32 KCAL/MOL
REMARK 923 INTER-LIGAND FREE ENERGY PREDICTED BY IDOCK:   -9.26 KCAL/MOL
REMARK 924 INTRA-LIGAND FREE ENERGY PREDICTED BY IDOCK:   -1.06 KCAL/MOL
REMARK 927      BINDING AFFINITY PREDICTED BY RF-SCORE:    0.00 PKD
ROOT
HETATM    1  C   UNL     1     -14.103   7.240  71.525  1.00  0.00    -0.378 C  
HETATM    2  O   UNL     1     -12.764   7.625  71.227  1.00  0.00    -0.321 OA 
ENDROOT
BRANCH   2   3
HETATM    3  C   UNL     1     -11.833   6.620  71.220  1.00  0.00    -0.350 A  
HETATM    4  C   UNL     1     -11.512   5.917  72.395  1.00  0.00    -0.358 A  
HETATM    5  C   UNL     1     -10.555   4.903  72.390  1.00  0.00    -0.263 A  
HETATM    6  C   UNL     1      -9.912   4.569  71.204  1.00  0.00    -0.257 A  
HETATM    7  C   UNL     1     -10.245   5.236  70.026  1.00  0.00    -0.358 A  
HETATM    8  C   UNL     1     -11.213   6.251  70.011  1.00  0.00    -0.412 A  
BRANCH   8   9
HETATM    9  O   UNL     1     -11.408   6.760  68.752  1.00  0.00    -0.151 OA 
BRANCH   9  10
HETATM   10  C   UNL     1     -10.403   7.607  68.197  1.00  0.00    -0.204 C  
BRANCH  10  11
HETATM   11  C   UNL     1     -10.535   9.026  68.781  1.00  0.00    -0.206 C  
HETATM   12  H   UNL     1      -9.721  10.111  70.244  1.00  0.00     0.000 HD 
HETATM   13  O   UNL     1      -9.639   9.235  69.884  1.00  0.00    -0.175 OA 
BRANCH  11  14
HETATM   14  C   UNL     1     -10.238  10.100  67.703  1.00  0.00    -0.203 C  
BRANCH  14  15
HETATM   15  N   UNL     1     -11.381  10.966  67.352  1.00  0.00    -0.457 NA 
HETATM   16  C   UNL     1     -11.579  12.040  68.337  1.00  0.00    -0.311 C  
HETATM   17  C   UNL     1     -10.411  13.038  68.347  1.00  0.00    -0.252 C  
HETATM   18  N   UNL     1     -10.209  13.750  67.064  1.00  0.00    -0.252 NA 
HETATM   19  C   UNL     1     -10.210  12.783  65.945  1.00  0.00    -0.287 C  
HETATM   20  C   UNL     1     -11.214  11.597  66.023  1.00  0.00    -0.240 C  
BRANCH  18  21
HETATM   21  C   UNL     1     -11.220  14.825  66.898  1.00  0.00    -0.347 C  
BRANCH  21  22
HETATM   22  C   UNL     1     -10.733  16.121  67.592  1.00  0.00    -0.318 C  
HETATM   23  N   UNL     1      -9.635  16.662  66.946  1.00  0.00    -0.241 N  
HETATM   24  O   UNL     1     -11.316  16.598  68.560  1.00  0.00    -0.317 OA 
HETATM   25  H   UNL     1      -9.317  16.170  66.111  1.00  0.00     0.000 HD 
BRANCH  23  26
HETATM   26  C   UNL     1      -8.909  17.808  67.306  1.00  0.00    -0.238 A  
HETATM   27  C   UNL     1      -9.212  19.100  66.826  1.00  0.00    -0.356 A  
HETATM   28  C   UNL     1      -8.445  20.187  67.279  1.00  0.00    -0.403 A  
HETATM   29  C   UNL     1     -10.352  19.418  65.898  1.00  0.00    -0.536 C  
HETATM   30  C   UNL     1      -7.434  20.013  68.219  1.00  0.00    -0.279 A  
HETATM   31  C   UNL     1      -7.164  18.745  68.720  1.00  0.00    -0.336 A  
HETATM   32  C   UNL     1      -7.893  17.634  68.274  1.00  0.00    -0.256 A  
HETATM   33  C   UNL     1      -7.517  16.267  68.784  1.00  0.00    -0.195 C  
ENDBRANCH  23  26
ENDBRANCH  21  22
ENDBRANCH  18  21
ENDBRANCH  14  15
ENDBRANCH  11  14
ENDBRANCH  10  11
ENDBRANCH   9  10
ENDBRANCH   8   9
ENDBRANCH   2   3
TORSDOF 9
ENDMDL
MODEL       36
REMARK 921   NORMALIZED FREE ENERGY PREDICTED BY IDOCK:   -6.03 KCAL/MOL
REMARK 922        TOTAL FREE ENERGY PREDICTED BY IDOCK:  -10.30 KCAL/MOL
REMARK 923 INTER-LIGAND FREE ENERGY PREDICTED BY IDOCK:   -9.39 KCAL/MOL
REMARK 924 INTRA-LIGAND FREE ENERGY PREDICTED BY IDOCK:   -0.91 KCAL/MOL
REMARK 927      BINDING AFFINITY PREDICTED BY RF-SCORE:    0.00 PKD
ROOT
HETATM    1  C   UNL     1      -6.297  18.591  65.524  1.00  0.00    -0.285 C  
HETATM    2  O   UNL     1      -7.526  17.871  65.505  1.00  0.00    -0.524 OA 
ENDROOT
BRANCH   2   3
HETATM    3  C   UNL     1      -8.495  18.304  66.371  1.00  0.00    -0.244 A  
HETATM    4  C   UNL     1      -8.209  19.259  67.364  1.00  0.00    -0.311 A  
HETATM    5  C   UNL     1      -9.192  19.690  68.253  1.00  0.00    -0.412 A  
HETATM    6  C   UNL     1     -10.481  19.180  68.156  1.00  0.00    -0.428 A  
HETATM    7  C   UNL     1     -10.785  18.258  67.156  1.00  0.00    -0.334 A  
HETATM    8  C   UNL     1      -9.811  17.821  66.245  1.00  0.00    -0.294 A  
BRANCH   8   9
HETATM    9  O   UNL     1     -10.320  16.935  65.329  1.00  0.00    -0.624 OA 
BRANCH   9  10
HETATM   10  C   UNL     1     -10.150  15.539  65.567  1.00  0.00    -0.373 C  
BRANCH  10  11
HETATM   11  C   UNL     1     -11.527  14.856  65.676  1.00  0.00    -0.290 C  
HETATM   12  H   UNL     1     -13.134  14.564  64.530  1.00  0.00     0.000 HD 
HETATM   13  O   UNL     1     -12.285  14.985  64.463  1.00  0.00    -0.431 OA 
BRANCH  11  14
HETATM   14  C   UNL     1     -11.374  13.346  65.995  1.00  0.00    -0.309 C  
BRANCH  14  15
HETATM   15  N   UNL     1     -10.449  13.032  67.103  1.00  0.00    -0.242 NA 
HETATM   16  C   UNL     1     -11.006  13.416  68.409  1.00  0.00    -0.267 C  
HETATM   17  C   UNL     1     -12.243  12.581  68.778  1.00  0.00     0.063 C  
HETATM   18  N   UNL     1     -11.981  11.129  68.902  1.00  0.00    -0.478 NA 
HETATM   19  C   UNL     1     -11.218  10.651  67.728  1.00  0.00    -0.313 C  
HETATM   20  C   UNL     1     -10.117  11.591  67.158  1.00  0.00    -0.197 C  
BRANCH  18  21
HETATM   21  C   UNL     1     -11.306  10.829  70.190  1.00  0.00    -0.309 C  
BRANCH  21  22
HETATM   22  C   UNL     1     -11.585   9.363  70.604  1.00  0.00    -0.269 C  
HETATM   23  N   UNL     1     -10.453   8.576  70.483  1.00  0.00    -0.199 N  
HETATM   24  O   UNL     1     -12.678   9.005  71.032  1.00  0.00    -0.229 OA 
HETATM   25  H   UNL     1      -9.606   9.051  70.174  1.00  0.00     0.000 HD 
BRANCH  23  26
HETATM   26  C   UNL     1     -10.336   7.199  70.736  1.00  0.00    -0.206 A  
HETATM   27  C   UNL     1     -10.508   6.213  69.743  1.00  0.00    -0.299 A  
HETATM   28  C   UNL     1     -10.330   4.862  70.092  1.00  0.00    -0.253 A  
HETATM   29  C   UNL     1     -10.812   6.501  68.298  1.00  0.00    -0.359 C  
HETATM   30  C   UNL     1      -9.945   4.497  71.379  1.00  0.00    -0.259 A  
HETATM   31  C   UNL     1      -9.737   5.475  72.344  1.00  0.00    -0.177 A  
HETATM   32  C   UNL     1      -9.928   6.829  72.038  1.00  0.00    -0.183 A  
HETATM   33  C   UNL     1      -9.768   7.850  73.134  1.00  0.00    -0.353 C  
ENDBRANCH  23  26
ENDBRANCH  21  22
ENDBRANCH  18  21
ENDBRANCH  14  15
ENDBRANCH  11  14
ENDBRANCH  10  11
ENDBRANCH   9  10
ENDBRANCH   8   9
ENDBRANCH   2   3
TORSDOF 9
ENDMDL
MODEL       37
REMARK 921   NORMALIZED FREE ENERGY PREDICTED BY IDOCK:   -6.02 KCAL/MOL
REMARK 922        TOTAL FREE ENERGY PREDICTED BY IDOCK:  -10.28 KCAL/MOL
REMARK 923 INTER-LIGAND FREE ENERGY PREDICTED BY IDOCK:   -9.41 KCAL/MOL
REMARK 924 INTRA-LIGAND FREE ENERGY PREDICTED BY IDOCK:   -0.87 KCAL/MOL
REMARK 927      BINDING AFFINITY PREDICTED BY RF-SCORE:    0.00 PKD
ROOT
HETATM    1  C   UNL     1     -10.624   6.547  67.294  1.00  0.00    -0.315 C  
HETATM    2  O   UNL     1     -11.110   7.200  68.463  1.00  0.00    -0.081 OA 
ENDROOT
BRANCH   2   3
HETATM    3  C   UNL     1     -10.951   6.524  69.644  1.00  0.00    -0.336 A  
HETATM    4  C   UNL     1     -10.188   5.344  69.710  1.00  0.00    -0.348 A  
HETATM    5  C   UNL     1     -10.038   4.650  70.909  1.00  0.00    -0.257 A  
HETATM    6  C   UNL     1     -10.640   5.132  72.065  1.00  0.00    -0.266 A  
HETATM    7  C   UNL     1     -11.371   6.318  72.019  1.00  0.00    -0.348 A  
HETATM    8  C   UNL     1     -11.524   7.036  70.824  1.00  0.00    -0.318 A  
BRANCH   8   9
HETATM    9  O   UNL     1     -12.256   8.183  70.999  1.00  0.00    -0.277 OA 
BRANCH   9  10
HETATM   10  C   UNL     1     -11.560   9.399  71.270  1.00  0.00    -0.364 C  
BRANCH  10  11
HETATM   11  C   UNL     1     -12.344  10.590  70.686  1.00  0.00    -0.356 C  
HETATM   12  H   UNL     1     -13.390  12.151  71.357  1.00  0.00     0.000 HD 
HETATM   13  O   UNL     1     -12.907  11.417  71.717  1.00  0.00    -0.405 OA 
BRANCH  11  14
HETATM   14  C   UNL     1     -11.431  11.474  69.798  1.00  0.00    -0.286 C  
BRANCH  14  15
HETATM   15  N   UNL     1     -12.137  12.277  68.779  1.00  0.00    -0.210 NA 
HETATM   16  C   UNL     1     -12.282  13.681  69.190  1.00  0.00    -0.224 C  
HETATM   17  C   UNL     1     -10.927  14.400  69.280  1.00  0.00    -0.255 C  
HETATM   18  N   UNL     1     -10.187  14.466  67.999  1.00  0.00    -0.225 NA 
HETATM   19  C   UNL     1     -10.158  13.130  67.364  1.00  0.00    -0.229 C  
HETATM   20  C   UNL     1     -11.440  12.256  67.474  1.00  0.00    -0.347 C  
BRANCH  18  21
HETATM   21  C   UNL     1     -10.763  15.512  67.117  1.00  0.00    -0.315 C  
BRANCH  21  22
HETATM   22  C   UNL     1      -9.677  16.554  66.752  1.00  0.00    -0.258 C  
HETATM   23  N   UNL     1      -9.385  17.381  67.822  1.00  0.00    -0.252 N  
HETATM   24  O   UNL     1      -9.134  16.568  65.652  1.00  0.00    -0.466 OA 
HETATM   25  H   UNL     1      -9.884  17.187  68.690  1.00  0.00     0.000 HD 
BRANCH  23  26
HETATM   26  C   UNL     1      -8.481  18.455  67.853  1.00  0.00    -0.261 A  
HETATM   27  C   UNL     1      -8.754  19.713  67.275  1.00  0.00    -0.367 A  
HETATM   28  C   UNL     1      -7.796  20.735  67.395  1.00  0.00    -0.293 A  
HETATM   29  C   UNL     1     -10.039  20.071  66.580  1.00  0.00    -0.606 C  
HETATM   30  C   UNL     1      -6.618  20.537  68.110  1.00  0.00    -0.329 A  
HETATM   31  C   UNL     1      -6.371  19.309  68.713  1.00  0.00    -0.282 A  
HETATM   32  C   UNL     1      -7.293  18.260  68.594  1.00  0.00    -0.303 A  
HETATM   33  C   UNL     1      -6.951  16.922  69.196  1.00  0.00    -0.234 C  
ENDBRANCH  23  26
ENDBRANCH  21  22
ENDBRANCH  18  21
ENDBRANCH  14  15
ENDBRANCH  11  14
ENDBRANCH  10  11
ENDBRANCH   9  10
ENDBRANCH   8   9
ENDBRANCH   2   3
TORSDOF 9
ENDMDL
MODEL       38
REMARK 921   NORMALIZED FREE ENERGY PREDICTED BY IDOCK:   -5.98 KCAL/MOL
REMARK 922        TOTAL FREE ENERGY PREDICTED BY IDOCK:  -10.22 KCAL/MOL
REMARK 923 INTER-LIGAND FREE ENERGY PREDICTED BY IDOCK:   -9.72 KCAL/MOL
REMARK 924 INTRA-LIGAND FREE ENERGY PREDICTED BY IDOCK:   -0.50 KCAL/MOL
REMARK 927      BINDING AFFINITY PREDICTED BY RF-SCORE:    0.00 PKD
ROOT
HETATM    1  C   UNL     1     -12.783  15.131  73.904  1.00  0.00    -0.465 C  
HETATM    2  O   UNL     1     -13.485  14.214  73.069  1.00  0.00    -0.661 OA 
ENDROOT
BRANCH   2   3
HETATM    3  C   UNL     1     -13.023  14.091  71.785  1.00  0.00    -0.353 A  
HETATM    4  C   UNL     1     -12.838  15.219  70.967  1.00  0.00    -0.505 A  
HETATM    5  C   UNL     1     -12.381  15.092  69.656  1.00  0.00    -0.238 A  
HETATM    6  C   UNL     1     -12.091  13.832  69.146  1.00  0.00    -0.374 A  
HETATM    7  C   UNL     1     -12.240  12.708  69.958  1.00  0.00    -0.267 A  
HETATM    8  C   UNL     1     -12.688  12.819  71.283  1.00  0.00    -0.269 A  
BRANCH   8   9
HETATM    9  O   UNL     1     -12.740  11.602  71.914  1.00  0.00    -0.285 OA 
BRANCH   9  10
HETATM   10  C   UNL     1     -12.703  10.419  71.116  1.00  0.00    -0.415 C  
BRANCH  10  11
HETATM   11  C   UNL     1     -11.614   9.467  71.645  1.00  0.00    -0.396 C  
HETATM   12  H   UNL     1     -11.398   8.123  73.104  1.00  0.00     0.000 HD 
HETATM   13  O   UNL     1     -12.070   8.711  72.778  1.00  0.00    -0.298 OA 
BRANCH  11  14
HETATM   14  C   UNL     1     -11.166   8.470  70.544  1.00  0.00    -0.242 C  
BRANCH  14  15
HETATM   15  N   UNL     1      -9.865   8.778  69.915  1.00  0.00    -0.180 NA 
HETATM   16  C   UNL     1      -9.554   7.850  68.818  1.00  0.00    -0.152 C  
HETATM   17  C   UNL     1     -10.525   8.003  67.637  1.00  0.00    -0.232 C  
HETATM   18  N   UNL     1     -10.506   9.341  67.003  1.00  0.00    -0.250 NA 
HETATM   19  C   UNL     1     -10.594  10.392  68.041  1.00  0.00    -0.221 C  
HETATM   20  C   UNL     1      -9.823  10.153  69.370  1.00  0.00    -0.229 C  
BRANCH  18  21
HETATM   21  C   UNL     1      -9.313   9.489  66.132  1.00  0.00    -0.198 C  
BRANCH  21  22
HETATM   22  C   UNL     1      -9.450  10.759  65.257  1.00  0.00    -0.218 C  
HETATM   23  N   UNL     1     -10.164  11.750  65.908  1.00  0.00    -0.228 N  
HETATM   24  O   UNL     1      -8.926  10.846  64.151  1.00  0.00    -0.174 OA 
HETATM   25  H   UNL     1     -10.472  11.535  66.856  1.00  0.00     0.000 HD 
BRANCH  23  26
HETATM   26  C   UNL     1     -10.513  13.018  65.415  1.00  0.00    -0.296 A  
HETATM   27  C   UNL     1     -11.549  13.228  64.481  1.00  0.00    -0.407 A  
HETATM   28  C   UNL     1     -11.844  14.543  64.081  1.00  0.00    -0.290 A  
HETATM   29  C   UNL     1     -12.419  12.140  63.916  1.00  0.00    -0.581 C  
HETATM   30  C   UNL     1     -11.166  15.630  64.625  1.00  0.00    -0.380 A  
HETATM   31  C   UNL     1     -10.173  15.422  65.575  1.00  0.00    -0.411 A  
HETATM   32  C   UNL     1      -9.836  14.123  65.981  1.00  0.00    -0.329 A  
HETATM   33  C   UNL     1      -8.701  13.939  66.954  1.00  0.00    -0.177 C  
ENDBRANCH  23  26
ENDBRANCH  21  22
ENDBRANCH  18  21
ENDBRANCH  14  15
ENDBRANCH  11  14
ENDBRANCH  10  11
ENDBRANCH   9  10
ENDBRANCH   8   9
ENDBRANCH   2   3
TORSDOF 9
ENDMDL
MODEL       39
REMARK 921   NORMALIZED FREE ENERGY PREDICTED BY IDOCK:   -5.97 KCAL/MOL
REMARK 922        TOTAL FREE ENERGY PREDICTED BY IDOCK:  -10.21 KCAL/MOL
REMARK 923 INTER-LIGAND FREE ENERGY PREDICTED BY IDOCK:   -9.09 KCAL/MOL
REMARK 924 INTRA-LIGAND FREE ENERGY PREDICTED BY IDOCK:   -1.12 KCAL/MOL
REMARK 927      BINDING AFFINITY PREDICTED BY RF-SCORE:    0.00 PKD
ROOT
HETATM    1  C   UNL     1     -10.378  14.796  69.323  1.00  0.00    -0.206 C  
HETATM    2  O   UNL     1     -11.281  13.696  69.278  1.00  0.00    -0.255 OA 
ENDROOT
BRANCH   2   3
HETATM    3  C   UNL     1     -12.187  13.614  70.303  1.00  0.00    -0.353 A  
HETATM    4  C   UNL     1     -12.901  14.746  70.735  1.00  0.00    -0.418 A  
HETATM    5  C   UNL     1     -13.813  14.665  71.786  1.00  0.00    -0.530 A  
HETATM    6  C   UNL     1     -14.033  13.445  72.414  1.00  0.00    -0.605 A  
HETATM    7  C   UNL     1     -13.356  12.309  71.974  1.00  0.00    -0.491 A  
HETATM    8  C   UNL     1     -12.443  12.370  70.910  1.00  0.00    -0.274 A  
BRANCH   8   9
HETATM    9  O   UNL     1     -11.906  11.142  70.619  1.00  0.00    -0.335 OA 
BRANCH   9  10
HETATM   10  C   UNL     1     -12.110  10.074  71.544  1.00  0.00    -0.387 C  
BRANCH  10  11
HETATM   11  C   UNL     1     -10.931   9.086  71.468  1.00  0.00    -0.348 C  
HETATM   12  H   UNL     1     -10.031   7.756  72.653  1.00  0.00     0.000 HD 
HETATM   13  O   UNL     1     -10.758   8.365  72.699  1.00  0.00    -0.339 OA 
BRANCH  11  14
HETATM   14  C   UNL     1     -11.141   8.056  70.328  1.00  0.00    -0.224 C  
BRANCH  14  15
HETATM   15  N   UNL     1      -9.997   7.903  69.406  1.00  0.00    -0.185 NA 
HETATM   16  C   UNL     1     -10.390   8.116  68.005  1.00  0.00    -0.211 C  
HETATM   17  C   UNL     1     -10.823   9.566  67.740  1.00  0.00    -0.195 C  
HETATM   18  N   UNL     1      -9.764  10.571  67.981  1.00  0.00    -0.146 NA 
HETATM   19  C   UNL     1      -9.126  10.328  69.294  1.00  0.00    -0.194 C  
HETATM   20  C   UNL     1      -8.902   8.848  69.718  1.00  0.00    -0.144 C  
BRANCH  18  21
HETATM   21  C   UNL     1      -8.790  10.582  66.860  1.00  0.00    -0.137 C  
BRANCH  21  22
HETATM   22  C   UNL     1      -9.266  11.557  65.755  1.00  0.00    -0.196 C  
HETATM   23  N   UNL     1      -9.966  12.626  66.287  1.00  0.00    -0.254 N  
HETATM   24  O   UNL     1      -8.985  11.387  64.573  1.00  0.00    -0.001 OA 
HETATM   25  H   UNL     1     -10.052  12.647  67.303  1.00  0.00     0.000 HD 
BRANCH  23  26
HETATM   26  C   UNL     1     -10.573  13.684  65.591  1.00  0.00    -0.293 A  
HETATM   27  C   UNL     1     -11.759  13.538  64.840  1.00  0.00    -0.381 A  
HETATM   28  C   UNL     1     -12.305  14.671  64.212  1.00  0.00    -0.375 A  
HETATM   29  C   UNL     1     -12.531  12.255  64.708  1.00  0.00    -0.385 C  
HETATM   30  C   UNL     1     -11.724  15.926  64.359  1.00  0.00    -0.179 A  
HETATM   31  C   UNL     1     -10.578  16.074  65.133  1.00  0.00    -0.394 A  
HETATM   32  C   UNL     1      -9.992  14.962  65.754  1.00  0.00    -0.376 A  
HETATM   33  C   UNL     1      -8.708  15.152  66.518  1.00  0.00    -0.280 C  
ENDBRANCH  23  26
ENDBRANCH  21  22
ENDBRANCH  18  21
ENDBRANCH  14  15
ENDBRANCH  11  14
ENDBRANCH  10  11
ENDBRANCH   9  10
ENDBRANCH   8   9
ENDBRANCH   2   3
TORSDOF 9
ENDMDL
MODEL       40
REMARK 921   NORMALIZED FREE ENERGY PREDICTED BY IDOCK:   -5.96 KCAL/MOL
REMARK 922        TOTAL FREE ENERGY PREDICTED BY IDOCK:  -10.18 KCAL/MOL
REMARK 923 INTER-LIGAND FREE ENERGY PREDICTED BY IDOCK:   -8.90 KCAL/MOL
REMARK 924 INTRA-LIGAND FREE ENERGY PREDICTED BY IDOCK:   -1.28 KCAL/MOL
REMARK 927      BINDING AFFINITY PREDICTED BY RF-SCORE:    0.00 PKD
ROOT
HETATM    1  C   UNL     1     -13.137  14.742  73.165  1.00  0.00    -0.492 C  
HETATM    2  O   UNL     1     -13.318  13.378  72.796  1.00  0.00    -0.523 OA 
ENDROOT
BRANCH   2   3
HETATM    3  C   UNL     1     -12.860  13.020  71.556  1.00  0.00    -0.290 A  
HETATM    4  C   UNL     1     -12.487  13.992  70.610  1.00  0.00    -0.435 A  
HETATM    5  C   UNL     1     -12.033  13.628  69.343  1.00  0.00    -0.394 A  
HETATM    6  C   UNL     1     -11.934  12.283  69.007  1.00  0.00    -0.300 A  
HETATM    7  C   UNL     1     -12.269  11.310  69.947  1.00  0.00    -0.358 A  
HETATM    8  C   UNL     1     -12.717  11.659  71.230  1.00  0.00    -0.340 A  
BRANCH   8   9
HETATM    9  O   UNL     1     -12.970  10.555  72.006  1.00  0.00    -0.458 OA 
BRANCH   9  10
HETATM   10  C   UNL     1     -13.011   9.276  71.376  1.00  0.00    -0.326 C  
BRANCH  10  11
HETATM   11  C   UNL     1     -11.743   8.477  71.732  1.00  0.00    -0.327 C  
HETATM   12  H   UNL     1     -11.002   7.488  73.298  1.00  0.00     0.000 HD 
HETATM   13  O   UNL     1     -11.784   7.980  73.079  1.00  0.00    -0.309 OA 
BRANCH  11  14
HETATM   14  C   UNL     1     -11.559   7.272  70.774  1.00  0.00    -0.302 C  
BRANCH  14  15
HETATM   15  N   UNL     1     -10.185   7.082  70.265  1.00  0.00    -0.191 NA 
HETATM   16  C   UNL     1     -10.129   7.155  68.797  1.00  0.00    -0.173 C  
HETATM   17  C   UNL     1     -10.474   8.558  68.275  1.00  0.00    -0.171 C  
HETATM   18  N   UNL     1      -9.550   9.622  68.731  1.00  0.00    -0.149 NA 
HETATM   19  C   UNL     1      -9.345   9.519  70.192  1.00  0.00    -0.247 C  
HETATM   20  C   UNL     1      -9.248   8.092  70.804  1.00  0.00    -0.150 C  
BRANCH  18  21
HETATM   21  C   UNL     1      -8.278   9.571  67.966  1.00  0.00    -0.114 C  
BRANCH  21  22
HETATM   22  C   UNL     1      -8.203  10.766  66.984  1.00  0.00    -0.126 C  
HETATM   23  N   UNL     1      -9.179  11.709  67.255  1.00  0.00    -0.167 N  
HETATM   24  O   UNL     1      -7.334  10.846  66.123  1.00  0.00    -0.140 OA 
HETATM   25  H   UNL     1      -9.783  11.516  68.055  1.00  0.00     0.000 HD 
BRANCH  23  26
HETATM   26  C   UNL     1      -9.437  12.901  66.558  1.00  0.00    -0.251 A  
HETATM   27  C   UNL     1     -10.317  12.980  65.459  1.00  0.00    -0.304 A  
HETATM   28  C   UNL     1     -10.534  14.231  64.855  1.00  0.00    -0.454 A  
HETATM   29  C   UNL     1     -11.102  11.821  64.910  1.00  0.00    -0.345 C  
HETATM   30  C   UNL     1      -9.935  15.384  65.353  1.00  0.00    -0.356 A  
HETATM   31  C   UNL     1      -9.100  15.309  66.461  1.00  0.00    -0.334 A  
HETATM   32  C   UNL     1      -8.842  14.075  67.075  1.00  0.00    -0.234 A  
HETATM   33  C   UNL     1      -7.870  14.026  68.225  1.00  0.00    -0.140 C  
ENDBRANCH  23  26
ENDBRANCH  21  22
ENDBRANCH  18  21
ENDBRANCH  14  15
ENDBRANCH  11  14
ENDBRANCH  10  11
ENDBRANCH   9  10
ENDBRANCH   8   9
ENDBRANCH   2   3
TORSDOF 9
ENDMDL
MODEL       41
REMARK 921   NORMALIZED FREE ENERGY PREDICTED BY IDOCK:   -5.95 KCAL/MOL
REMARK 922        TOTAL FREE ENERGY PREDICTED BY IDOCK:  -10.17 KCAL/MOL
REMARK 923 INTER-LIGAND FREE ENERGY PREDICTED BY IDOCK:   -9.17 KCAL/MOL
REMARK 924 INTRA-LIGAND FREE ENERGY PREDICTED BY IDOCK:   -1.00 KCAL/MOL
REMARK 927      BINDING AFFINITY PREDICTED BY RF-SCORE:    0.00 PKD
ROOT
HETATM    1  C   UNL     1     -12.434  15.278  74.144  1.00  0.00    -0.597 C  
HETATM    2  O   UNL     1     -13.330  14.573  73.290  1.00  0.00    -0.611 OA 
ENDROOT
BRANCH   2   3
HETATM    3  C   UNL     1     -12.881  14.317  72.021  1.00  0.00    -0.347 A  
HETATM    4  C   UNL     1     -12.360  15.344  71.213  1.00  0.00    -0.446 A  
HETATM    5  C   UNL     1     -11.916  15.085  69.918  1.00  0.00    -0.374 A  
HETATM    6  C   UNL     1     -11.974  13.791  69.414  1.00  0.00    -0.397 A  
HETATM    7  C   UNL     1     -12.458  12.759  70.217  1.00  0.00    -0.176 A  
HETATM    8  C   UNL     1     -12.899  12.999  71.527  1.00  0.00    -0.290 A  
BRANCH   8   9
HETATM    9  O   UNL     1     -13.311  11.849  72.152  1.00  0.00    -0.503 OA 
BRANCH   9  10
HETATM   10  C   UNL     1     -13.467  10.667  71.368  1.00  0.00    -0.059 C  
BRANCH  10  11
HETATM   11  C   UNL     1     -13.154   9.427  72.226  1.00  0.00    -0.428 C  
HETATM   12  H   UNL     1     -14.152   8.085  73.315  1.00  0.00     0.000 HD 
HETATM   13  O   UNL     1     -14.345   8.850  72.786  1.00  0.00    -0.600 OA 
BRANCH  11  14
HETATM   14  C   UNL     1     -12.436   8.338  71.387  1.00  0.00    -0.292 C  
BRANCH  14  15
HETATM   15  N   UNL     1     -10.962   8.435  71.367  1.00  0.00    -0.241 NA 
HETATM   16  C   UNL     1     -10.338   7.213  70.839  1.00  0.00    -0.201 C  
HETATM   17  C   UNL     1     -10.664   6.994  69.354  1.00  0.00    -0.238 C  
HETATM   18  N   UNL     1     -10.180   8.069  68.459  1.00  0.00    -0.203 NA 
HETATM   19  C   UNL     1     -10.561   9.390  69.005  1.00  0.00    -0.213 C  
HETATM   20  C   UNL     1     -10.491   9.575  70.549  1.00  0.00    -0.296 C  
BRANCH  18  21
HETATM   21  C   UNL     1      -8.718   7.940  68.231  1.00  0.00    -0.130 C  
BRANCH  21  22
HETATM   22  C   UNL     1      -8.284   8.846  67.053  1.00  0.00    -0.106 C  
HETATM   23  N   UNL     1      -9.206   8.817  66.022  1.00  0.00    -0.208 N  
HETATM   24  O   UNL     1      -7.265   9.528  67.098  1.00  0.00    -0.086 OA 
HETATM   25  H   UNL     1     -10.036   8.244  66.176  1.00  0.00     0.000 HD 
BRANCH  23  26
HETATM   26  C   UNL     1      -9.133   9.482  64.787  1.00  0.00    -0.218 A  
HETATM   27  C   UNL     1      -8.427   8.977  63.676  1.00  0.00    -0.173 A  
HETATM   28  C   UNL     1      -8.449   9.704  62.472  1.00  0.00    -0.184 A  
HETATM   29  C   UNL     1      -7.690   7.666  63.658  1.00  0.00    -0.123 C  
HETATM   30  C   UNL     1      -9.188  10.877  62.354  1.00  0.00    -0.304 A  
HETATM   31  C   UNL     1      -9.916  11.351  63.439  1.00  0.00    -0.435 A  
HETATM   32  C   UNL     1      -9.898  10.664  64.661  1.00  0.00    -0.382 A  
HETATM   33  C   UNL     1     -10.637  11.254  65.834  1.00  0.00    -0.309 C  
ENDBRANCH  23  26
ENDBRANCH  21  22
ENDBRANCH  18  21
ENDBRANCH  14  15
ENDBRANCH  11  14
ENDBRANCH  10  11
ENDBRANCH   9  10
ENDBRANCH   8   9
ENDBRANCH   2   3
TORSDOF 9
ENDMDL
MODEL       42
REMARK 921   NORMALIZED FREE ENERGY PREDICTED BY IDOCK:   -5.94 KCAL/MOL
REMARK 922        TOTAL FREE ENERGY PREDICTED BY IDOCK:  -10.15 KCAL/MOL
REMARK 923 INTER-LIGAND FREE ENERGY PREDICTED BY IDOCK:   -9.23 KCAL/MOL
REMARK 924 INTRA-LIGAND FREE ENERGY PREDICTED BY IDOCK:   -0.93 KCAL/MOL
REMARK 927      BINDING AFFINITY PREDICTED BY RF-SCORE:    0.00 PKD
ROOT
HETATM    1  C   UNL     1      -8.197   4.381  65.828  1.00  0.00    -0.109 C  
HETATM    2  O   UNL     1      -9.562   4.622  66.158  1.00  0.00    -0.152 OA 
ENDROOT
BRANCH   2   3
HETATM    3  C   UNL     1      -9.841   4.792  67.488  1.00  0.00    -0.162 A  
HETATM    4  C   UNL     1      -9.348   3.899  68.456  1.00  0.00    -0.224 A  
HETATM    5  C   UNL     1      -9.643   4.065  69.808  1.00  0.00    -0.280 A  
HETATM    6  C   UNL     1     -10.429   5.137  70.215  1.00  0.00    -0.296 A  
HETATM    7  C   UNL     1     -10.897   6.048  69.269  1.00  0.00    -0.428 A  
HETATM    8  C   UNL     1     -10.600   5.902  67.906  1.00  0.00    -0.251 A  
BRANCH   8   9
HETATM    9  O   UNL     1     -11.134   6.915  67.149  1.00  0.00    -0.370 OA 
BRANCH   9  10
HETATM   10  C   UNL     1     -10.285   7.995  66.763  1.00  0.00    -0.297 C  
BRANCH  10  11
HETATM   11  C   UNL     1     -10.558   9.219  67.658  1.00  0.00    -0.261 C  
HETATM   12  H   UNL     1      -9.759  10.088  69.267  1.00  0.00     0.000 HD 
HETATM   13  O   UNL     1      -9.591   9.333  68.715  1.00  0.00    -0.151 OA 
BRANCH  11  14
HETATM   14  C   UNL     1     -10.530  10.530  66.830  1.00  0.00    -0.242 C  
BRANCH  14  15
HETATM   15  N   UNL     1     -11.673  11.437  67.057  1.00  0.00    -0.508 NA 
HETATM   16  C   UNL     1     -11.555  12.161  68.331  1.00  0.00    -0.327 C  
HETATM   17  C   UNL     1     -10.367  13.136  68.334  1.00  0.00    -0.253 C  
HETATM   18  N   UNL     1     -10.453  14.203  67.311  1.00  0.00    -0.271 NA 
HETATM   19  C   UNL     1     -10.792  13.616  65.996  1.00  0.00    -0.275 C  
HETATM   20  C   UNL     1     -11.810  12.440  65.977  1.00  0.00    -0.395 C  
BRANCH  18  21
HETATM   21  C   UNL     1     -11.410  15.256  67.736  1.00  0.00    -0.326 C  
BRANCH  21  22
HETATM   22  C   UNL     1     -10.647  16.429  68.400  1.00  0.00    -0.311 C  
HETATM   23  N   UNL     1      -9.784  17.043  67.509  1.00  0.00    -0.247 N  
HETATM   24  O   UNL     1     -10.856  16.766  69.561  1.00  0.00    -0.317 OA 
HETATM   25  H   UNL     1      -9.783  16.676  66.557  1.00  0.00     0.000 HD 
BRANCH  23  26
HETATM   26  C   UNL     1      -8.911  18.113  67.762  1.00  0.00    -0.256 A  
HETATM   27  C   UNL     1      -7.707  17.976  68.484  1.00  0.00    -0.308 A  
HETATM   28  C   UNL     1      -6.884  19.104  68.649  1.00  0.00    -0.320 A  
HETATM   29  C   UNL     1      -7.196  16.680  69.051  1.00  0.00    -0.222 C  
HETATM   30  C   UNL     1      -7.216  20.327  68.074  1.00  0.00    -0.297 A  
HETATM   31  C   UNL     1      -8.383  20.449  67.328  1.00  0.00    -0.398 A  
HETATM   32  C   UNL     1      -9.239  19.351  67.163  1.00  0.00    -0.375 A  
HETATM   33  C   UNL     1     -10.532  19.546  66.414  1.00  0.00    -0.597 C  
ENDBRANCH  23  26
ENDBRANCH  21  22
ENDBRANCH  18  21
ENDBRANCH  14  15
ENDBRANCH  11  14
ENDBRANCH  10  11
ENDBRANCH   9  10
ENDBRANCH   8   9
ENDBRANCH   2   3
TORSDOF 9
ENDMDL
MODEL       43
REMARK 921   NORMALIZED FREE ENERGY PREDICTED BY IDOCK:   -5.92 KCAL/MOL
REMARK 922        TOTAL FREE ENERGY PREDICTED BY IDOCK:  -10.14 KCAL/MOL
REMARK 923 INTER-LIGAND FREE ENERGY PREDICTED BY IDOCK:   -8.74 KCAL/MOL
REMARK 924 INTRA-LIGAND FREE ENERGY PREDICTED BY IDOCK:   -1.40 KCAL/MOL
REMARK 927      BINDING AFFINITY PREDICTED BY RF-SCORE:    0.00 PKD
ROOT
HETATM    1  C   UNL     1     -12.015  16.268  72.047  1.00  0.00    -0.467 C  
HETATM    2  O   UNL     1     -12.520  15.571  70.912  1.00  0.00    -0.379 OA 
ENDROOT
BRANCH   2   3
HETATM    3  C   UNL     1     -12.611  14.209  71.030  1.00  0.00    -0.369 A  
HETATM    4  C   UNL     1     -13.316  13.616  72.093  1.00  0.00    -0.587 A  
HETATM    5  C   UNL     1     -13.397  12.231  72.219  1.00  0.00    -0.375 A  
HETATM    6  C   UNL     1     -12.783  11.415  71.277  1.00  0.00    -0.498 A  
HETATM    7  C   UNL     1     -12.108  11.990  70.201  1.00  0.00    -0.377 A  
HETATM    8  C   UNL     1     -12.026  13.383  70.052  1.00  0.00    -0.337 A  
BRANCH   8   9
HETATM    9  O   UNL     1     -11.342  13.741  68.917  1.00  0.00    -0.254 OA 
BRANCH   9  10
HETATM   10  C   UNL     1     -12.010  13.641  67.660  1.00  0.00    -0.351 C  
BRANCH  10  11
HETATM   11  C   UNL     1     -11.072  13.001  66.620  1.00  0.00    -0.289 C  
HETATM   12  H   UNL     1      -9.150  13.102  66.093  1.00  0.00     0.000 HD 
HETATM   13  O   UNL     1      -9.729  13.497  66.735  1.00  0.00    -0.254 OA 
BRANCH  11  14
HETATM   14  C   UNL     1     -11.035  11.459  66.780  1.00  0.00    -0.291 C  
BRANCH  14  15
HETATM   15  N   UNL     1      -9.684  10.862  66.776  1.00  0.00    -0.186 NA 
HETATM   16  C   UNL     1      -9.247  10.485  68.128  1.00  0.00    -0.148 C  
HETATM   17  C   UNL     1     -10.098   9.348  68.715  1.00  0.00    -0.193 C  
HETATM   18  N   UNL     1     -10.040   8.085  67.944  1.00  0.00    -0.184 NA 
HETATM   19  C   UNL     1     -10.251   8.361  66.507  1.00  0.00    -0.207 C  
HETATM   20  C   UNL     1      -9.613   9.654  65.924  1.00  0.00    -0.257 C  
BRANCH  18  21
HETATM   21  C   UNL     1      -8.768   7.368  68.214  1.00  0.00    -0.122 C  
BRANCH  21  22
HETATM   22  C   UNL     1      -8.761   6.827  69.665  1.00  0.00    -0.137 C  
HETATM   23  N   UNL     1      -9.874   6.046  69.921  1.00  0.00    -0.165 N  
HETATM   24  O   UNL     1      -7.834   7.048  70.437  1.00  0.00    -0.103 OA 
HETATM   25  H   UNL     1     -10.518   5.909  69.142  1.00  0.00     0.000 HD 
BRANCH  23  26
HETATM   26  C   UNL     1     -10.222   5.419  71.129  1.00  0.00    -0.221 A  
HETATM   27  C   UNL     1     -10.945   6.063  72.155  1.00  0.00    -0.314 A  
HETATM   28  C   UNL     1     -11.275   5.333  73.311  1.00  0.00    -0.359 A  
HETATM   29  C   UNL     1     -11.452   7.477  72.082  1.00  0.00    -0.334 C  
HETATM   30  C   UNL     1     -10.942   3.988  73.431  1.00  0.00    -0.342 A  
HETATM   31  C   UNL     1     -10.265   3.346  72.401  1.00  0.00    -0.199 A  
HETATM   32  C   UNL     1      -9.899   4.048  71.244  1.00  0.00    -0.242 A  
HETATM   33  C   UNL     1      -9.098   3.335  70.186  1.00  0.00    -0.195 C  
ENDBRANCH  23  26
ENDBRANCH  21  22
ENDBRANCH  18  21
ENDBRANCH  14  15
ENDBRANCH  11  14
ENDBRANCH  10  11
ENDBRANCH   9  10
ENDBRANCH   8   9
ENDBRANCH   2   3
TORSDOF 9
ENDMDL
MODEL       44
REMARK 921   NORMALIZED FREE ENERGY PREDICTED BY IDOCK:   -5.92 KCAL/MOL
REMARK 922        TOTAL FREE ENERGY PREDICTED BY IDOCK:  -10.13 KCAL/MOL
REMARK 923 INTER-LIGAND FREE ENERGY PREDICTED BY IDOCK:   -8.79 KCAL/MOL
REMARK 924 INTRA-LIGAND FREE ENERGY PREDICTED BY IDOCK:   -1.34 KCAL/MOL
REMARK 927      BINDING AFFINITY PREDICTED BY RF-SCORE:    0.00 PKD
ROOT
HETATM    1  C   UNL     1     -12.647  14.316  65.583  1.00  0.00    -0.410 C  
HETATM    2  O   UNL     1     -12.908  12.962  65.225  1.00  0.00    -0.668 OA 
ENDROOT
BRANCH   2   3
HETATM    3  C   UNL     1     -11.824  12.219  64.839  1.00  0.00    -0.358 A  
HETATM    4  C   UNL     1     -11.300  12.317  63.537  1.00  0.00    -0.549 A  
HETATM    5  C   UNL     1     -10.205  11.551  63.141  1.00  0.00    -0.389 A  
HETATM    6  C   UNL     1      -9.608  10.682  64.046  1.00  0.00    -0.351 A  
HETATM    7  C   UNL     1     -10.097  10.599  65.349  1.00  0.00    -0.356 A  
HETATM    8  C   UNL     1     -11.192  11.371  65.768  1.00  0.00    -0.090 A  
BRANCH   8   9
HETATM    9  O   UNL     1     -11.497  11.159  67.089  1.00  0.00    -0.461 OA 
BRANCH   9  10
HETATM   10  C   UNL     1     -10.757  10.175  67.809  1.00  0.00    -0.277 C  
BRANCH  10  11
HETATM   11  C   UNL     1     -10.040  10.831  69.004  1.00  0.00    -0.211 C  
HETATM   12  H   UNL     1      -9.860  10.540  70.970  1.00  0.00     0.000 HD 
HETATM   13  O   UNL     1     -10.302  10.135  70.233  1.00  0.00    -0.267 OA 
BRANCH  11  14
HETATM   14  C   UNL     1      -8.505  10.863  68.782  1.00  0.00    -0.150 C  
BRANCH  14  15
HETATM   15  N   UNL     1      -8.057  11.686  67.640  1.00  0.00    -0.133 NA 
HETATM   16  C   UNL     1      -8.571  13.061  67.718  1.00  0.00    -0.189 C  
HETATM   17  C   UNL     1      -7.988  13.829  68.915  1.00  0.00     0.036 C  
HETATM   18  N   UNL     1      -6.517  13.989  68.877  1.00  0.00    -0.091 NA 
HETATM   19  C   UNL     1      -5.876  12.689  68.582  1.00  0.00    -0.063 C  
HETATM   20  C   UNL     1      -6.581  11.759  67.554  1.00  0.00    -0.097 C  
BRANCH  18  21
HETATM   21  C   UNL     1      -6.132  15.053  67.915  1.00  0.00    -0.155 C  
BRANCH  21  22
HETATM   22  C   UNL     1      -6.946  16.341  68.197  1.00  0.00    -0.128 C  
HETATM   23  N   UNL     1      -7.828  16.621  67.168  1.00  0.00    -0.165 N  
HETATM   24  O   UNL     1      -6.825  16.970  69.244  1.00  0.00    -0.232 OA 
HETATM   25  H   UNL     1      -7.847  15.953  66.398  1.00  0.00     0.000 HD 
BRANCH  23  26
HETATM   26  C   UNL     1      -8.699  17.717  67.061  1.00  0.00    -0.244 A  
HETATM   27  C   UNL     1      -9.993  17.735  67.621  1.00  0.00    -0.322 A  
HETATM   28  C   UNL     1     -10.772  18.899  67.489  1.00  0.00    -0.509 A  
HETATM   29  C   UNL     1     -10.595  16.608  68.414  1.00  0.00    -0.343 C  
HETATM   30  C   UNL     1     -10.267  20.034  66.862  1.00  0.00    -0.595 A  
HETATM   31  C   UNL     1      -8.976  20.027  66.348  1.00  0.00    -0.408 A  
HETATM   32  C   UNL     1      -8.180  18.876  66.440  1.00  0.00    -0.306 A  
HETATM   33  C   UNL     1      -6.816  18.885  65.801  1.00  0.00    -0.307 C  
ENDBRANCH  23  26
ENDBRANCH  21  22
ENDBRANCH  18  21
ENDBRANCH  14  15
ENDBRANCH  11  14
ENDBRANCH  10  11
ENDBRANCH   9  10
ENDBRANCH   8   9
ENDBRANCH   2   3
TORSDOF 9
ENDMDL
MODEL       45
REMARK 921   NORMALIZED FREE ENERGY PREDICTED BY IDOCK:   -5.91 KCAL/MOL
REMARK 922        TOTAL FREE ENERGY PREDICTED BY IDOCK:  -10.11 KCAL/MOL
REMARK 923 INTER-LIGAND FREE ENERGY PREDICTED BY IDOCK:   -9.18 KCAL/MOL
REMARK 924 INTRA-LIGAND FREE ENERGY PREDICTED BY IDOCK:   -0.93 KCAL/MOL
REMARK 927      BINDING AFFINITY PREDICTED BY RF-SCORE:    0.00 PKD
ROOT
HETATM    1  C   UNL     1     -11.919  11.923  69.800  1.00  0.00    -0.307 C  
HETATM    2  O   UNL     1     -11.164  10.836  70.327  1.00  0.00    -0.298 OA 
ENDROOT
BRANCH   2   3
HETATM    3  C   UNL     1     -11.879   9.734  70.714  1.00  0.00    -0.319 A  
HETATM    4  C   UNL     1     -13.135   9.862  71.334  1.00  0.00    -0.500 A  
HETATM    5  C   UNL     1     -13.856   8.740  71.739  1.00  0.00    -0.469 A  
HETATM    6  C   UNL     1     -13.337   7.470  71.518  1.00  0.00    -0.409 A  
HETATM    7  C   UNL     1     -12.108   7.329  70.874  1.00  0.00    -0.326 A  
HETATM    8  C   UNL     1     -11.374   8.446  70.450  1.00  0.00    -0.172 A  
BRANCH   8   9
HETATM    9  O   UNL     1     -10.209   8.090  69.819  1.00  0.00    -0.197 OA 
BRANCH   9  10
HETATM   10  C   UNL     1     -10.291   7.505  68.520  1.00  0.00    -0.199 C  
BRANCH  10  11
HETATM   11  C   UNL     1      -9.418   8.302  67.532  1.00  0.00    -0.149 C  
HETATM   12  H   UNL     1      -8.633   8.059  65.714  1.00  0.00     0.000 HD 
HETATM   13  O   UNL     1      -9.171   7.567  66.323  1.00  0.00    -0.174 OA 
BRANCH  11  14
HETATM   14  C   UNL     1     -10.094   9.646  67.154  1.00  0.00    -0.218 C  
BRANCH  14  15
HETATM   15  N   UNL     1      -9.466  10.366  66.028  1.00  0.00    -0.176 NA 
HETATM   16  C   UNL     1     -10.467  10.930  65.110  1.00  0.00    -0.246 C  
HETATM   17  C   UNL     1     -11.300  12.038  65.774  1.00  0.00    -0.331 C  
HETATM   18  N   UNL     1     -10.510  13.208  66.221  1.00  0.00    -0.280 NA 
HETATM   19  C   UNL     1      -9.328  12.756  66.986  1.00  0.00    -0.229 C  
HETATM   20  C   UNL     1      -8.600  11.474  66.490  1.00  0.00    -0.172 C  
BRANCH  18  21
HETATM   21  C   UNL     1     -10.155  14.070  65.065  1.00  0.00    -0.292 C  
BRANCH  21  22
HETATM   22  C   UNL     1     -10.243  15.562  65.470  1.00  0.00    -0.386 C  
HETATM   23  N   UNL     1      -9.460  15.836  66.577  1.00  0.00    -0.250 N  
HETATM   24  O   UNL     1     -10.899  16.373  64.824  1.00  0.00    -0.697 OA 
HETATM   25  H   UNL     1      -8.924  15.054  66.954  1.00  0.00     0.000 HD 
BRANCH  23  26
HETATM   26  C   UNL     1      -9.318  17.064  67.244  1.00  0.00    -0.237 A  
HETATM   27  C   UNL     1      -8.312  18.002  66.931  1.00  0.00    -0.263 A  
HETATM   28  C   UNL     1      -8.281  19.219  67.634  1.00  0.00    -0.327 A  
HETATM   29  C   UNL     1      -7.288  17.824  65.844  1.00  0.00    -0.234 C  
HETATM   30  C   UNL     1      -9.247  19.525  68.588  1.00  0.00    -0.410 A  
HETATM   31  C   UNL     1     -10.260  18.615  68.864  1.00  0.00    -0.262 A  
HETATM   32  C   UNL     1     -10.309  17.381  68.200  1.00  0.00    -0.366 A  
HETATM   33  C   UNL     1     -11.378  16.392  68.586  1.00  0.00    -0.289 C  
ENDBRANCH  23  26
ENDBRANCH  21  22
ENDBRANCH  18  21
ENDBRANCH  14  15
ENDBRANCH  11  14
ENDBRANCH  10  11
ENDBRANCH   9  10
ENDBRANCH   8   9
ENDBRANCH   2   3
TORSDOF 9
ENDMDL
MODEL       46
REMARK 921   NORMALIZED FREE ENERGY PREDICTED BY IDOCK:   -5.90 KCAL/MOL
REMARK 922        TOTAL FREE ENERGY PREDICTED BY IDOCK:  -10.10 KCAL/MOL
REMARK 923 INTER-LIGAND FREE ENERGY PREDICTED BY IDOCK:   -9.55 KCAL/MOL
REMARK 924 INTRA-LIGAND FREE ENERGY PREDICTED BY IDOCK:   -0.55 KCAL/MOL
REMARK 927      BINDING AFFINITY PREDICTED BY RF-SCORE:    0.00 PKD
ROOT
HETATM    1  C   UNL     1     -10.234   5.798  68.662  1.00  0.00    -0.197 C  
HETATM    2  O   UNL     1     -11.251   6.209  69.572  1.00  0.00    -0.389 OA 
ENDROOT
BRANCH   2   3
HETATM    3  C   UNL     1     -10.908   6.215  70.899  1.00  0.00    -0.281 A  
HETATM    4  C   UNL     1     -10.101   5.201  71.447  1.00  0.00    -0.265 A  
HETATM    5  C   UNL     1      -9.764   5.201  72.799  1.00  0.00    -0.177 A  
HETATM    6  C   UNL     1     -10.220   6.223  73.624  1.00  0.00    -0.267 A  
HETATM    7  C   UNL     1     -10.994   7.250  73.085  1.00  0.00    -0.384 A  
HETATM    8  C   UNL     1     -11.333   7.272  71.725  1.00  0.00    -0.253 A  
BRANCH   8   9
HETATM    9  O   UNL     1     -12.076   8.378  71.395  1.00  0.00    -0.291 OA 
BRANCH   9  10
HETATM   10  C   UNL     1     -11.429   9.650  71.370  1.00  0.00    -0.385 C  
BRANCH  10  11
HETATM   11  C   UNL     1     -12.270  10.648  70.552  1.00  0.00    -0.358 C  
HETATM   12  H   UNL     1     -13.487  12.192  70.893  1.00  0.00     0.000 HD 
HETATM   13  O   UNL     1     -12.969  11.576  71.397  1.00  0.00    -0.412 OA 
BRANCH  11  14
HETATM   14  C   UNL     1     -11.378  11.457  69.575  1.00  0.00    -0.289 C  
BRANCH  14  15
HETATM   15  N   UNL     1     -12.111  12.340  68.646  1.00  0.00    -0.224 NA 
HETATM   16  C   UNL     1     -12.137  13.733  69.117  1.00  0.00    -0.333 C  
HETATM   17  C   UNL     1     -10.737  14.366  69.125  1.00  0.00    -0.238 C  
HETATM   18  N   UNL     1     -10.095  14.442  67.793  1.00  0.00    -0.225 NA 
HETATM   19  C   UNL     1     -10.198  13.134  67.109  1.00  0.00    -0.244 C  
HETATM   20  C   UNL     1     -11.520  12.333  67.289  1.00  0.00    -0.357 C  
BRANCH  18  21
HETATM   21  C   UNL     1     -10.673  15.555  66.998  1.00  0.00    -0.321 C  
BRANCH  21  22
HETATM   22  C   UNL     1      -9.582  16.613  66.699  1.00  0.00    -0.263 C  
HETATM   23  N   UNL     1      -9.363  17.440  67.787  1.00  0.00    -0.252 N  
HETATM   24  O   UNL     1      -8.978  16.639  65.631  1.00  0.00    -0.463 OA 
HETATM   25  H   UNL     1      -9.908  17.236  68.624  1.00  0.00     0.000 HD 
BRANCH  23  26
HETATM   26  C   UNL     1      -8.477  18.526  67.872  1.00  0.00    -0.275 A  
HETATM   27  C   UNL     1      -7.218  18.451  68.503  1.00  0.00    -0.298 A  
HETATM   28  C   UNL     1      -6.390  19.587  68.500  1.00  0.00    -0.287 A  
HETATM   29  C   UNL     1      -6.655  17.209  69.138  1.00  0.00    -0.231 C  
HETATM   30  C   UNL     1      -6.775  20.755  67.849  1.00  0.00    -0.347 A  
HETATM   31  C   UNL     1      -7.999  20.813  67.193  1.00  0.00    -0.258 A  
HETATM   32  C   UNL     1      -8.860  19.707  67.196  1.00  0.00    -0.374 A  
HETATM   33  C   UNL     1     -10.210  19.838  66.541  1.00  0.00    -0.606 C  
ENDBRANCH  23  26
ENDBRANCH  21  22
ENDBRANCH  18  21
ENDBRANCH  14  15
ENDBRANCH  11  14
ENDBRANCH  10  11
ENDBRANCH   9  10
ENDBRANCH   8   9
ENDBRANCH   2   3
TORSDOF 9
ENDMDL
MODEL       47
REMARK 921   NORMALIZED FREE ENERGY PREDICTED BY IDOCK:   -5.89 KCAL/MOL
REMARK 922        TOTAL FREE ENERGY PREDICTED BY IDOCK:  -10.08 KCAL/MOL
REMARK 923 INTER-LIGAND FREE ENERGY PREDICTED BY IDOCK:   -9.15 KCAL/MOL
REMARK 924 INTRA-LIGAND FREE ENERGY PREDICTED BY IDOCK:   -0.93 KCAL/MOL
REMARK 927      BINDING AFFINITY PREDICTED BY RF-SCORE:    0.00 PKD
ROOT
HETATM    1  C   UNL     1      -6.388  19.252  65.077  1.00  0.00    -0.261 C  
HETATM    2  O   UNL     1      -7.331  18.246  65.433  1.00  0.00    -0.531 OA 
ENDROOT
BRANCH   2   3
HETATM    3  C   UNL     1      -8.435  18.670  66.126  1.00  0.00    -0.141 A  
HETATM    4  C   UNL     1      -8.491  19.958  66.687  1.00  0.00    -0.381 A  
HETATM    5  C   UNL     1      -9.608  20.384  67.403  1.00  0.00    -0.584 A  
HETATM    6  C   UNL     1     -10.693  19.530  67.559  1.00  0.00    -0.565 A  
HETATM    7  C   UNL     1     -10.663  18.262  66.980  1.00  0.00    -0.305 A  
HETATM    8  C   UNL     1      -9.551  17.821  66.247  1.00  0.00    -0.243 A  
BRANCH   8   9
HETATM    9  O   UNL     1      -9.733  16.558  65.743  1.00  0.00    -0.469 OA 
BRANCH   9  10
HETATM   10  C   UNL     1     -10.041  15.501  66.651  1.00  0.00    -0.267 C  
BRANCH  10  11
HETATM   11  C   UNL     1     -10.987  14.491  65.975  1.00  0.00    -0.324 C  
HETATM   12  H   UNL     1     -11.300  13.740  64.153  1.00  0.00     0.000 HD 
HETATM   13  O   UNL     1     -10.717  14.363  64.570  1.00  0.00    -0.371 OA 
BRANCH  11  14
HETATM   14  C   UNL     1     -10.859  13.089  66.625  1.00  0.00    -0.275 C  
BRANCH  14  15
HETATM   15  N   UNL     1     -10.395  13.090  68.027  1.00  0.00    -0.228 NA 
HETATM   16  C   UNL     1     -11.499  12.859  68.971  1.00  0.00    -0.308 C  
HETATM   17  C   UNL     1     -12.093  11.449  68.831  1.00  0.00    -0.219 C  
HETATM   18  N   UNL     1     -11.136  10.355  69.111  1.00  0.00    -0.234 NA 
HETATM   19  C   UNL     1      -9.873  10.589  68.376  1.00  0.00    -0.161 C  
HETATM   20  C   UNL     1      -9.365  12.056  68.273  1.00  0.00    -0.197 C  
BRANCH  18  21
HETATM   21  C   UNL     1     -10.932  10.201  70.574  1.00  0.00    -0.310 C  
BRANCH  21  22
HETATM   22  C   UNL     1     -10.100   8.927  70.861  1.00  0.00    -0.241 C  
HETATM   23  N   UNL     1     -10.847   7.778  70.666  1.00  0.00    -0.233 N  
HETATM   24  O   UNL     1      -8.914   8.980  71.170  1.00  0.00    -0.220 OA 
HETATM   25  H   UNL     1     -11.805   7.913  70.342  1.00  0.00     0.000 HD 
BRANCH  23  26
HETATM   26  C   UNL     1     -10.439   6.448  70.860  1.00  0.00    -0.228 A  
HETATM   27  C   UNL     1     -10.322   5.853  72.134  1.00  0.00    -0.241 A  
HETATM   28  C   UNL     1      -9.943   4.502  72.217  1.00  0.00    -0.239 A  
HETATM   29  C   UNL     1     -10.635   6.547  73.431  1.00  0.00    -0.309 C  
HETATM   30  C   UNL     1      -9.731   3.742  71.070  1.00  0.00    -0.248 A  
HETATM   31  C   UNL     1      -9.888   4.321  69.817  1.00  0.00    -0.258 A  
HETATM   32  C   UNL     1     -10.242   5.671  69.696  1.00  0.00    -0.321 A  
HETATM   33  C   UNL     1     -10.325   6.279  68.320  1.00  0.00    -0.233 C  
ENDBRANCH  23  26
ENDBRANCH  21  22
ENDBRANCH  18  21
ENDBRANCH  14  15
ENDBRANCH  11  14
ENDBRANCH  10  11
ENDBRANCH   9  10
ENDBRANCH   8   9
ENDBRANCH   2   3
TORSDOF 9
ENDMDL
MODEL       48
REMARK 921   NORMALIZED FREE ENERGY PREDICTED BY IDOCK:   -5.86 KCAL/MOL
REMARK 922        TOTAL FREE ENERGY PREDICTED BY IDOCK:  -10.04 KCAL/MOL
REMARK 923 INTER-LIGAND FREE ENERGY PREDICTED BY IDOCK:   -8.79 KCAL/MOL
REMARK 924 INTRA-LIGAND FREE ENERGY PREDICTED BY IDOCK:   -1.25 KCAL/MOL
REMARK 927      BINDING AFFINITY PREDICTED BY RF-SCORE:    0.00 PKD
ROOT
HETATM    1  C   UNL     1     -12.812  10.572  71.570  1.00  0.00    -0.463 C  
HETATM    2  O   UNL     1     -12.263  11.586  70.733  1.00  0.00    -0.374 OA 
ENDROOT
BRANCH   2   3
HETATM    3  C   UNL     1     -12.609  12.875  71.039  1.00  0.00    -0.287 A  
HETATM    4  C   UNL     1     -13.364  13.174  72.188  1.00  0.00    -0.621 A  
HETATM    5  C   UNL     1     -13.727  14.485  72.491  1.00  0.00    -0.580 A  
HETATM    6  C   UNL     1     -13.330  15.521  71.654  1.00  0.00    -0.585 A  
HETATM    7  C   UNL     1     -12.554  15.242  70.530  1.00  0.00    -0.450 A  
HETATM    8  C   UNL     1     -12.170  13.930  70.216  1.00  0.00    -0.358 A  
BRANCH   8   9
HETATM    9  O   UNL     1     -11.392  13.876  69.087  1.00  0.00    -0.259 OA 
BRANCH   9  10
HETATM   10  C   UNL     1     -11.705  14.748  68.002  1.00  0.00    -0.333 C  
BRANCH  10  11
HETATM   11  C   UNL     1     -11.353  14.068  66.666  1.00  0.00    -0.335 C  
HETATM   12  H   UNL     1     -11.184  14.571  64.743  1.00  0.00     0.000 HD 
HETATM   13  O   UNL     1     -11.401  14.991  65.567  1.00  0.00    -0.347 OA 
BRANCH  11  14
HETATM   14  C   UNL     1      -9.933  13.446  66.716  1.00  0.00    -0.264 C  
BRANCH  14  15
HETATM   15  N   UNL     1      -9.819  12.099  66.121  1.00  0.00    -0.233 NA 
HETATM   16  C   UNL     1      -8.640  11.376  66.621  1.00  0.00    -0.170 C  
HETATM   17  C   UNL     1      -8.751  11.056  68.120  1.00  0.00    -0.141 C  
HETATM   18  N   UNL     1      -9.893  10.183  68.473  1.00  0.00    -0.150 NA 
HETATM   19  C   UNL     1     -11.130  10.689  67.838  1.00  0.00    -0.308 C  
HETATM   20  C   UNL     1     -11.011  11.267  66.398  1.00  0.00    -0.227 C  
BRANCH  18  21
HETATM   21  C   UNL     1      -9.600   8.771  68.120  1.00  0.00    -0.146 C  
BRANCH  21  22
HETATM   22  C   UNL     1      -9.142   7.995  69.379  1.00  0.00    -0.148 C  
HETATM   23  N   UNL     1      -9.051   8.825  70.483  1.00  0.00    -0.162 N  
HETATM   24  O   UNL     1      -8.949   6.784  69.362  1.00  0.00    -0.137 OA 
HETATM   25  H   UNL     1      -9.314   9.799  70.337  1.00  0.00     0.000 HD 
BRANCH  23  26
HETATM   26  C   UNL     1      -8.639   8.482  71.781  1.00  0.00    -0.190 A  
HETATM   27  C   UNL     1      -9.515   7.972  72.762  1.00  0.00    -0.336 A  
HETATM   28  C   UNL     1      -8.993   7.624  74.020  1.00  0.00    -0.299 A  
HETATM   29  C   UNL     1     -10.980   7.710  72.544  1.00  0.00    -0.377 C  
HETATM   30  C   UNL     1      -7.632   7.730  74.289  1.00  0.00    -0.207 A  
HETATM   31  C   UNL     1      -6.765   8.195  73.306  1.00  0.00    -0.124 A  
HETATM   32  C   UNL     1      -7.254   8.573  72.048  1.00  0.00    -0.108 A  
HETATM   33  C   UNL     1      -6.293   9.145  71.039  1.00  0.00    -0.071 C  
ENDBRANCH  23  26
ENDBRANCH  21  22
ENDBRANCH  18  21
ENDBRANCH  14  15
ENDBRANCH  11  14
ENDBRANCH  10  11
ENDBRANCH   9  10
ENDBRANCH   8   9
ENDBRANCH   2   3
TORSDOF 9
ENDMDL
MODEL       49
REMARK 921   NORMALIZED FREE ENERGY PREDICTED BY IDOCK:   -5.86 KCAL/MOL
REMARK 922        TOTAL FREE ENERGY PREDICTED BY IDOCK:  -10.03 KCAL/MOL
REMARK 923 INTER-LIGAND FREE ENERGY PREDICTED BY IDOCK:   -9.15 KCAL/MOL
REMARK 924 INTRA-LIGAND FREE ENERGY PREDICTED BY IDOCK:   -0.88 KCAL/MOL
REMARK 927      BINDING AFFINITY PREDICTED BY RF-SCORE:    0.00 PKD
ROOT
HETATM    1  C   UNL     1      -5.658  20.149  64.395  1.00  0.00    -0.202 C  
HETATM    2  O   UNL     1      -5.902  18.904  65.044  1.00  0.00    -0.220 OA 
ENDROOT
BRANCH   2   3
HETATM    3  C   UNL     1      -6.405  18.974  66.317  1.00  0.00    -0.183 A  
HETATM    4  C   UNL     1      -5.705  19.637  67.340  1.00  0.00    -0.182 A  
HETATM    5  C   UNL     1      -6.211  19.696  68.638  1.00  0.00    -0.283 A  
HETATM    6  C   UNL     1      -7.432  19.101  68.929  1.00  0.00    -0.378 A  
HETATM    7  C   UNL     1      -8.151  18.469  67.916  1.00  0.00    -0.272 A  
HETATM    8  C   UNL     1      -7.662  18.409  66.602  1.00  0.00    -0.235 A  
BRANCH   8   9
HETATM    9  O   UNL     1      -8.531  17.766  65.757  1.00  0.00    -0.519 OA 
BRANCH   9  10
HETATM   10  C   UNL     1      -9.007  16.473  66.126  1.00  0.00    -0.309 C  
BRANCH  10  11
HETATM   11  C   UNL     1     -10.519  16.374  65.847  1.00  0.00    -0.337 C  
HETATM   12  H   UNL     1     -11.739  16.362  64.268  1.00  0.00     0.000 HD 
HETATM   13  O   UNL     1     -10.807  16.423  64.440  1.00  0.00    -0.732 OA 
BRANCH  11  14
HETATM   14  C   UNL     1     -11.104  15.056  66.417  1.00  0.00    -0.329 C  
BRANCH  14  15
HETATM   15  N   UNL     1     -10.255  14.377  67.417  1.00  0.00    -0.246 NA 
HETATM   16  C   UNL     1     -10.637  14.729  68.792  1.00  0.00    -0.251 C  
HETATM   17  C   UNL     1     -12.037  14.209  69.154  1.00  0.00    -0.325 C  
HETATM   18  N   UNL     1     -12.171  12.735  69.102  1.00  0.00    -0.123 NA 
HETATM   19  C   UNL     1     -11.611  12.223  67.833  1.00  0.00    -0.354 C  
HETATM   20  C   UNL     1     -10.321  12.903  67.292  1.00  0.00    -0.234 C  
BRANCH  18  21
HETATM   21  C   UNL     1     -11.552  12.112  70.299  1.00  0.00    -0.017 C  
BRANCH  21  22
HETATM   22  C   UNL     1     -11.926  10.611  70.367  1.00  0.00    -0.346 C  
HETATM   23  N   UNL     1     -10.816   9.802  70.193  1.00  0.00    -0.268 N  
HETATM   24  O   UNL     1     -13.070  10.236  70.603  1.00  0.00    -0.365 OA 
HETATM   25  H   UNL     1      -9.924  10.282  70.074  1.00  0.00     0.000 HD 
BRANCH  23  26
HETATM   26  C   UNL     1     -10.776   8.399  70.161  1.00  0.00    -0.236 A  
HETATM   27  C   UNL     1     -10.961   7.592  71.304  1.00  0.00    -0.260 A  
HETATM   28  C   UNL     1     -10.940   6.194  71.156  1.00  0.00    -0.343 A  
HETATM   29  C   UNL     1     -11.246   8.121  72.683  1.00  0.00    -0.447 C  
HETATM   30  C   UNL     1     -10.787   5.605  69.904  1.00  0.00    -0.370 A  
HETATM   31  C   UNL     1     -10.646   6.403  68.775  1.00  0.00    -0.295 A  
HETATM   32  C   UNL     1     -10.639   7.800  68.888  1.00  0.00    -0.168 A  
HETATM   33  C   UNL     1     -10.404   8.626  67.650  1.00  0.00    -0.317 C  
ENDBRANCH  23  26
ENDBRANCH  21  22
ENDBRANCH  18  21
ENDBRANCH  14  15
ENDBRANCH  11  14
ENDBRANCH  10  11
ENDBRANCH   9  10
ENDBRANCH   8   9
ENDBRANCH   2   3
TORSDOF 9
ENDMDL
MODEL       50
REMARK 921   NORMALIZED FREE ENERGY PREDICTED BY IDOCK:   -5.85 KCAL/MOL
REMARK 922        TOTAL FREE ENERGY PREDICTED BY IDOCK:  -10.02 KCAL/MOL
REMARK 923 INTER-LIGAND FREE ENERGY PREDICTED BY IDOCK:   -8.81 KCAL/MOL
REMARK 924 INTRA-LIGAND FREE ENERGY PREDICTED BY IDOCK:   -1.21 KCAL/MOL
REMARK 927      BINDING AFFINITY PREDICTED BY RF-SCORE:    0.00 PKD
ROOT
HETATM    1  C   UNL     1      -9.299  15.076  66.088  1.00  0.00    -0.292 C  
HETATM    2  O   UNL     1      -9.454  13.660  66.094  1.00  0.00    -0.241 OA 
ENDROOT
BRANCH   2   3
HETATM    3  C   UNL     1     -10.395  13.151  65.239  1.00  0.00    -0.305 A  
HETATM    4  C   UNL     1     -11.622  13.808  65.032  1.00  0.00    -0.350 A  
HETATM    5  C   UNL     1     -12.584  13.283  64.172  1.00  0.00    -0.231 A  
HETATM    6  C   UNL     1     -12.330  12.096  63.495  1.00  0.00    -0.682 A  
HETATM    7  C   UNL     1     -11.105  11.453  63.666  1.00  0.00    -0.411 A  
HETATM    8  C   UNL     1     -10.121  11.973  64.519  1.00  0.00    -0.265 A  
BRANCH   8   9
HETATM    9  O   UNL     1      -8.985  11.203  64.527  1.00  0.00    -0.118 OA 
BRANCH   9  10
HETATM   10  C   UNL     1      -9.066   9.866  64.035  1.00  0.00    -0.259 C  
BRANCH  10  11
HETATM   11  C   UNL     1      -7.913   9.025  64.616  1.00  0.00    -0.128 C  
HETATM   12  H   UNL     1      -6.185   9.331  65.565  1.00  0.00     0.000 HD 
HETATM   13  O   UNL     1      -6.896   9.849  65.207  1.00  0.00    -0.100 OA 
BRANCH  11  14
HETATM   14  C   UNL     1      -8.433   8.044  65.699  1.00  0.00    -0.149 C  
BRANCH  14  15
HETATM   15  N   UNL     1      -9.743   8.395  66.283  1.00  0.00    -0.233 NA 
HETATM   16  C   UNL     1     -10.441   7.215  66.814  1.00  0.00    -0.230 C  
HETATM   17  C   UNL     1      -9.707   6.602  68.017  1.00  0.00    -0.123 C  
HETATM   18  N   UNL     1      -9.582   7.509  69.181  1.00  0.00    -0.157 NA 
HETATM   19  C   UNL     1      -9.086   8.831  68.739  1.00  0.00    -0.138 C  
HETATM   20  C   UNL     1      -9.615   9.378  67.382  1.00  0.00    -0.145 C  
BRANCH  18  21
HETATM   21  C   UNL     1     -10.869   7.593  69.917  1.00  0.00    -0.235 C  
BRANCH  21  22
HETATM   22  C   UNL     1     -10.940   8.922  70.709  1.00  0.00    -0.253 C  
HETATM   23  N   UNL     1     -11.944   9.746  70.231  1.00  0.00    -0.452 N  
HETATM   24  O   UNL     1     -10.209   9.147  71.668  1.00  0.00    -0.336 OA 
HETATM   25  H   UNL     1     -12.505   9.373  69.465  1.00  0.00     0.000 HD 
BRANCH  23  26
HETATM   26  C   UNL     1     -12.281  11.034  70.677  1.00  0.00    -0.385 A  
HETATM   27  C   UNL     1     -11.799  12.213  70.071  1.00  0.00    -0.383 A  
HETATM   28  C   UNL     1     -12.228  13.455  70.572  1.00  0.00    -0.425 A  
HETATM   29  C   UNL     1     -10.893  12.247  68.871  1.00  0.00    -0.238 C  
HETATM   30  C   UNL     1     -13.147  13.532  71.614  1.00  0.00    -0.459 A  
HETATM   31  C   UNL     1     -13.651  12.368  72.182  1.00  0.00    -0.405 A  
HETATM   32  C   UNL     1     -13.227  11.112  71.724  1.00  0.00    -0.486 A  
HETATM   33  C   UNL     1     -13.738   9.877  72.418  1.00  0.00    -0.188 C  
ENDBRANCH  23  26
ENDBRANCH  21  22
ENDBRANCH  18  21
ENDBRANCH  14  15
ENDBRANCH  11  14
ENDBRANCH  10  11
ENDBRANCH   9  10
ENDBRANCH   8   9
ENDBRANCH   2   3
TORSDOF 9
ENDMDL
MODEL       51
REMARK 921   NORMALIZED FREE ENERGY PREDICTED BY IDOCK:   -5.85 KCAL/MOL
REMARK 922        TOTAL FREE ENERGY PREDICTED BY IDOCK:  -10.02 KCAL/MOL
REMARK 923 INTER-LIGAND FREE ENERGY PREDICTED BY IDOCK:   -9.32 KCAL/MOL
REMARK 924 INTRA-LIGAND FREE ENERGY PREDICTED BY IDOCK:   -0.70 KCAL/MOL
REMARK 927      BINDING AFFINITY PREDICTED BY RF-SCORE:    0.00 PKD
ROOT
HETATM    1  C   UNL     1      -6.479  17.818  65.955  1.00  0.00    -0.259 C  
HETATM    2  O   UNL     1      -7.652  18.391  65.384  1.00  0.00    -0.442 OA 
ENDROOT
BRANCH   2   3
HETATM    3  C   UNL     1      -8.552  18.930  66.265  1.00  0.00    -0.257 A  
HETATM    4  C   UNL     1      -8.197  20.003  67.103  1.00  0.00    -0.365 A  
HETATM    5  C   UNL     1      -9.109  20.542  68.008  1.00  0.00    -0.071 A  
HETATM    6  C   UNL     1     -10.397  20.024  68.080  1.00  0.00    -0.503 A  
HETATM    7  C   UNL     1     -10.771  18.983  67.232  1.00  0.00    -0.556 A  
HETATM    8  C   UNL     1      -9.869  18.435  66.307  1.00  0.00    -0.331 A  
BRANCH   8   9
HETATM    9  O   UNL     1     -10.441  17.441  65.554  1.00  0.00    -0.624 OA 
BRANCH   9  10
HETATM   10  C   UNL     1      -9.859  16.139  65.592  1.00  0.00    -0.255 C  
BRANCH  10  11
HETATM   11  C   UNL     1     -10.958  15.081  65.809  1.00  0.00    -0.350 C  
HETATM   12  H   UNL     1     -12.453  14.260  64.774  1.00  0.00     0.000 HD 
HETATM   13  O   UNL     1     -11.775  14.912  64.640  1.00  0.00    -0.409 OA 
BRANCH  11  14
HETATM   14  C   UNL     1     -10.341  13.706  66.174  1.00  0.00    -0.297 C  
BRANCH  14  15
HETATM   15  N   UNL     1     -11.305  12.590  66.250  1.00  0.00    -0.319 NA 
HETATM   16  C   UNL     1     -10.742  11.341  65.716  1.00  0.00    -0.223 C  
HETATM   17  C   UNL     1      -9.578  10.819  66.574  1.00  0.00    -0.183 C  
HETATM   18  N   UNL     1      -9.951  10.487  67.968  1.00  0.00    -0.153 NA 
HETATM   19  C   UNL     1     -10.729  11.597  68.559  1.00  0.00    -0.218 C  
HETATM   20  C   UNL     1     -11.746  12.330  67.638  1.00  0.00    -0.334 C  
BRANCH  18  21
HETATM   21  C   UNL     1     -10.667   9.188  68.021  1.00  0.00    -0.147 C  
BRANCH  21  22
HETATM   22  C   UNL     1     -10.056   8.291  69.126  1.00  0.00    -0.202 C  
HETATM   23  N   UNL     1     -10.978   7.379  69.609  1.00  0.00    -0.377 N  
HETATM   24  O   UNL     1      -8.879   8.382  69.459  1.00  0.00    -0.142 OA 
HETATM   25  H   UNL     1     -11.899   7.395  69.171  1.00  0.00     0.000 HD 
BRANCH  23  26
HETATM   26  C   UNL     1     -10.793   6.433  70.630  1.00  0.00    -0.276 A  
HETATM   27  C   UNL     1     -10.104   5.216  70.443  1.00  0.00    -0.333 A  
HETATM   28  C   UNL     1      -9.941   4.355  71.543  1.00  0.00    -0.250 A  
HETATM   29  C   UNL     1      -9.466   4.787  69.150  1.00  0.00    -0.215 C  
HETATM   30  C   UNL     1     -10.404   4.707  72.807  1.00  0.00    -0.244 A  
HETATM   31  C   UNL     1     -11.046   5.925  72.996  1.00  0.00    -0.289 A  
HETATM   32  C   UNL     1     -11.247   6.798  71.918  1.00  0.00    -0.294 A  
HETATM   33  C   UNL     1     -12.016   8.072  72.151  1.00  0.00    -0.399 C  
ENDBRANCH  23  26
ENDBRANCH  21  22
ENDBRANCH  18  21
ENDBRANCH  14  15
ENDBRANCH  11  14
ENDBRANCH  10  11
ENDBRANCH   9  10
ENDBRANCH   8   9
ENDBRANCH   2   3
TORSDOF 9
ENDMDL
MODEL       52
REMARK 921   NORMALIZED FREE ENERGY PREDICTED BY IDOCK:   -5.84 KCAL/MOL
REMARK 922        TOTAL FREE ENERGY PREDICTED BY IDOCK:  -10.01 KCAL/MOL
REMARK 923 INTER-LIGAND FREE ENERGY PREDICTED BY IDOCK:   -8.96 KCAL/MOL
REMARK 924 INTRA-LIGAND FREE ENERGY PREDICTED BY IDOCK:   -1.06 KCAL/MOL
REMARK 927      BINDING AFFINITY PREDICTED BY RF-SCORE:    0.00 PKD
ROOT
HETATM    1  C   UNL     1      -7.475   8.764  71.355  1.00  0.00    -0.101 C  
HETATM    2  O   UNL     1      -8.648   9.207  70.677  1.00  0.00    -0.189 OA 
ENDROOT
BRANCH   2   3
HETATM    3  C   UNL     1      -9.806   8.538  70.973  1.00  0.00    -0.195 A  
HETATM    4  C   UNL     1     -10.399   8.636  72.244  1.00  0.00    -0.376 A  
HETATM    5  C   UNL     1     -11.570   7.944  72.548  1.00  0.00    -0.443 A  
HETATM    6  C   UNL     1     -12.174   7.152  71.579  1.00  0.00    -0.396 A  
HETATM    7  C   UNL     1     -11.614   7.073  70.305  1.00  0.00    -0.309 A  
HETATM    8  C   UNL     1     -10.442   7.771  69.978  1.00  0.00    -0.230 A  
BRANCH   8   9
HETATM    9  O   UNL     1     -10.073   7.577  68.671  1.00  0.00    -0.174 OA 
BRANCH   9  10
HETATM   10  C   UNL     1     -10.637   8.427  67.672  1.00  0.00    -0.195 C  
BRANCH  10  11
HETATM   11  C   UNL     1      -9.729   9.652  67.455  1.00  0.00    -0.158 C  
HETATM   12  H   UNL     1      -7.865  10.029  66.851  1.00  0.00     0.000 HD 
HETATM   13  O   UNL     1      -8.425   9.274  66.985  1.00  0.00    -0.122 OA 
BRANCH  11  14
HETATM   14  C   UNL     1     -10.352  10.630  66.426  1.00  0.00    -0.231 C  
BRANCH  14  15
HETATM   15  N   UNL     1     -11.501  11.412  66.924  1.00  0.00    -0.466 NA 
HETATM   16  C   UNL     1     -11.177  12.139  68.160  1.00  0.00    -0.267 C  
HETATM   17  C   UNL     1     -10.122  13.232  67.927  1.00  0.00    -0.235 C  
HETATM   18  N   UNL     1     -10.540  14.289  66.978  1.00  0.00    -0.278 NA 
HETATM   19  C   UNL     1     -11.101  13.676  65.755  1.00  0.00    -0.287 C  
HETATM   20  C   UNL     1     -11.974  12.400  65.928  1.00  0.00    -0.367 C  
BRANCH  18  21
HETATM   21  C   UNL     1     -11.479  15.235  67.632  1.00  0.00    -0.280 C  
BRANCH  21  22
HETATM   22  C   UNL     1     -10.691  16.395  68.290  1.00  0.00    -0.337 C  
HETATM   23  N   UNL     1      -9.851  17.017  67.383  1.00  0.00    -0.256 N  
HETATM   24  O   UNL     1     -10.865  16.717  69.461  1.00  0.00    -0.321 OA 
HETATM   25  H   UNL     1      -9.878  16.662  66.427  1.00  0.00     0.000 HD 
BRANCH  23  26
HETATM   26  C   UNL     1      -8.964  18.079  67.626  1.00  0.00    -0.251 A  
HETATM   27  C   UNL     1      -7.788  17.946  68.393  1.00  0.00    -0.288 A  
HETATM   28  C   UNL     1      -6.948  19.063  68.544  1.00  0.00    -0.304 A  
HETATM   29  C   UNL     1      -7.323  16.662  69.024  1.00  0.00    -0.228 C  
HETATM   30  C   UNL     1      -7.236  20.270  67.913  1.00  0.00    -0.319 A  
HETATM   31  C   UNL     1      -8.375  20.385  67.124  1.00  0.00    -0.382 A  
HETATM   32  C   UNL     1      -9.247  19.299  66.971  1.00  0.00    -0.357 A  
HETATM   33  C   UNL     1     -10.510  19.490  66.172  1.00  0.00    -0.613 C  
ENDBRANCH  23  26
ENDBRANCH  21  22
ENDBRANCH  18  21
ENDBRANCH  14  15
ENDBRANCH  11  14
ENDBRANCH  10  11
ENDBRANCH   9  10
ENDBRANCH   8   9
ENDBRANCH   2   3
TORSDOF 9
ENDMDL
MODEL       53
REMARK 921   NORMALIZED FREE ENERGY PREDICTED BY IDOCK:   -5.84 KCAL/MOL
REMARK 922        TOTAL FREE ENERGY PREDICTED BY IDOCK:  -10.01 KCAL/MOL
REMARK 923 INTER-LIGAND FREE ENERGY PREDICTED BY IDOCK:   -8.43 KCAL/MOL
REMARK 924 INTRA-LIGAND FREE ENERGY PREDICTED BY IDOCK:   -1.58 KCAL/MOL
REMARK 927      BINDING AFFINITY PREDICTED BY RF-SCORE:    0.00 PKD
ROOT
HETATM    1  C   UNL     1     -12.360  15.450  69.774  1.00  0.00    -0.255 C  
HETATM    2  O   UNL     1     -11.144  15.478  69.032  1.00  0.00    -0.235 OA 
ENDROOT
BRANCH   2   3
HETATM    3  C   UNL     1     -11.249  15.234  67.688  1.00  0.00    -0.320 A  
HETATM    4  C   UNL     1     -12.039  14.178  67.200  1.00  0.00    -0.432 A  
HETATM    5  C   UNL     1     -12.135  13.923  65.833  1.00  0.00    -0.459 A  
HETATM    6  C   UNL     1     -11.450  14.729  64.931  1.00  0.00    -0.412 A  
HETATM    7  C   UNL     1     -10.690  15.799  65.401  1.00  0.00    -0.420 A  
HETATM    8  C   UNL     1     -10.591  16.077  66.773  1.00  0.00    -0.297 A  
BRANCH   8   9
HETATM    9  O   UNL     1      -9.818  17.183  67.021  1.00  0.00    -0.258 OA 
BRANCH   9  10
HETATM   10  C   UNL     1      -8.543  17.278  66.387  1.00  0.00    -0.259 C  
BRANCH  10  11
HETATM   11  C   UNL     1      -7.457  16.688  67.307  1.00  0.00    -0.166 C  
HETATM   12  H   UNL     1      -7.082  16.552  69.262  1.00  0.00     0.000 HD 
HETATM   13  O   UNL     1      -7.751  16.915  68.695  1.00  0.00    -0.212 OA 
BRANCH  11  14
HETATM   14  C   UNL     1      -7.311  15.161  67.085  1.00  0.00    -0.110 C  
BRANCH  14  15
HETATM   15  N   UNL     1      -6.950  14.386  68.290  1.00  0.00    -0.101 NA 
HETATM   16  C   UNL     1      -8.124  13.745  68.901  1.00  0.00     0.059 C  
HETATM   17  C   UNL     1      -8.730  12.663  67.994  1.00  0.00    -0.190 C  
HETATM   18  N   UNL     1      -7.814  11.540  67.691  1.00  0.00    -0.119 NA 
HETATM   19  C   UNL     1      -6.498  12.063  67.265  1.00  0.00    -0.149 C  
HETATM   20  C   UNL     1      -5.959  13.327  67.994  1.00  0.00    -0.122 C  
BRANCH  18  21
HETATM   21  C   UNL     1      -7.720  10.616  68.850  1.00  0.00    -0.121 C  
BRANCH  21  22
HETATM   22  C   UNL     1      -9.084   9.920  69.084  1.00  0.00    -0.173 C  
HETATM   23  N   UNL     1      -9.580  10.187  70.348  1.00  0.00    -0.322 N  
HETATM   24  O   UNL     1      -9.640   9.268  68.206  1.00  0.00    -0.144 OA 
HETATM   25  H   UNL     1      -9.018  10.806  70.931  1.00  0.00     0.000 HD 
BRANCH  23  26
HETATM   26  C   UNL     1     -10.768   9.703  70.921  1.00  0.00    -0.332 A  
HETATM   27  C   UNL     1     -10.825   8.541  71.719  1.00  0.00    -0.374 A  
HETATM   28  C   UNL     1     -12.058   8.164  72.278  1.00  0.00    -0.419 A  
HETATM   29  C   UNL     1      -9.635   7.692  72.075  1.00  0.00    -0.200 C  
HETATM   30  C   UNL     1     -13.199   8.940  72.095  1.00  0.00    -0.478 A  
HETATM   31  C   UNL     1     -13.130  10.106  71.342  1.00  0.00    -0.512 A  
HETATM   32  C   UNL     1     -11.922  10.500  70.750  1.00  0.00    -0.472 A  
HETATM   33  C   UNL     1     -11.909  11.728  69.877  1.00  0.00    -0.423 C  
ENDBRANCH  23  26
ENDBRANCH  21  22
ENDBRANCH  18  21
ENDBRANCH  14  15
ENDBRANCH  11  14
ENDBRANCH  10  11
ENDBRANCH   9  10
ENDBRANCH   8   9
ENDBRANCH   2   3
TORSDOF 9
ENDMDL
MODEL       54
REMARK 921   NORMALIZED FREE ENERGY PREDICTED BY IDOCK:   -5.83 KCAL/MOL
REMARK 922        TOTAL FREE ENERGY PREDICTED BY IDOCK:   -9.99 KCAL/MOL
REMARK 923 INTER-LIGAND FREE ENERGY PREDICTED BY IDOCK:   -8.36 KCAL/MOL
REMARK 924 INTRA-LIGAND FREE ENERGY PREDICTED BY IDOCK:   -1.63 KCAL/MOL
REMARK 927      BINDING AFFINITY PREDICTED BY RF-SCORE:    0.00 PKD
ROOT
HETATM    1  C   UNL     1     -10.337   5.381  68.530  1.00  0.00    -0.149 C  
HETATM    2  O   UNL     1     -10.632   4.973  69.862  1.00  0.00    -0.237 OA 
ENDROOT
BRANCH   2   3
HETATM    3  C   UNL     1     -10.681   5.968  70.803  1.00  0.00    -0.276 A  
HETATM    4  C   UNL     1     -11.894   6.602  71.129  1.00  0.00    -0.414 A  
HETATM    5  C   UNL     1     -11.940   7.623  72.076  1.00  0.00    -0.341 A  
HETATM    6  C   UNL     1     -10.775   8.019  72.722  1.00  0.00    -0.431 A  
HETATM    7  C   UNL     1      -9.573   7.375  72.431  1.00  0.00    -0.192 A  
HETATM    8  C   UNL     1      -9.509   6.338  71.489  1.00  0.00    -0.151 A  
BRANCH   8   9
HETATM    9  O   UNL     1      -8.242   5.826  71.369  1.00  0.00    -0.122 OA 
BRANCH   9  10
HETATM   10  C   UNL     1      -7.132   6.704  71.553  1.00  0.00    -0.080 C  
BRANCH  10  11
HETATM   11  C   UNL     1      -6.486   7.020  70.191  1.00  0.00    -0.039 C  
HETATM   12  H   UNL     1      -6.609   6.379  68.305  1.00  0.00     0.000 HD 
HETATM   13  O   UNL     1      -7.008   6.185  69.145  1.00  0.00    -0.063 OA 
BRANCH  11  14
HETATM   14  C   UNL     1      -6.722   8.500  69.794  1.00  0.00    -0.039 C  
BRANCH  14  15
HETATM   15  N   UNL     1      -7.524   8.699  68.569  1.00  0.00    -0.092 NA 
HETATM   16  C   UNL     1      -8.965   8.734  68.857  1.00  0.00    -0.134 C  
HETATM   17  C   UNL     1      -9.357   9.958  69.699  1.00  0.00    -0.228 C  
HETATM   18  N   UNL     1      -9.081  11.258  69.046  1.00  0.00    -0.046 NA 
HETATM   19  C   UNL     1      -7.703  11.270  68.509  1.00  0.00    -0.131 C  
HETATM   20  C   UNL     1      -7.170   9.955  67.871  1.00  0.00    -0.087 C  
BRANCH  18  21
HETATM   21  C   UNL     1     -10.106  11.552  68.012  1.00  0.00    -0.186 C  
BRANCH  21  22
HETATM   22  C   UNL     1     -11.449  11.921  68.689  1.00  0.00    -0.294 C  
HETATM   23  N   UNL     1     -11.282  12.905  69.648  1.00  0.00    -0.475 N  
HETATM   24  O   UNL     1     -12.512  11.414  68.344  1.00  0.00    -0.379 OA 
HETATM   25  H   UNL     1     -10.335  13.266  69.762  1.00  0.00     0.000 HD 
BRANCH  23  26
HETATM   26  C   UNL     1     -12.264  13.464  70.482  1.00  0.00    -0.352 A  
HETATM   27  C   UNL     1     -12.966  12.722  71.455  1.00  0.00    -0.388 A  
HETATM   28  C   UNL     1     -13.903  13.387  72.266  1.00  0.00    -0.671 A  
HETATM   29  C   UNL     1     -12.743  11.263  71.740  1.00  0.00    -0.379 C  
HETATM   30  C   UNL     1     -14.108  14.758  72.152  1.00  0.00    -0.604 A  
HETATM   31  C   UNL     1     -13.385  15.493  71.220  1.00  0.00    -0.588 A  
HETATM   32  C   UNL     1     -12.460  14.860  70.379  1.00  0.00    -0.403 A  
HETATM   33  C   UNL     1     -11.755  15.679  69.329  1.00  0.00    -0.388 C  
ENDBRANCH  23  26
ENDBRANCH  21  22
ENDBRANCH  18  21
ENDBRANCH  14  15
ENDBRANCH  11  14
ENDBRANCH  10  11
ENDBRANCH   9  10
ENDBRANCH   8   9
ENDBRANCH   2   3
TORSDOF 9
ENDMDL
MODEL       55
REMARK 921   NORMALIZED FREE ENERGY PREDICTED BY IDOCK:   -5.82 KCAL/MOL
REMARK 922        TOTAL FREE ENERGY PREDICTED BY IDOCK:   -9.98 KCAL/MOL
REMARK 923 INTER-LIGAND FREE ENERGY PREDICTED BY IDOCK:   -9.17 KCAL/MOL
REMARK 924 INTRA-LIGAND FREE ENERGY PREDICTED BY IDOCK:   -0.82 KCAL/MOL
REMARK 927      BINDING AFFINITY PREDICTED BY RF-SCORE:    0.00 PKD
ROOT
HETATM    1  C   UNL     1      -6.285  21.302  67.305  1.00  0.00    -0.351 C  
HETATM    2  O   UNL     1      -6.957  20.356  68.131  1.00  0.00    -0.289 OA 
ENDROOT
BRANCH   2   3
HETATM    3  C   UNL     1      -6.682  19.036  67.885  1.00  0.00    -0.219 A  
HETATM    4  C   UNL     1      -5.746  18.330  68.662  1.00  0.00    -0.182 A  
HETATM    5  C   UNL     1      -5.458  16.992  68.403  1.00  0.00    -0.131 A  
HETATM    6  C   UNL     1      -6.111  16.334  67.368  1.00  0.00    -0.197 A  
HETATM    7  C   UNL     1      -7.066  17.013  66.612  1.00  0.00    -0.289 A  
HETATM    8  C   UNL     1      -7.376  18.357  66.866  1.00  0.00    -0.208 A  
BRANCH   8   9
HETATM    9  O   UNL     1      -8.355  18.829  66.028  1.00  0.00    -0.468 OA 
BRANCH   9  10
HETATM   10  C   UNL     1      -9.708  18.455  66.284  1.00  0.00    -0.294 C  
BRANCH  10  11
HETATM   11  C   UNL     1      -9.973  18.462  67.802  1.00  0.00    -0.346 C  
HETATM   12  H   UNL     1     -10.750  19.692  69.167  1.00  0.00     0.000 HD 
HETATM   13  O   UNL     1     -10.586  19.688  68.232  1.00  0.00    -0.390 OA 
BRANCH  11  14
HETATM   14  C   UNL     1     -10.898  17.287  68.210  1.00  0.00    -0.287 C  
BRANCH  14  15
HETATM   15  N   UNL     1     -10.358  16.402  69.262  1.00  0.00    -0.274 NA 
HETATM   16  C   UNL     1     -11.378  16.051  70.261  1.00  0.00    -0.382 C  
HETATM   17  C   UNL     1     -12.500  15.188  69.662  1.00  0.00    -0.136 C  
HETATM   18  N   UNL     1     -12.046  13.884  69.126  1.00  0.00    -0.356 NA 
HETATM   19  C   UNL     1     -10.862  14.080  68.261  1.00  0.00    -0.255 C  
HETATM   20  C   UNL     1      -9.817  15.142  68.705  1.00  0.00    -0.223 C  
BRANCH  18  21
HETATM   21  C   UNL     1     -11.800  12.924  70.231  1.00  0.00    -0.213 C  
BRANCH  21  22
HETATM   22  C   UNL     1     -11.939  11.472  69.711  1.00  0.00    -0.346 C  
HETATM   23  N   UNL     1     -11.468  10.554  70.634  1.00  0.00    -0.336 N  
HETATM   24  O   UNL     1     -12.460  11.216  68.630  1.00  0.00    -0.463 OA 
HETATM   25  H   UNL     1     -11.127  10.936  71.516  1.00  0.00     0.000 HD 
BRANCH  23  26
HETATM   26  C   UNL     1     -11.404   9.158  70.497  1.00  0.00    -0.257 A  
HETATM   27  C   UNL     1     -10.414   8.499  69.737  1.00  0.00    -0.220 A  
HETATM   28  C   UNL     1     -10.416   7.094  69.696  1.00  0.00    -0.241 A  
HETATM   29  C   UNL     1      -9.300   9.193  69.004  1.00  0.00    -0.151 C  
HETATM   30  C   UNL     1     -11.342   6.354  70.425  1.00  0.00    -0.453 A  
HETATM   31  C   UNL     1     -12.291   7.005  71.205  1.00  0.00    -0.423 A  
HETATM   32  C   UNL     1     -12.333   8.406  71.251  1.00  0.00    -0.289 A  
HETATM   33  C   UNL     1     -13.426   9.072  72.045  1.00  0.00    -0.498 C  
ENDBRANCH  23  26
ENDBRANCH  21  22
ENDBRANCH  18  21
ENDBRANCH  14  15
ENDBRANCH  11  14
ENDBRANCH  10  11
ENDBRANCH   9  10
ENDBRANCH   8   9
ENDBRANCH   2   3
TORSDOF 9
ENDMDL
MODEL       56
REMARK 921   NORMALIZED FREE ENERGY PREDICTED BY IDOCK:   -5.82 KCAL/MOL
REMARK 922        TOTAL FREE ENERGY PREDICTED BY IDOCK:   -9.98 KCAL/MOL
REMARK 923 INTER-LIGAND FREE ENERGY PREDICTED BY IDOCK:   -8.52 KCAL/MOL
REMARK 924 INTRA-LIGAND FREE ENERGY PREDICTED BY IDOCK:   -1.47 KCAL/MOL
REMARK 927      BINDING AFFINITY PREDICTED BY RF-SCORE:    0.00 PKD
ROOT
HETATM    1  C   UNL     1     -11.018  12.958  68.333  1.00  0.00    -0.258 C  
HETATM    2  O   UNL     1     -11.441  11.881  67.501  1.00  0.00    -0.301 OA 
ENDROOT
BRANCH   2   3
HETATM    3  C   UNL     1     -11.508  12.144  66.158  1.00  0.00    -0.371 A  
HETATM    4  C   UNL     1     -12.396  13.108  65.648  1.00  0.00    -0.519 A  
HETATM    5  C   UNL     1     -12.472  13.365  64.281  1.00  0.00    -0.321 A  
HETATM    6  C   UNL     1     -11.651  12.669  63.402  1.00  0.00    -0.536 A  
HETATM    7  C   UNL     1     -10.743  11.735  63.898  1.00  0.00    -0.457 A  
HETATM    8  C   UNL     1     -10.645  11.472  65.272  1.00  0.00    -0.283 A  
BRANCH   8   9
HETATM    9  O   UNL     1      -9.676  10.541  65.552  1.00  0.00    -0.208 OA 
BRANCH   9  10
HETATM   10  C   UNL     1      -9.109   9.803  64.470  1.00  0.00    -0.249 C  
BRANCH  10  11
HETATM   11  C   UNL     1      -7.633   9.484  64.773  1.00  0.00    -0.112 C  
HETATM   12  H   UNL     1      -5.918   9.299  63.769  1.00  0.00     0.000 HD 
HETATM   13  O   UNL     1      -6.829   9.496  63.582  1.00  0.00    -0.097 OA 
BRANCH  11  14
HETATM   14  C   UNL     1      -7.037  10.508  65.772  1.00  0.00    -0.124 C  
BRANCH  14  15
HETATM   15  N   UNL     1      -6.381   9.917  66.957  1.00  0.00    -0.064 NA 
HETATM   16  C   UNL     1      -6.526  10.768  68.147  1.00  0.00    -0.058 C  
HETATM   17  C   UNL     1      -7.989  10.872  68.608  1.00  0.00    -0.140 C  
HETATM   18  N   UNL     1      -8.595   9.581  69.004  1.00  0.00    -0.128 NA 
HETATM   19  C   UNL     1      -8.325   8.559  67.970  1.00  0.00    -0.127 C  
HETATM   20  C   UNL     1      -6.928   8.582  67.286  1.00  0.00    -0.075 C  
BRANCH  18  21
HETATM   21  C   UNL     1      -8.123   9.175  70.353  1.00  0.00    -0.152 C  
BRANCH  21  22
HETATM   22  C   UNL     1      -9.335   8.890  71.274  1.00  0.00    -0.266 C  
HETATM   23  N   UNL     1     -10.503   8.742  70.546  1.00  0.00    -0.201 N  
HETATM   24  O   UNL     1      -9.214   8.767  72.488  1.00  0.00    -0.347 OA 
HETATM   25  H   UNL     1     -10.414   8.810  69.532  1.00  0.00     0.000 HD 
BRANCH  23  26
HETATM   26  C   UNL     1     -11.797   8.509  71.040  1.00  0.00    -0.257 A  
HETATM   27  C   UNL     1     -12.716   9.542  71.321  1.00  0.00    -0.416 A  
HETATM   28  C   UNL     1     -14.001   9.199  71.777  1.00  0.00    -0.372 A  
HETATM   29  C   UNL     1     -12.444  11.006  71.109  1.00  0.00    -0.502 C  
HETATM   30  C   UNL     1     -14.387   7.869  71.907  1.00  0.00    -0.549 A  
HETATM   31  C   UNL     1     -13.492   6.853  71.591  1.00  0.00    -0.284 A  
HETATM   32  C   UNL     1     -12.195   7.158  71.156  1.00  0.00    -0.405 A  
HETATM   33  C   UNL     1     -11.232   6.028  70.900  1.00  0.00    -0.335 C  
ENDBRANCH  23  26
ENDBRANCH  21  22
ENDBRANCH  18  21
ENDBRANCH  14  15
ENDBRANCH  11  14
ENDBRANCH  10  11
ENDBRANCH   9  10
ENDBRANCH   8   9
ENDBRANCH   2   3
TORSDOF 9
ENDMDL
MODEL       57
REMARK 921   NORMALIZED FREE ENERGY PREDICTED BY IDOCK:   -5.81 KCAL/MOL
REMARK 922        TOTAL FREE ENERGY PREDICTED BY IDOCK:   -9.96 KCAL/MOL
REMARK 923 INTER-LIGAND FREE ENERGY PREDICTED BY IDOCK:   -9.08 KCAL/MOL
REMARK 924 INTRA-LIGAND FREE ENERGY PREDICTED BY IDOCK:   -0.88 KCAL/MOL
REMARK 927      BINDING AFFINITY PREDICTED BY RF-SCORE:    0.00 PKD
ROOT
HETATM    1  C   UNL     1      -8.600   3.679  66.523  1.00  0.00    -0.115 C  
HETATM    2  O   UNL     1      -9.535   4.740  66.691  1.00  0.00    -0.134 OA 
ENDROOT
BRANCH   2   3
HETATM    3  C   UNL     1      -9.919   5.010  67.978  1.00  0.00    -0.130 A  
HETATM    4  C   UNL     1      -9.492   4.203  69.049  1.00  0.00    -0.244 A  
HETATM    5  C   UNL     1      -9.893   4.470  70.357  1.00  0.00    -0.302 A  
HETATM    6  C   UNL     1     -10.720   5.557  70.616  1.00  0.00    -0.303 A  
HETATM    7  C   UNL     1     -11.123   6.383  69.568  1.00  0.00    -0.460 A  
HETATM    8  C   UNL     1     -10.720   6.136  68.247  1.00  0.00    -0.290 A  
BRANCH   8   9
HETATM    9  O   UNL     1     -11.205   7.077  67.374  1.00  0.00    -0.241 OA 
BRANCH   9  10
HETATM   10  C   UNL     1     -10.309   8.071  66.879  1.00  0.00    -0.338 C  
BRANCH  10  11
HETATM   11  C   UNL     1     -10.450   9.361  67.709  1.00  0.00    -0.254 C  
HETATM   12  H   UNL     1      -9.425  10.343  69.112  1.00  0.00     0.000 HD 
HETATM   13  O   UNL     1      -9.338   9.548  68.600  1.00  0.00    -0.140 OA 
BRANCH  11  14
HETATM   14  C   UNL     1     -10.550  10.605  66.789  1.00  0.00    -0.237 C  
BRANCH  14  15
HETATM   15  N   UNL     1     -11.678  11.512  67.084  1.00  0.00    -0.577 NA 
HETATM   16  C   UNL     1     -11.514  12.189  68.379  1.00  0.00    -0.304 C  
HETATM   17  C   UNL     1     -10.319  13.155  68.378  1.00  0.00    -0.253 C  
HETATM   18  N   UNL     1     -10.428  14.259  67.397  1.00  0.00    -0.263 NA 
HETATM   19  C   UNL     1     -10.813  13.721  66.074  1.00  0.00    -0.282 C  
HETATM   20  C   UNL     1     -11.840  12.553  66.046  1.00  0.00    -0.418 C  
BRANCH  18  21
HETATM   21  C   UNL     1     -11.363  15.303  67.889  1.00  0.00    -0.334 C  
BRANCH  21  22
HETATM   22  C   UNL     1     -10.566  16.526  68.407  1.00  0.00    -0.323 C  
HETATM   23  N   UNL     1      -9.730  17.037  67.430  1.00  0.00    -0.247 N  
HETATM   24  O   UNL     1     -10.731  16.979  69.535  1.00  0.00    -0.313 OA 
HETATM   25  H   UNL     1      -9.765  16.577  66.521  1.00  0.00     0.000 HD 
BRANCH  23  26
HETATM   26  C   UNL     1      -8.838  18.116  67.546  1.00  0.00    -0.256 A  
HETATM   27  C   UNL     1      -9.177  19.441  67.201  1.00  0.00    -0.375 A  
HETATM   28  C   UNL     1      -8.222  20.456  67.391  1.00  0.00    -0.376 A  
HETATM   29  C   UNL     1     -10.526  19.871  66.693  1.00  0.00    -0.580 C  
HETATM   30  C   UNL     1      -6.979  20.178  67.952  1.00  0.00    -0.316 A  
HETATM   31  C   UNL     1      -6.664  18.878  68.328  1.00  0.00    -0.259 A  
HETATM   32  C   UNL     1      -7.582  17.837  68.132  1.00  0.00    -0.250 A  
HETATM   33  C   UNL     1      -7.171  16.431  68.482  1.00  0.00    -0.170 C  
ENDBRANCH  23  26
ENDBRANCH  21  22
ENDBRANCH  18  21
ENDBRANCH  14  15
ENDBRANCH  11  14
ENDBRANCH  10  11
ENDBRANCH   9  10
ENDBRANCH   8   9
ENDBRANCH   2   3
TORSDOF 9
ENDMDL
MODEL       58
REMARK 921   NORMALIZED FREE ENERGY PREDICTED BY IDOCK:   -5.79 KCAL/MOL
REMARK 922        TOTAL FREE ENERGY PREDICTED BY IDOCK:   -9.93 KCAL/MOL
REMARK 923 INTER-LIGAND FREE ENERGY PREDICTED BY IDOCK:   -9.00 KCAL/MOL
REMARK 924 INTRA-LIGAND FREE ENERGY PREDICTED BY IDOCK:   -0.93 KCAL/MOL
REMARK 927      BINDING AFFINITY PREDICTED BY RF-SCORE:    0.00 PKD
ROOT
HETATM    1  C   UNL     1      -8.986   8.901  70.593  1.00  0.00    -0.199 C  
HETATM    2  O   UNL     1     -10.135   9.740  70.669  1.00  0.00    -0.272 OA 
ENDROOT
BRANCH   2   3
HETATM    3  C   UNL     1     -11.299   9.136  71.066  1.00  0.00    -0.309 A  
HETATM    4  C   UNL     1     -11.475   7.745  70.949  1.00  0.00    -0.294 A  
HETATM    5  C   UNL     1     -12.664   7.134  71.341  1.00  0.00    -0.433 A  
HETATM    6  C   UNL     1     -13.694   7.903  71.869  1.00  0.00    -0.366 A  
HETATM    7  C   UNL     1     -13.520   9.278  72.021  1.00  0.00    -0.519 A  
HETATM    8  C   UNL     1     -12.325   9.909  71.642  1.00  0.00    -0.406 A  
BRANCH   8   9
HETATM    9  O   UNL     1     -12.350  11.257  71.896  1.00  0.00    -0.025 OA 
BRANCH   9  10
HETATM   10  C   UNL     1     -13.614  11.917  71.948  1.00  0.00    -0.026 C  
BRANCH  10  11
HETATM   11  C   UNL     1     -13.432  13.418  71.654  1.00  0.00    -0.299 C  
HETATM   12  H   UNL     1     -13.250  15.120  72.680  1.00  0.00     0.000 HD 
HETATM   13  O   UNL     1     -13.362  14.194  72.861  1.00  0.00    -0.573 OA 
BRANCH  11  14
HETATM   14  C   UNL     1     -12.138  13.671  70.838  1.00  0.00    -0.248 C  
BRANCH  14  15
HETATM   15  N   UNL     1     -12.272  13.484  69.379  1.00  0.00    -0.278 NA 
HETATM   16  C   UNL     1     -12.279  14.766  68.659  1.00  0.00    -0.077 C  
HETATM   17  C   UNL     1     -10.930  15.495  68.766  1.00  0.00    -0.270 C  
HETATM   18  N   UNL     1      -9.789  14.753  68.184  1.00  0.00    -0.217 NA 
HETATM   19  C   UNL     1      -9.797  13.355  68.668  1.00  0.00    -0.112 C  
HETATM   20  C   UNL     1     -11.179  12.657  68.822  1.00  0.00    -0.280 C  
BRANCH  18  21
HETATM   21  C   UNL     1      -9.805  14.849  66.702  1.00  0.00    -0.260 C  
BRANCH  21  22
HETATM   22  C   UNL     1      -9.547  16.312  66.264  1.00  0.00    -0.308 C  
HETATM   23  N   UNL     1      -8.665  16.951  67.118  1.00  0.00    -0.197 N  
HETATM   24  O   UNL     1     -10.045  16.784  65.247  1.00  0.00    -0.577 OA 
HETATM   25  H   UNL     1      -8.291  16.388  67.882  1.00  0.00     0.000 HD 
BRANCH  23  26
HETATM   26  C   UNL     1      -8.225  18.283  67.056  1.00  0.00    -0.239 A  
HETATM   27  C   UNL     1      -9.057  19.387  67.338  1.00  0.00    -0.359 A  
HETATM   28  C   UNL     1      -8.507  20.680  67.284  1.00  0.00    -0.306 A  
HETATM   29  C   UNL     1     -10.497  19.284  67.758  1.00  0.00    -0.539 C  
HETATM   30  C   UNL     1      -7.157  20.876  67.006  1.00  0.00    -0.379 A  
HETATM   31  C   UNL     1      -6.332  19.784  66.770  1.00  0.00    -0.192 A  
HETATM   32  C   UNL     1      -6.851  18.482  66.792  1.00  0.00    -0.213 A  
HETATM   33  C   UNL     1      -5.939  17.332  66.453  1.00  0.00    -0.228 C  
ENDBRANCH  23  26
ENDBRANCH  21  22
ENDBRANCH  18  21
ENDBRANCH  14  15
ENDBRANCH  11  14
ENDBRANCH  10  11
ENDBRANCH   9  10
ENDBRANCH   8   9
ENDBRANCH   2   3
TORSDOF 9
ENDMDL
MODEL       59
REMARK 921   NORMALIZED FREE ENERGY PREDICTED BY IDOCK:   -5.77 KCAL/MOL
REMARK 922        TOTAL FREE ENERGY PREDICTED BY IDOCK:   -9.90 KCAL/MOL
REMARK 923 INTER-LIGAND FREE ENERGY PREDICTED BY IDOCK:   -8.85 KCAL/MOL
REMARK 924 INTRA-LIGAND FREE ENERGY PREDICTED BY IDOCK:   -1.06 KCAL/MOL
REMARK 927      BINDING AFFINITY PREDICTED BY RF-SCORE:    0.00 PKD
ROOT
HETATM    1  C   UNL     1      -7.398  20.466  66.871  1.00  0.00    -0.300 C  
HETATM    2  O   UNL     1      -7.862  20.099  68.167  1.00  0.00    -0.264 OA 
ENDROOT
BRANCH   2   3
HETATM    3  C   UNL     1      -7.455  18.876  68.632  1.00  0.00    -0.321 A  
HETATM    4  C   UNL     1      -6.300  18.748  69.425  1.00  0.00    -0.293 A  
HETATM    5  C   UNL     1      -5.879  17.502  69.887  1.00  0.00    -0.249 A  
HETATM    6  C   UNL     1      -6.613  16.365  69.571  1.00  0.00    -0.210 A  
HETATM    7  C   UNL     1      -7.777  16.484  68.813  1.00  0.00    -0.226 A  
HETATM    8  C   UNL     1      -8.222  17.731  68.349  1.00  0.00    -0.298 A  
BRANCH   8   9
HETATM    9  O   UNL     1      -9.396  17.632  67.646  1.00  0.00    -0.242 OA 
BRANCH   9  10
HETATM   10  C   UNL     1      -9.335  17.258  66.270  1.00  0.00    -0.223 C  
BRANCH  10  11
HETATM   11  C   UNL     1     -10.711  16.743  65.807  1.00  0.00    -0.180 C  
HETATM   12  H   UNL     1     -11.640  16.331  64.090  1.00  0.00     0.000 HD 
HETATM   13  O   UNL     1     -10.792  16.648  64.375  1.00  0.00    -0.833 OA 
BRANCH  11  14
HETATM   14  C   UNL     1     -11.009  15.344  66.404  1.00  0.00    -0.277 C  
BRANCH  14  15
HETATM   15  N   UNL     1     -10.100  14.268  65.959  1.00  0.00    -0.305 NA 
HETATM   16  C   UNL     1      -9.254  13.775  67.056  1.00  0.00    -0.251 C  
HETATM   17  C   UNL     1     -10.076  13.070  68.148  1.00  0.00    -0.237 C  
HETATM   18  N   UNL     1     -10.806  11.870  67.680  1.00  0.00    -0.217 NA 
HETATM   19  C   UNL     1     -11.538  12.180  66.432  1.00  0.00    -0.364 C  
HETATM   20  C   UNL     1     -10.838  13.112  65.402  1.00  0.00    -0.282 C  
BRANCH  18  21
HETATM   21  C   UNL     1      -9.879  10.719  67.534  1.00  0.00    -0.172 C  
BRANCH  21  22
HETATM   22  C   UNL     1     -10.281   9.589  68.513  1.00  0.00    -0.199 C  
HETATM   23  N   UNL     1     -10.090   9.966  69.831  1.00  0.00    -0.245 N  
HETATM   24  O   UNL     1     -10.755   8.528  68.121  1.00  0.00    -0.157 OA 
HETATM   25  H   UNL     1      -9.748  10.915  69.982  1.00  0.00     0.000 HD 
BRANCH  23  26
HETATM   26  C   UNL     1     -10.312   9.195  70.983  1.00  0.00    -0.293 A  
HETATM   27  C   UNL     1     -11.588   9.006  71.555  1.00  0.00    -0.413 A  
HETATM   28  C   UNL     1     -11.707   8.183  72.688  1.00  0.00    -0.419 A  
HETATM   29  C   UNL     1     -12.863   9.578  71.000  1.00  0.00    -0.295 C  
HETATM   30  C   UNL     1     -10.602   7.524  73.217  1.00  0.00    -0.438 A  
HETATM   31  C   UNL     1      -9.353   7.679  72.628  1.00  0.00    -0.225 A  
HETATM   32  C   UNL     1      -9.193   8.511  71.510  1.00  0.00    -0.288 A  
HETATM   33  C   UNL     1      -7.810   8.714  70.950  1.00  0.00    -0.129 C  
ENDBRANCH  23  26
ENDBRANCH  21  22
ENDBRANCH  18  21
ENDBRANCH  14  15
ENDBRANCH  11  14
ENDBRANCH  10  11
ENDBRANCH   9  10
ENDBRANCH   8   9
ENDBRANCH   2   3
TORSDOF 9
ENDMDL
MODEL       60
REMARK 921   NORMALIZED FREE ENERGY PREDICTED BY IDOCK:   -5.77 KCAL/MOL
REMARK 922        TOTAL FREE ENERGY PREDICTED BY IDOCK:   -9.89 KCAL/MOL
REMARK 923 INTER-LIGAND FREE ENERGY PREDICTED BY IDOCK:   -9.12 KCAL/MOL
REMARK 924 INTRA-LIGAND FREE ENERGY PREDICTED BY IDOCK:   -0.78 KCAL/MOL
REMARK 927      BINDING AFFINITY PREDICTED BY RF-SCORE:    0.00 PKD
ROOT
HETATM    1  C   UNL     1     -10.061   6.403  74.444  1.00  0.00    -0.348 C  
HETATM    2  O   UNL     1     -10.787   7.315  73.625  1.00  0.00    -0.356 OA 
ENDROOT
BRANCH   2   3
HETATM    3  C   UNL     1     -10.780   7.056  72.280  1.00  0.00    -0.220 A  
HETATM    4  C   UNL     1     -10.628   5.746  71.791  1.00  0.00    -0.293 A  
HETATM    5  C   UNL     1     -10.608   5.485  70.423  1.00  0.00    -0.350 A  
HETATM    6  C   UNL     1     -10.753   6.532  69.519  1.00  0.00    -0.322 A  
HETATM    7  C   UNL     1     -10.937   7.830  69.991  1.00  0.00    -0.218 A  
HETATM    8  C   UNL     1     -10.971   8.110  71.365  1.00  0.00    -0.237 A  
BRANCH   8   9
HETATM    9  O   UNL     1     -11.186   9.441  71.617  1.00  0.00    -0.370 OA 
BRANCH   9  10
HETATM   10  C   UNL     1     -11.295  10.334  70.509  1.00  0.00    -0.341 C  
BRANCH  10  11
HETATM   11  C   UNL     1     -12.498  11.274  70.712  1.00  0.00    -0.376 C  
HETATM   12  H   UNL     1     -13.957  11.551  72.045  1.00  0.00     0.000 HD 
HETATM   13  O   UNL     1     -13.215  10.971  71.920  1.00  0.00    -0.473 OA 
BRANCH  11  14
HETATM   14  C   UNL     1     -12.041  12.755  70.777  1.00  0.00    -0.155 C  
BRANCH  14  15
HETATM   15  N   UNL     1     -12.535  13.610  69.678  1.00  0.00    -0.190 NA 
HETATM   16  C   UNL     1     -12.654  15.016  70.088  1.00  0.00    -0.269 C  
HETATM   17  C   UNL     1     -11.286  15.647  70.395  1.00  0.00    -0.357 C  
HETATM   18  N   UNL     1     -10.358  15.677  69.242  1.00  0.00    -0.232 NA 
HETATM   19  C   UNL     1     -10.315  14.348  68.593  1.00  0.00    -0.245 C  
HETATM   20  C   UNL     1     -11.650  13.556  68.493  1.00  0.00    -0.333 C  
BRANCH  18  21
HETATM   21  C   UNL     1     -10.728  16.766  68.302  1.00  0.00    -0.364 C  
BRANCH  21  22
HETATM   22  C   UNL     1      -9.907  18.040  68.619  1.00  0.00    -0.378 C  
HETATM   23  N   UNL     1      -8.694  18.042  67.954  1.00  0.00    -0.252 N  
HETATM   24  O   UNL     1     -10.346  18.935  69.335  1.00  0.00    -0.053 OA 
HETATM   25  H   UNL     1      -8.515  17.245  67.342  1.00  0.00     0.000 HD 
BRANCH  23  26
HETATM   26  C   UNL     1      -7.680  19.011  68.023  1.00  0.00    -0.273 A  
HETATM   27  C   UNL     1      -6.532  18.874  68.831  1.00  0.00    -0.286 A  
HETATM   28  C   UNL     1      -5.557  19.887  68.799  1.00  0.00    -0.244 A  
HETATM   29  C   UNL     1      -6.235  17.679  69.695  1.00  0.00    -0.220 C  
HETATM   30  C   UNL     1      -5.688  20.984  67.954  1.00  0.00    -0.375 A  
HETATM   31  C   UNL     1      -6.800  21.096  67.129  1.00  0.00    -0.388 A  
HETATM   32  C   UNL     1      -7.804  20.118  67.152  1.00  0.00    -0.357 A  
HETATM   33  C   UNL     1      -9.030  20.316  66.300  1.00  0.00    -0.241 C  
ENDBRANCH  23  26
ENDBRANCH  21  22
ENDBRANCH  18  21
ENDBRANCH  14  15
ENDBRANCH  11  14
ENDBRANCH  10  11
ENDBRANCH   9  10
ENDBRANCH   8   9
ENDBRANCH   2   3
TORSDOF 9
ENDMDL
MODEL       61
REMARK 921   NORMALIZED FREE ENERGY PREDICTED BY IDOCK:   -5.76 KCAL/MOL
REMARK 922        TOTAL FREE ENERGY PREDICTED BY IDOCK:   -9.88 KCAL/MOL
REMARK 923 INTER-LIGAND FREE ENERGY PREDICTED BY IDOCK:   -8.81 KCAL/MOL
REMARK 924 INTRA-LIGAND FREE ENERGY PREDICTED BY IDOCK:   -1.07 KCAL/MOL
REMARK 927      BINDING AFFINITY PREDICTED BY RF-SCORE:    0.00 PKD
ROOT
HETATM    1  C   UNL     1     -12.404  14.796  64.382  1.00  0.00    -0.368 C  
HETATM    2  O   UNL     1     -12.793  13.469  64.725  1.00  0.00    -0.677 OA 
ENDROOT
BRANCH   2   3
HETATM    3  C   UNL     1     -11.804  12.521  64.691  1.00  0.00    -0.378 A  
HETATM    4  C   UNL     1     -11.141  12.204  63.492  1.00  0.00    -0.525 A  
HETATM    5  C   UNL     1     -10.144  11.230  63.456  1.00  0.00    -0.443 A  
HETATM    6  C   UNL     1      -9.786  10.566  64.623  1.00  0.00    -0.369 A  
HETATM    7  C   UNL     1     -10.413  10.895  65.824  1.00  0.00    -0.275 A  
HETATM    8  C   UNL     1     -11.410  11.880  65.881  1.00  0.00    -0.308 A  
BRANCH   8   9
HETATM    9  O   UNL     1     -11.879  12.068  67.157  1.00  0.00    -0.565 OA 
BRANCH   9  10
HETATM   10  C   UNL     1     -11.786  10.985  68.082  1.00  0.00    -0.202 C  
BRANCH  10  11
HETATM   11  C   UNL     1     -11.739  11.531  69.522  1.00  0.00    -0.346 C  
HETATM   12  H   UNL     1     -12.143  13.235  70.477  1.00  0.00     0.000 HD 
HETATM   13  O   UNL     1     -12.172  12.899  69.589  1.00  0.00    -0.245 OA 
BRANCH  11  14
HETATM   14  C   UNL     1     -12.638  10.690  70.464  1.00  0.00    -0.348 C  
BRANCH  14  15
HETATM   15  N   UNL     1     -11.941  10.081  71.615  1.00  0.00    -0.351 NA 
HETATM   16  C   UNL     1     -12.775   9.079  72.296  1.00  0.00    -0.387 C  
HETATM   17  C   UNL     1     -13.051   7.857  71.406  1.00  0.00    -0.254 C  
HETATM   18  N   UNL     1     -11.837   7.112  71.002  1.00  0.00    -0.319 NA 
HETATM   19  C   UNL     1     -10.814   8.051  70.493  1.00  0.00    -0.241 C  
HETATM   20  C   UNL     1     -10.678   9.422  71.215  1.00  0.00    -0.350 C  
BRANCH  18  21
HETATM   21  C   UNL     1     -11.343   6.273  72.123  1.00  0.00    -0.297 C  
BRANCH  21  22
HETATM   22  C   UNL     1     -10.095   5.472  71.675  1.00  0.00    -0.195 C  
HETATM   23  N   UNL     1     -10.378   4.651  70.599  1.00  0.00    -0.132 N  
HETATM   24  O   UNL     1      -9.000   5.624  72.208  1.00  0.00    -0.139 OA 
HETATM   25  H   UNL     1     -11.330   4.697  70.235  1.00  0.00     0.000 HD 
BRANCH  23  26
HETATM   26  C   UNL     1      -9.508   3.760  69.949  1.00  0.00    -0.197 A  
HETATM   27  C   UNL     1      -9.255   2.451  70.408  1.00  0.00    -0.192 A  
HETATM   28  C   UNL     1      -8.396   1.626  69.661  1.00  0.00    -0.069 A  
HETATM   29  C   UNL     1      -9.893   1.836  71.623  1.00  0.00    -0.218 C  
HETATM   30  C   UNL     1      -7.836   2.065  68.465  1.00  0.00    -0.057 A  
HETATM   31  C   UNL     1      -8.120   3.341  67.994  1.00  0.00    -0.083 A  
HETATM   32  C   UNL     1      -8.954   4.200  68.724  1.00  0.00    -0.160 A  
HETATM   33  C   UNL     1      -9.172   5.602  68.219  1.00  0.00    -0.116 C  
ENDBRANCH  23  26
ENDBRANCH  21  22
ENDBRANCH  18  21
ENDBRANCH  14  15
ENDBRANCH  11  14
ENDBRANCH  10  11
ENDBRANCH   9  10
ENDBRANCH   8   9
ENDBRANCH   2   3
TORSDOF 9
ENDMDL
MODEL       62
REMARK 921   NORMALIZED FREE ENERGY PREDICTED BY IDOCK:   -5.72 KCAL/MOL
REMARK 922        TOTAL FREE ENERGY PREDICTED BY IDOCK:   -9.83 KCAL/MOL
REMARK 923 INTER-LIGAND FREE ENERGY PREDICTED BY IDOCK:   -8.49 KCAL/MOL
REMARK 924 INTRA-LIGAND FREE ENERGY PREDICTED BY IDOCK:   -1.34 KCAL/MOL
REMARK 927      BINDING AFFINITY PREDICTED BY RF-SCORE:    0.00 PKD
ROOT
HETATM    1  C   UNL     1     -13.011  15.169  70.910  1.00  0.00    -0.429 C  
HETATM    2  O   UNL     1     -12.096  14.609  69.972  1.00  0.00    -0.293 OA 
ENDROOT
BRANCH   2   3
HETATM    3  C   UNL     1     -11.457  15.496  69.147  1.00  0.00    -0.348 A  
HETATM    4  C   UNL     1     -10.707  16.565  69.670  1.00  0.00    -0.323 A  
HETATM    5  C   UNL     1     -10.068  17.475  68.830  1.00  0.00    -0.363 A  
HETATM    6  C   UNL     1     -10.160  17.323  67.451  1.00  0.00    -0.307 A  
HETATM    7  C   UNL     1     -10.874  16.249  66.921  1.00  0.00    -0.151 A  
HETATM    8  C   UNL     1     -11.514  15.318  67.752  1.00  0.00    -0.303 A  
BRANCH   8   9
HETATM    9  O   UNL     1     -12.138  14.328  67.034  1.00  0.00    -0.425 OA 
BRANCH   9  10
HETATM   10  C   UNL     1     -12.152  14.426  65.611  1.00  0.00    -0.354 C  
BRANCH  10  11
HETATM   11  C   UNL     1     -11.650  13.108  64.992  1.00  0.00    -0.325 C  
HETATM   12  H   UNL     1     -10.045  12.446  64.008  1.00  0.00     0.000 HD 
HETATM   13  O   UNL     1     -10.354  13.259  64.390  1.00  0.00    -0.413 OA 
BRANCH  11  14
HETATM   14  C   UNL     1     -11.561  11.990  66.062  1.00  0.00    -0.305 C  
BRANCH  14  15
HETATM   15  N   UNL     1     -10.190  11.558  66.402  1.00  0.00    -0.217 NA 
HETATM   16  C   UNL     1      -9.800  11.981  67.755  1.00  0.00    -0.190 C  
HETATM   17  C   UNL     1     -10.634  11.285  68.842  1.00  0.00    -0.207 C  
HETATM   18  N   UNL     1     -10.495   9.811  68.864  1.00  0.00    -0.207 NA 
HETATM   19  C   UNL     1     -10.652   9.269  67.497  1.00  0.00    -0.262 C  
HETATM   20  C   UNL     1     -10.036  10.088  66.326  1.00  0.00    -0.243 C  
BRANCH  18  21
HETATM   21  C   UNL     1      -9.211   9.417  69.497  1.00  0.00    -0.176 C  
BRANCH  21  22
HETATM   22  C   UNL     1      -9.483   8.640  70.809  1.00  0.00    -0.190 C  
HETATM   23  N   UNL     1      -9.781   7.312  70.560  1.00  0.00    -0.176 N  
HETATM   24  O   UNL     1      -9.383   9.170  71.910  1.00  0.00    -0.349 OA 
HETATM   25  H   UNL     1      -9.756   7.020  69.583  1.00  0.00     0.000 HD 
BRANCH  23  26
HETATM   26  C   UNL     1     -10.112   6.319  71.496  1.00  0.00    -0.190 A  
HETATM   27  C   UNL     1     -11.413   6.147  72.014  1.00  0.00    -0.366 A  
HETATM   28  C   UNL     1     -11.648   5.096  72.918  1.00  0.00    -0.282 A  
HETATM   29  C   UNL     1     -12.604   6.977  71.620  1.00  0.00    -0.419 C  
HETATM   30  C   UNL     1     -10.636   4.207  73.267  1.00  0.00    -0.267 A  
HETATM   31  C   UNL     1      -9.366   4.355  72.723  1.00  0.00    -0.151 A  
HETATM   32  C   UNL     1      -9.089   5.405  71.837  1.00  0.00    -0.151 A  
HETATM   33  C   UNL     1      -7.680   5.576  71.332  1.00  0.00    -0.109 C  
ENDBRANCH  23  26
ENDBRANCH  21  22
ENDBRANCH  18  21
ENDBRANCH  14  15
ENDBRANCH  11  14
ENDBRANCH  10  11
ENDBRANCH   9  10
ENDBRANCH   8   9
ENDBRANCH   2   3
TORSDOF 9
ENDMDL
MODEL       63
REMARK 921   NORMALIZED FREE ENERGY PREDICTED BY IDOCK:   -5.71 KCAL/MOL
REMARK 922        TOTAL FREE ENERGY PREDICTED BY IDOCK:   -9.81 KCAL/MOL
REMARK 923 INTER-LIGAND FREE ENERGY PREDICTED BY IDOCK:   -7.94 KCAL/MOL
REMARK 924 INTRA-LIGAND FREE ENERGY PREDICTED BY IDOCK:   -1.87 KCAL/MOL
REMARK 927      BINDING AFFINITY PREDICTED BY RF-SCORE:    0.00 PKD
ROOT
HETATM    1  C   UNL     1     -12.674  13.323  65.411  1.00  0.00    -0.399 C  
HETATM    2  O   UNL     1     -11.940  14.036  66.402  1.00  0.00    -0.396 OA 
ENDROOT
BRANCH   2   3
HETATM    3  C   UNL     1     -11.936  13.491  67.659  1.00  0.00    -0.336 A  
HETATM    4  C   UNL     1     -11.849  12.100  67.849  1.00  0.00    -0.338 A  
HETATM    5  C   UNL     1     -11.858  11.546  69.128  1.00  0.00    -0.406 A  
HETATM    6  C   UNL     1     -11.942  12.377  70.239  1.00  0.00    -0.371 A  
HETATM    7  C   UNL     1     -11.995  13.759  70.065  1.00  0.00    -0.407 A  
HETATM    8  C   UNL     1     -11.976  14.335  68.785  1.00  0.00    -0.311 A  
BRANCH   8   9
HETATM    9  O   UNL     1     -12.012  15.705  68.835  1.00  0.00    -0.367 OA 
BRANCH   9  10
HETATM   10  C   UNL     1     -10.877  16.397  69.354  1.00  0.00    -0.327 C  
BRANCH  10  11
HETATM   11  C   UNL     1     -10.002  16.909  68.195  1.00  0.00    -0.285 C  
HETATM   12  H   UNL     1      -9.904  18.506  67.003  1.00  0.00     0.000 HD 
HETATM   13  O   UNL     1     -10.443  18.190  67.718  1.00  0.00    -0.380 OA 
BRANCH  11  14
HETATM   14  C   UNL     1      -8.520  17.038  68.633  1.00  0.00    -0.262 C  
BRANCH  14  15
HETATM   15  N   UNL     1      -7.538  16.461  67.692  1.00  0.00    -0.136 NA 
HETATM   16  C   UNL     1      -6.553  15.613  68.380  1.00  0.00    -0.116 C  
HETATM   17  C   UNL     1      -7.195  14.355  68.985  1.00  0.00    -0.129 C  
HETATM   18  N   UNL     1      -7.825  13.455  67.991  1.00  0.00    -0.133 NA 
HETATM   19  C   UNL     1      -8.690  14.236  67.081  1.00  0.00    -0.227 C  
HETATM   20  C   UNL     1      -8.187  15.642  66.644  1.00  0.00    -0.249 C  
BRANCH  18  21
HETATM   21  C   UNL     1      -6.792  12.668  67.271  1.00  0.00    -0.098 C  
BRANCH  21  22
HETATM   22  C   UNL     1      -7.091  11.155  67.405  1.00  0.00    -0.102 C  
HETATM   23  N   UNL     1      -8.428  10.922  67.674  1.00  0.00    -0.122 N  
HETATM   24  O   UNL     1      -6.225  10.303  67.231  1.00  0.00    -0.057 OA 
HETATM   25  H   UNL     1      -9.028  11.746  67.721  1.00  0.00     0.000 HD 
BRANCH  23  26
HETATM   26  C   UNL     1      -9.056   9.685  67.891  1.00  0.00    -0.125 A  
HETATM   27  C   UNL     1      -9.054   9.023  69.136  1.00  0.00    -0.140 A  
HETATM   28  C   UNL     1      -9.746   7.805  69.256  1.00  0.00    -0.165 A  
HETATM   29  C   UNL     1      -8.408   9.558  70.384  1.00  0.00    -0.226 C  
HETATM   30  C   UNL     1     -10.464   7.277  68.188  1.00  0.00    -0.244 A  
HETATM   31  C   UNL     1     -10.498   7.953  66.974  1.00  0.00    -0.419 A  
HETATM   32  C   UNL     1      -9.800   9.157  66.810  1.00  0.00    -0.291 A  
HETATM   33  C   UNL     1      -9.799   9.817  65.456  1.00  0.00    -0.378 C  
ENDBRANCH  23  26
ENDBRANCH  21  22
ENDBRANCH  18  21
ENDBRANCH  14  15
ENDBRANCH  11  14
ENDBRANCH  10  11
ENDBRANCH   9  10
ENDBRANCH   8   9
ENDBRANCH   2   3
TORSDOF 9
ENDMDL
MODEL       64
REMARK 921   NORMALIZED FREE ENERGY PREDICTED BY IDOCK:   -5.68 KCAL/MOL
REMARK 922        TOTAL FREE ENERGY PREDICTED BY IDOCK:   -9.77 KCAL/MOL
REMARK 923 INTER-LIGAND FREE ENERGY PREDICTED BY IDOCK:   -9.16 KCAL/MOL
REMARK 924 INTRA-LIGAND FREE ENERGY PREDICTED BY IDOCK:   -0.61 KCAL/MOL
REMARK 927      BINDING AFFINITY PREDICTED BY RF-SCORE:    0.00 PKD
ROOT
HETATM    1  C   UNL     1      -7.699   7.997  74.082  1.00  0.00    -0.207 C  
HETATM    2  O   UNL     1      -8.710   8.593  73.275  1.00  0.00    -0.352 OA 
ENDROOT
BRANCH   2   3
HETATM    3  C   UNL     1      -9.748   7.778  72.906  1.00  0.00    -0.249 A  
HETATM    4  C   UNL     1      -9.845   6.461  73.389  1.00  0.00    -0.190 A  
HETATM    5  C   UNL     1     -10.894   5.628  73.002  1.00  0.00    -0.308 A  
HETATM    6  C   UNL     1     -11.869   6.105  72.134  1.00  0.00    -0.339 A  
HETATM    7  C   UNL     1     -11.801   7.419  71.675  1.00  0.00    -0.323 A  
HETATM    8  C   UNL     1     -10.759   8.275  72.062  1.00  0.00    -0.297 A  
BRANCH   8   9
HETATM    9  O   UNL     1     -10.891   9.528  71.520  1.00  0.00    -0.355 OA 
BRANCH   9  10
HETATM   10  C   UNL     1     -11.636   9.672  70.312  1.00  0.00    -0.198 C  
BRANCH  10  11
HETATM   11  C   UNL     1     -10.694  10.077  69.162  1.00  0.00    -0.220 C  
HETATM   12  H   UNL     1     -10.313   9.513  67.287  1.00  0.00     0.000 HD 
HETATM   13  O   UNL     1     -10.894   9.263  67.996  1.00  0.00    -0.203 OA 
BRANCH  11  14
HETATM   14  C   UNL     1     -10.911  11.559  68.763  1.00  0.00    -0.222 C  
BRANCH  14  15
HETATM   15  N   UNL     1     -11.070  11.800  67.314  1.00  0.00    -0.269 NA 
HETATM   16  C   UNL     1     -12.131  12.778  67.033  1.00  0.00    -0.182 C  
HETATM   17  C   UNL     1     -11.777  14.180  67.553  1.00  0.00    -0.386 C  
HETATM   18  N   UNL     1     -10.563  14.767  66.941  1.00  0.00    -0.289 NA 
HETATM   19  C   UNL     1      -9.459  13.783  66.963  1.00  0.00    -0.255 C  
HETATM   20  C   UNL     1      -9.821  12.294  66.693  1.00  0.00    -0.220 C  
BRANCH  18  21
HETATM   21  C   UNL     1     -10.859  15.271  65.575  1.00  0.00    -0.372 C  
BRANCH  21  22
HETATM   22  C   UNL     1     -10.473  16.767  65.468  1.00  0.00    -0.237 C  
HETATM   23  N   UNL     1      -9.508  17.111  66.397  1.00  0.00    -0.267 N  
HETATM   24  O   UNL     1     -10.954  17.502  64.611  1.00  0.00    -0.892 OA 
HETATM   25  H   UNL     1      -9.167  16.357  66.993  1.00  0.00     0.000 HD 
BRANCH  23  26
HETATM   26  C   UNL     1      -8.943  18.378  66.616  1.00  0.00    -0.289 A  
HETATM   27  C   UNL     1      -9.687  19.492  67.058  1.00  0.00    -0.450 A  
HETATM   28  C   UNL     1      -9.017  20.708  67.283  1.00  0.00    -0.373 A  
HETATM   29  C   UNL     1     -11.158  19.465  67.370  1.00  0.00    -0.278 C  
HETATM   30  C   UNL     1      -7.639  20.810  67.123  1.00  0.00    -0.343 A  
HETATM   31  C   UNL     1      -6.902  19.699  66.727  1.00  0.00    -0.207 A  
HETATM   32  C   UNL     1      -7.540  18.477  66.471  1.00  0.00    -0.270 A  
HETATM   33  C   UNL     1      -6.716  17.321  65.968  1.00  0.00    -0.114 C  
ENDBRANCH  23  26
ENDBRANCH  21  22
ENDBRANCH  18  21
ENDBRANCH  14  15
ENDBRANCH  11  14
ENDBRANCH  10  11
ENDBRANCH   9  10
ENDBRANCH   8   9
ENDBRANCH   2   3
TORSDOF 9
ENDMDL
MODEL       65
REMARK 921   NORMALIZED FREE ENERGY PREDICTED BY IDOCK:   -5.65 KCAL/MOL
REMARK 922        TOTAL FREE ENERGY PREDICTED BY IDOCK:   -9.72 KCAL/MOL
REMARK 923 INTER-LIGAND FREE ENERGY PREDICTED BY IDOCK:   -8.84 KCAL/MOL
REMARK 924 INTRA-LIGAND FREE ENERGY PREDICTED BY IDOCK:   -0.88 KCAL/MOL
REMARK 927      BINDING AFFINITY PREDICTED BY RF-SCORE:    0.00 PKD
ROOT
HETATM    1  C   UNL     1      -7.247   8.363  72.688  1.00  0.00    -0.077 C  
HETATM    2  O   UNL     1      -8.596   8.812  72.782  1.00  0.00    -0.412 OA 
ENDROOT
BRANCH   2   3
HETATM    3  C   UNL     1      -9.564   7.861  72.600  1.00  0.00    -0.227 A  
HETATM    4  C   UNL     1      -9.336   6.516  72.941  1.00  0.00    -0.144 A  
HETATM    5  C   UNL     1     -10.317   5.546  72.743  1.00  0.00    -0.230 A  
HETATM    6  C   UNL     1     -11.549   5.910  72.211  1.00  0.00    -0.338 A  
HETATM    7  C   UNL     1     -11.798   7.245  71.899  1.00  0.00    -0.333 A  
HETATM    8  C   UNL     1     -10.826   8.236  72.102  1.00  0.00    -0.320 A  
BRANCH   8   9
HETATM    9  O   UNL     1     -11.280   9.484  71.755  1.00  0.00    -0.363 OA 
BRANCH   9  10
HETATM   10  C   UNL     1     -12.635   9.621  71.329  1.00  0.00    -0.352 C  
BRANCH  10  11
HETATM   11  C   UNL     1     -12.903  11.075  70.899  1.00  0.00    -0.301 C  
HETATM   12  H   UNL     1     -13.339  12.821  71.761  1.00  0.00     0.000 HD 
HETATM   13  O   UNL     1     -13.174  11.924  72.026  1.00  0.00    -0.495 OA 
BRANCH  11  14
HETATM   14  C   UNL     1     -11.690  11.660  70.131  1.00  0.00    -0.296 C  
BRANCH  14  15
HETATM   15  N   UNL     1     -12.026  12.378  68.885  1.00  0.00    -0.285 NA 
HETATM   16  C   UNL     1     -12.386  13.780  69.139  1.00  0.00    -0.101 C  
HETATM   17  C   UNL     1     -11.195  14.596  69.667  1.00  0.00    -0.272 C  
HETATM   18  N   UNL     1     -10.049  14.674  68.733  1.00  0.00    -0.232 NA 
HETATM   19  C   UNL     1      -9.720  13.325  68.224  1.00  0.00    -0.225 C  
HETATM   20  C   UNL     1     -10.906  12.366  67.918  1.00  0.00    -0.222 C  
BRANCH  18  21
HETATM   21  C   UNL     1     -10.327  15.649  67.647  1.00  0.00    -0.275 C  
BRANCH  21  22
HETATM   22  C   UNL     1      -9.844  17.060  68.066  1.00  0.00    -0.275 C  
HETATM   23  N   UNL     1      -8.569  17.321  67.596  1.00  0.00    -0.215 N  
HETATM   24  O   UNL     1     -10.563  17.833  68.691  1.00  0.00    -0.317 OA 
HETATM   25  H   UNL     1      -8.138  16.589  67.032  1.00  0.00     0.000 HD 
BRANCH  23  26
HETATM   26  C   UNL     1      -7.800  18.477  67.805  1.00  0.00    -0.245 A  
HETATM   27  C   UNL     1      -8.073  19.712  67.180  1.00  0.00    -0.315 A  
HETATM   28  C   UNL     1      -7.263  20.820  67.488  1.00  0.00    -0.377 A  
HETATM   29  C   UNL     1      -9.221  19.957  66.240  1.00  0.00    -0.457 C  
HETATM   30  C   UNL     1      -6.239  20.724  68.425  1.00  0.00    -0.357 A  
HETATM   31  C   UNL     1      -5.998  19.516  69.069  1.00  0.00    -0.276 A  
HETATM   32  C   UNL     1      -6.771  18.385  68.770  1.00  0.00    -0.267 A  
HETATM   33  C   UNL     1      -6.427  17.076  69.431  1.00  0.00    -0.236 C  
ENDBRANCH  23  26
ENDBRANCH  21  22
ENDBRANCH  18  21
ENDBRANCH  14  15
ENDBRANCH  11  14
ENDBRANCH  10  11
ENDBRANCH   9  10
ENDBRANCH   8   9
ENDBRANCH   2   3
TORSDOF 9
ENDMDL
MODEL       66
REMARK 921   NORMALIZED FREE ENERGY PREDICTED BY IDOCK:   -5.63 KCAL/MOL
REMARK 922        TOTAL FREE ENERGY PREDICTED BY IDOCK:   -9.68 KCAL/MOL
REMARK 923 INTER-LIGAND FREE ENERGY PREDICTED BY IDOCK:   -8.53 KCAL/MOL
REMARK 924 INTRA-LIGAND FREE ENERGY PREDICTED BY IDOCK:   -1.15 KCAL/MOL
REMARK 927      BINDING AFFINITY PREDICTED BY RF-SCORE:    0.00 PKD
ROOT
HETATM    1  C   UNL     1     -12.428  12.715  64.430  1.00  0.00    -0.428 C  
HETATM    2  O   UNL     1     -11.043  12.857  64.736  1.00  0.00    -0.289 OA 
ENDROOT
BRANCH   2   3
HETATM    3  C   UNL     1     -10.234  11.811  64.378  1.00  0.00    -0.289 A  
HETATM    4  C   UNL     1     -10.022  11.484  63.027  1.00  0.00    -0.352 A  
HETATM    5  C   UNL     1      -9.210  10.412  62.664  1.00  0.00    -0.322 A  
HETATM    6  C   UNL     1      -8.586   9.656  63.649  1.00  0.00    -0.216 A  
HETATM    7  C   UNL     1      -8.762   9.990  64.991  1.00  0.00    -0.192 A  
HETATM    8  C   UNL     1      -9.567  11.073  65.374  1.00  0.00    -0.225 A  
BRANCH   8   9
HETATM    9  O   UNL     1      -9.587  11.246  66.735  1.00  0.00    -0.188 OA 
BRANCH   9  10
HETATM   10  C   UNL     1     -10.619  10.607  67.487  1.00  0.00    -0.252 C  
BRANCH  10  11
HETATM   11  C   UNL     1     -11.424  11.662  68.270  1.00  0.00    -0.303 C  
HETATM   12  H   UNL     1     -11.997  11.995  70.152  1.00  0.00     0.000 HD 
HETATM   13  O   UNL     1     -11.501  11.344  69.669  1.00  0.00    -0.269 OA 
BRANCH  11  14
HETATM   14  C   UNL     1     -10.786  13.068  68.125  1.00  0.00    -0.242 C  
BRANCH  14  15
HETATM   15  N   UNL     1     -11.679  14.196  68.455  1.00  0.00    -0.326 NA 
HETATM   16  C   UNL     1     -11.312  14.833  69.728  1.00  0.00    -0.283 C  
HETATM   17  C   UNL     1      -9.940  15.521  69.656  1.00  0.00    -0.284 C  
HETATM   18  N   UNL     1      -9.860  16.616  68.662  1.00  0.00    -0.241 NA 
HETATM   19  C   UNL     1     -10.414  16.162  67.367  1.00  0.00    -0.310 C  
HETATM   20  C   UNL     1     -11.667  15.241  67.406  1.00  0.00    -0.109 C  
BRANCH  18  21
HETATM   21  C   UNL     1     -10.526  17.839  69.177  1.00  0.00    -0.069 C  
BRANCH  21  22
HETATM   22  C   UNL     1      -9.695  19.091  68.804  1.00  0.00    -0.416 C  
HETATM   23  N   UNL     1      -8.366  18.773  68.585  1.00  0.00    -0.337 N  
HETATM   24  O   UNL     1     -10.208  20.198  68.680  1.00  0.00    -0.403 OA 
HETATM   25  H   UNL     1      -8.120  17.786  68.666  1.00  0.00     0.000 HD 
BRANCH  23  26
HETATM   26  C   UNL     1      -7.317  19.649  68.262  1.00  0.00    -0.316 A  
HETATM   27  C   UNL     1      -6.429  20.179  69.222  1.00  0.00    -0.335 A  
HETATM   28  C   UNL     1      -5.387  21.018  68.788  1.00  0.00    -0.367 A  
HETATM   29  C   UNL     1      -6.473  19.861  70.691  1.00  0.00    -0.139 C  
HETATM   30  C   UNL     1      -5.197  21.290  67.437  1.00  0.00    -0.336 A  
HETATM   31  C   UNL     1      -6.050  20.733  66.491  1.00  0.00    -0.286 A  
HETATM   32  C   UNL     1      -7.113  19.911  66.888  1.00  0.00    -0.247 A  
HETATM   33  C   UNL     1      -8.060  19.392  65.838  1.00  0.00    -0.165 C  
ENDBRANCH  23  26
ENDBRANCH  21  22
ENDBRANCH  18  21
ENDBRANCH  14  15
ENDBRANCH  11  14
ENDBRANCH  10  11
ENDBRANCH   9  10
ENDBRANCH   8   9
ENDBRANCH   2   3
TORSDOF 9
ENDMDL
MODEL       67
REMARK 921   NORMALIZED FREE ENERGY PREDICTED BY IDOCK:   -5.58 KCAL/MOL
REMARK 922        TOTAL FREE ENERGY PREDICTED BY IDOCK:   -9.62 KCAL/MOL
REMARK 923 INTER-LIGAND FREE ENERGY PREDICTED BY IDOCK:   -8.47 KCAL/MOL
REMARK 924 INTRA-LIGAND FREE ENERGY PREDICTED BY IDOCK:   -1.14 KCAL/MOL
REMARK 927      BINDING AFFINITY PREDICTED BY RF-SCORE:    0.00 PKD
ROOT
HETATM    1  C   UNL     1     -11.264   6.378  70.033  1.00  0.00    -0.411 C  
HETATM    2  O   UNL     1     -10.724   7.655  70.362  1.00  0.00    -0.227 OA 
ENDROOT
BRANCH   2   3
HETATM    3  C   UNL     1     -11.599   8.561  70.900  1.00  0.00    -0.263 A  
HETATM    4  C   UNL     1     -12.435   8.214  71.977  1.00  0.00    -0.375 A  
HETATM    5  C   UNL     1     -13.334   9.133  72.516  1.00  0.00    -0.481 A  
HETATM    6  C   UNL     1     -13.403  10.419  71.993  1.00  0.00    -0.440 A  
HETATM    7  C   UNL     1     -12.556  10.785  70.948  1.00  0.00    -0.498 A  
HETATM    8  C   UNL     1     -11.638   9.877  70.401  1.00  0.00    -0.282 A  
BRANCH   8   9
HETATM    9  O   UNL     1     -10.885  10.442  69.402  1.00  0.00    -0.215 OA 
BRANCH   9  10
HETATM   10  C   UNL     1     -11.194  10.111  68.048  1.00  0.00    -0.179 C  
BRANCH  10  11
HETATM   11  C   UNL     1      -9.984   9.422  67.390  1.00  0.00    -0.199 C  
HETATM   12  H   UNL     1      -9.340   8.991  65.551  1.00  0.00     0.000 HD 
HETATM   13  O   UNL     1     -10.086   9.417  65.957  1.00  0.00    -0.300 OA 
BRANCH  11  14
HETATM   14  C   UNL     1      -8.661  10.130  67.780  1.00  0.00    -0.118 C  
BRANCH  14  15
HETATM   15  N   UNL     1      -8.141  11.081  66.776  1.00  0.00    -0.144 NA 
HETATM   16  C   UNL     1      -8.834  12.376  66.836  1.00  0.00    -0.205 C  
HETATM   17  C   UNL     1      -8.559  13.119  68.153  1.00  0.00    -0.181 C  
HETATM   18  N   UNL     1      -7.134  13.454  68.376  1.00  0.00    -0.098 NA 
HETATM   19  C   UNL     1      -6.291  12.264  68.129  1.00  0.00    -0.062 C  
HETATM   20  C   UNL     1      -6.693  11.333  66.948  1.00  0.00    -0.135 C  
BRANCH  18  21
HETATM   21  C   UNL     1      -6.738  14.623  67.551  1.00  0.00    -0.122 C  
BRANCH  21  22
HETATM   22  C   UNL     1      -7.490  15.889  68.030  1.00  0.00    -0.126 C  
HETATM   23  N   UNL     1      -8.165  16.503  66.990  1.00  0.00    -0.179 N  
HETATM   24  O   UNL     1      -7.500  16.232  69.208  1.00  0.00    -0.230 OA 
HETATM   25  H   UNL     1      -8.105  16.045  66.081  1.00  0.00     0.000 HD 
BRANCH  23  26
HETATM   26  C   UNL     1      -8.924  17.685  67.041  1.00  0.00    -0.250 A  
HETATM   27  C   UNL     1     -10.209  17.755  67.618  1.00  0.00    -0.359 A  
HETATM   28  C   UNL     1     -10.868  18.997  67.651  1.00  0.00    -0.439 A  
HETATM   29  C   UNL     1     -10.917  16.598  68.267  1.00  0.00    -0.341 C  
HETATM   30  C   UNL     1     -10.255  20.150  67.171  1.00  0.00    -0.554 A  
HETATM   31  C   UNL     1      -8.973  20.084  66.640  1.00  0.00    -0.446 A  
HETATM   32  C   UNL     1      -8.294  18.859  66.569  1.00  0.00    -0.310 A  
HETATM   33  C   UNL     1      -6.938  18.818  65.914  1.00  0.00    -0.303 C  
ENDBRANCH  23  26
ENDBRANCH  21  22
ENDBRANCH  18  21
ENDBRANCH  14  15
ENDBRANCH  11  14
ENDBRANCH  10  11
ENDBRANCH   9  10
ENDBRANCH   8   9
ENDBRANCH   2   3
TORSDOF 9
ENDMDL
MODEL       68
REMARK 921   NORMALIZED FREE ENERGY PREDICTED BY IDOCK:   -5.58 KCAL/MOL
REMARK 922        TOTAL FREE ENERGY PREDICTED BY IDOCK:   -9.60 KCAL/MOL
REMARK 923 INTER-LIGAND FREE ENERGY PREDICTED BY IDOCK:   -8.72 KCAL/MOL
REMARK 924 INTRA-LIGAND FREE ENERGY PREDICTED BY IDOCK:   -0.89 KCAL/MOL
REMARK 927      BINDING AFFINITY PREDICTED BY RF-SCORE:    0.00 PKD
ROOT
HETATM    1  C   UNL     1     -10.468   5.447  71.222  1.00  0.00    -0.226 C  
HETATM    2  O   UNL     1     -10.698   5.960  69.913  1.00  0.00    -0.274 OA 
ENDROOT
BRANCH   2   3
HETATM    3  C   UNL     1     -10.255   5.185  68.873  1.00  0.00    -0.150 A  
HETATM    4  C   UNL     1      -9.693   3.916  69.100  1.00  0.00    -0.143 A  
HETATM    5  C   UNL     1      -9.230   3.134  68.043  1.00  0.00    -0.248 A  
HETATM    6  C   UNL     1      -9.333   3.606  66.740  1.00  0.00    -0.210 A  
HETATM    7  C   UNL     1      -9.919   4.848  66.500  1.00  0.00    -0.256 A  
HETATM    8  C   UNL     1     -10.400   5.643  67.550  1.00  0.00    -0.222 A  
BRANCH   8   9
HETATM    9  O   UNL     1     -10.959   6.812  67.099  1.00  0.00    -0.363 OA 
BRANCH   9  10
HETATM   10  C   UNL     1     -10.151   7.989  67.078  1.00  0.00    -0.279 C  
BRANCH  10  11
HETATM   11  C   UNL     1     -10.900   9.148  67.763  1.00  0.00    -0.092 C  
HETATM   12  H   UNL     1     -11.060   9.940  69.587  1.00  0.00     0.000 HD 
HETATM   13  O   UNL     1     -10.598   9.225  69.165  1.00  0.00    -0.218 OA 
BRANCH  11  14
HETATM   14  C   UNL     1     -10.534  10.507  67.111  1.00  0.00    -0.249 C  
BRANCH  14  15
HETATM   15  N   UNL     1     -11.564  11.558  67.238  1.00  0.00    -0.560 NA 
HETATM   16  C   UNL     1     -11.210  12.553  68.261  1.00  0.00    -0.266 C  
HETATM   17  C   UNL     1      -9.967  13.368  67.869  1.00  0.00    -0.236 C  
HETATM   18  N   UNL     1     -10.124  14.158  66.627  1.00  0.00    -0.268 NA 
HETATM   19  C   UNL     1     -10.691  13.308  65.557  1.00  0.00    -0.289 C  
HETATM   20  C   UNL     1     -11.783  12.277  65.963  1.00  0.00    -0.388 C  
BRANCH  18  21
HETATM   21  C   UNL     1     -10.931  15.378  66.882  1.00  0.00    -0.294 C  
BRANCH  21  22
HETATM   22  C   UNL     1     -10.187  16.626  66.348  1.00  0.00    -0.315 C  
HETATM   23  N   UNL     1      -9.381  17.193  67.320  1.00  0.00    -0.239 N  
HETATM   24  O   UNL     1     -10.291  16.996  65.183  1.00  0.00    -0.632 OA 
HETATM   25  H   UNL     1      -9.360  16.716  68.222  1.00  0.00     0.000 HD 
BRANCH  23  26
HETATM   26  C   UNL     1      -8.588  18.347  67.210  1.00  0.00    -0.258 A  
HETATM   27  C   UNL     1      -9.053  19.639  67.532  1.00  0.00    -0.396 A  
HETATM   28  C   UNL     1      -8.165  20.724  67.424  1.00  0.00    -0.225 A  
HETATM   29  C   UNL     1     -10.431  19.944  68.051  1.00  0.00    -0.490 C  
HETATM   30  C   UNL     1      -6.838  20.533  67.052  1.00  0.00    -0.336 A  
HETATM   31  C   UNL     1      -6.373  19.254  66.774  1.00  0.00    -0.190 A  
HETATM   32  C   UNL     1      -7.235  18.151  66.850  1.00  0.00    -0.229 A  
HETATM   33  C   UNL     1      -6.711  16.792  66.465  1.00  0.00    -0.173 C  
ENDBRANCH  23  26
ENDBRANCH  21  22
ENDBRANCH  18  21
ENDBRANCH  14  15
ENDBRANCH  11  14
ENDBRANCH  10  11
ENDBRANCH   9  10
ENDBRANCH   8   9
ENDBRANCH   2   3
TORSDOF 9
ENDMDL
MODEL       69
REMARK 921   NORMALIZED FREE ENERGY PREDICTED BY IDOCK:   -5.57 KCAL/MOL
REMARK 922        TOTAL FREE ENERGY PREDICTED BY IDOCK:   -9.60 KCAL/MOL
REMARK 923 INTER-LIGAND FREE ENERGY PREDICTED BY IDOCK:   -7.99 KCAL/MOL
REMARK 924 INTRA-LIGAND FREE ENERGY PREDICTED BY IDOCK:   -1.61 KCAL/MOL
REMARK 927      BINDING AFFINITY PREDICTED BY RF-SCORE:    0.00 PKD
ROOT
HETATM    1  C   UNL     1     -13.417   7.334  71.405  1.00  0.00    -0.321 C  
HETATM    2  O   UNL     1     -12.288   6.577  70.979  1.00  0.00    -0.295 OA 
ENDROOT
BRANCH   2   3
HETATM    3  C   UNL     1     -11.234   6.520  71.852  1.00  0.00    -0.272 A  
HETATM    4  C   UNL     1     -11.057   7.501  72.845  1.00  0.00    -0.426 A  
HETATM    5  C   UNL     1      -9.977   7.449  73.724  1.00  0.00    -0.333 A  
HETATM    6  C   UNL     1      -9.062   6.407  73.632  1.00  0.00    -0.140 A  
HETATM    7  C   UNL     1      -9.244   5.411  72.673  1.00  0.00    -0.145 A  
HETATM    8  C   UNL     1     -10.331   5.442  71.787  1.00  0.00    -0.212 A  
BRANCH   8   9
HETATM    9  O   UNL     1     -10.340   4.360  70.943  1.00  0.00    -0.113 OA 
BRANCH   9  10
HETATM   10  C   UNL     1      -9.190   3.516  70.907  1.00  0.00    -0.131 C  
BRANCH  10  11
HETATM   11  C   UNL     1      -8.756   3.287  69.447  1.00  0.00    -0.079 C  
HETATM   12  H   UNL     1      -8.573   1.760  68.175  1.00  0.00     0.000 HD 
HETATM   13  O   UNL     1      -8.840   1.902  69.075  1.00  0.00    -0.069 OA 
BRANCH  11  14
HETATM   14  C   UNL     1      -9.639   4.106  68.470  1.00  0.00    -0.125 C  
BRANCH  14  15
HETATM   15  N   UNL     1      -8.912   5.103  67.657  1.00  0.00    -0.109 NA 
HETATM   16  C   UNL     1      -9.693   5.532  66.488  1.00  0.00    -0.162 C  
HETATM   17  C   UNL     1     -10.958   6.307  66.890  1.00  0.00    -0.329 C  
HETATM   18  N   UNL     1     -10.693   7.559  67.634  1.00  0.00    -0.224 NA 
HETATM   19  C   UNL     1      -9.730   7.302  68.727  1.00  0.00    -0.151 C  
HETATM   20  C   UNL     1      -8.566   6.311  68.439  1.00  0.00    -0.114 C  
BRANCH  18  21
HETATM   21  C   UNL     1     -10.244   8.631  66.710  1.00  0.00    -0.291 C  
BRANCH  21  22
HETATM   22  C   UNL     1     -10.155   9.979  67.466  1.00  0.00    -0.198 C  
HETATM   23  N   UNL     1     -11.408  10.447  67.820  1.00  0.00    -0.426 N  
HETATM   24  O   UNL     1      -9.079  10.501  67.740  1.00  0.00    -0.137 OA 
HETATM   25  H   UNL     1     -12.198   9.852  67.571  1.00  0.00     0.000 HD 
BRANCH  23  26
HETATM   26  C   UNL     1     -11.720  11.646  68.482  1.00  0.00    -0.315 A  
HETATM   27  C   UNL     1     -11.910  11.733  69.878  1.00  0.00    -0.423 A  
HETATM   28  C   UNL     1     -12.181  12.990  70.446  1.00  0.00    -0.386 A  
HETATM   29  C   UNL     1     -11.783  10.575  70.829  1.00  0.00    -0.454 C  
HETATM   30  C   UNL     1     -12.215  14.141  69.665  1.00  0.00    -0.376 A  
HETATM   31  C   UNL     1     -11.987  14.057  68.297  1.00  0.00    -0.384 A  
HETATM   32  C   UNL     1     -11.738  12.818  67.692  1.00  0.00    -0.422 A  
HETATM   33  C   UNL     1     -11.574  12.761  66.195  1.00  0.00    -0.431 C  
ENDBRANCH  23  26
ENDBRANCH  21  22
ENDBRANCH  18  21
ENDBRANCH  14  15
ENDBRANCH  11  14
ENDBRANCH  10  11
ENDBRANCH   9  10
ENDBRANCH   8   9
ENDBRANCH   2   3
TORSDOF 9
ENDMDL
MODEL       70
REMARK 921   NORMALIZED FREE ENERGY PREDICTED BY IDOCK:   -5.57 KCAL/MOL
REMARK 922        TOTAL FREE ENERGY PREDICTED BY IDOCK:   -9.59 KCAL/MOL
REMARK 923 INTER-LIGAND FREE ENERGY PREDICTED BY IDOCK:   -8.50 KCAL/MOL
REMARK 924 INTRA-LIGAND FREE ENERGY PREDICTED BY IDOCK:   -1.09 KCAL/MOL
REMARK 927      BINDING AFFINITY PREDICTED BY RF-SCORE:    0.00 PKD
ROOT
HETATM    1  C   UNL     1     -12.305  12.514  63.386  1.00  0.00    -0.477 C  
HETATM    2  O   UNL     1     -10.895  12.654  63.531  1.00  0.00    -0.429 OA 
ENDROOT
BRANCH   2   3
HETATM    3  C   UNL     1     -10.191  11.499  63.750  1.00  0.00    -0.382 A  
HETATM    4  C   UNL     1      -9.395  10.930  62.739  1.00  0.00    -0.366 A  
HETATM    5  C   UNL     1      -8.690   9.748  62.958  1.00  0.00    -0.228 A  
HETATM    6  C   UNL     1      -8.761   9.122  64.196  1.00  0.00    -0.170 A  
HETATM    7  C   UNL     1      -9.520   9.693  65.216  1.00  0.00    -0.342 A  
HETATM    8  C   UNL     1     -10.228  10.888  65.017  1.00  0.00    -0.303 A  
BRANCH   8   9
HETATM    9  O   UNL     1     -10.889  11.292  66.150  1.00  0.00    -0.267 OA 
BRANCH   9  10
HETATM   10  C   UNL     1     -10.880  10.429  67.287  1.00  0.00    -0.264 C  
BRANCH  10  11
HETATM   11  C   UNL     1     -11.825  10.983  68.370  1.00  0.00    -0.184 C  
HETATM   12  H   UNL     1     -12.010  10.913  70.355  1.00  0.00     0.000 HD 
HETATM   13  O   UNL     1     -11.427  10.572  69.687  1.00  0.00    -0.247 OA 
BRANCH  11  14
HETATM   14  C   UNL     1     -11.863  12.532  68.335  1.00  0.00    -0.304 C  
BRANCH  14  15
HETATM   15  N   UNL     1     -10.958  13.201  69.290  1.00  0.00    -0.141 NA 
HETATM   16  C   UNL     1      -9.989  14.073  68.610  1.00  0.00    -0.203 C  
HETATM   17  C   UNL     1     -10.669  15.268  67.924  1.00  0.00    -0.275 C  
HETATM   18  N   UNL     1     -11.390  16.172  68.848  1.00  0.00    -0.355 NA 
HETATM   19  C   UNL     1     -12.253  15.382  69.754  1.00  0.00    -0.306 C  
HETATM   20  C   UNL     1     -11.697  14.025  70.273  1.00  0.00    -0.238 C  
BRANCH  18  21
HETATM   21  C   UNL     1     -10.434  17.043  69.577  1.00  0.00    -0.182 C  
BRANCH  21  22
HETATM   22  C   UNL     1      -9.697  17.971  68.580  1.00  0.00    -0.352 C  
HETATM   23  N   UNL     1      -8.327  17.777  68.622  1.00  0.00    -0.295 N  
HETATM   24  O   UNL     1     -10.302  18.728  67.828  1.00  0.00    -0.371 OA 
HETATM   25  H   UNL     1      -7.995  17.055  69.262  1.00  0.00     0.000 HD 
BRANCH  23  26
HETATM   26  C   UNL     1      -7.343  18.457  67.888  1.00  0.00    -0.235 A  
HETATM   27  C   UNL     1      -6.576  19.517  68.418  1.00  0.00    -0.295 A  
HETATM   28  C   UNL     1      -5.587  20.106  67.610  1.00  0.00    -0.203 A  
HETATM   29  C   UNL     1      -6.694  20.034  69.825  1.00  0.00    -0.286 C  
HETATM   30  C   UNL     1      -5.328  19.631  66.328  1.00  0.00    -0.163 A  
HETATM   31  C   UNL     1      -6.057  18.560  65.825  1.00  0.00    -0.259 A  
HETATM   32  C   UNL     1      -7.067  17.963  66.593  1.00  0.00    -0.254 A  
HETATM   33  C   UNL     1      -7.886  16.857  65.980  1.00  0.00    -0.126 C  
ENDBRANCH  23  26
ENDBRANCH  21  22
ENDBRANCH  18  21
ENDBRANCH  14  15
ENDBRANCH  11  14
ENDBRANCH  10  11
ENDBRANCH   9  10
ENDBRANCH   8   9
ENDBRANCH   2   3
TORSDOF 9
ENDMDL
MODEL       71
REMARK 921   NORMALIZED FREE ENERGY PREDICTED BY IDOCK:   -5.54 KCAL/MOL
REMARK 922        TOTAL FREE ENERGY PREDICTED BY IDOCK:   -9.55 KCAL/MOL
REMARK 923 INTER-LIGAND FREE ENERGY PREDICTED BY IDOCK:   -8.12 KCAL/MOL
REMARK 924 INTRA-LIGAND FREE ENERGY PREDICTED BY IDOCK:   -1.43 KCAL/MOL
REMARK 927      BINDING AFFINITY PREDICTED BY RF-SCORE:    0.00 PKD
ROOT
HETATM    1  C   UNL     1      -8.892  14.822  67.297  1.00  0.00    -0.204 C  
HETATM    2  O   UNL     1      -9.230  13.458  67.057  1.00  0.00    -0.226 OA 
ENDROOT
BRANCH   2   3
HETATM    3  C   UNL     1     -10.322  13.237  66.259  1.00  0.00    -0.290 A  
HETATM    4  C   UNL     1     -11.464  14.054  66.346  1.00  0.00    -0.361 A  
HETATM    5  C   UNL     1     -12.579  13.821  65.543  1.00  0.00    -0.551 A  
HETATM    6  C   UNL     1     -12.564  12.772  64.631  1.00  0.00    -0.491 A  
HETATM    7  C   UNL     1     -11.426  11.975  64.513  1.00  0.00    -0.385 A  
HETATM    8  C   UNL     1     -10.291  12.203  65.305  1.00  0.00    -0.277 A  
BRANCH   8   9
HETATM    9  O   UNL     1      -9.275  11.326  65.016  1.00  0.00    -0.203 OA 
BRANCH   9  10
HETATM   10  C   UNL     1      -9.493  10.343  64.006  1.00  0.00    -0.299 C  
BRANCH  10  11
HETATM   11  C   UNL     1      -8.247   9.446  63.873  1.00  0.00    -0.165 C  
HETATM   12  H   UNL     1      -7.063   8.756  62.424  1.00  0.00     0.000 HD 
HETATM   13  O   UNL     1      -7.831   9.309  62.505  1.00  0.00    -0.115 OA 
BRANCH  11  14
HETATM   14  C   UNL     1      -7.059  10.021  64.688  1.00  0.00    -0.140 C  
BRANCH  14  15
HETATM   15  N   UNL     1      -6.513   9.118  65.720  1.00  0.00    -0.063 NA 
HETATM   16  C   UNL     1      -6.101   9.848  66.927  1.00  0.00    -0.063 C  
HETATM   17  C   UNL     1      -7.296  10.482  67.656  1.00  0.00    -0.087 C  
HETATM   18  N   UNL     1      -8.299   9.507  68.142  1.00  0.00    -0.118 NA 
HETATM   19  C   UNL     1      -8.643   8.557  67.062  1.00  0.00    -0.121 C  
HETATM   20  C   UNL     1      -7.492   8.085  66.128  1.00  0.00    -0.075 C  
BRANCH  18  21
HETATM   21  C   UNL     1      -7.816   8.831  69.372  1.00  0.00    -0.095 C  
BRANCH  21  22
HETATM   22  C   UNL     1      -8.854   8.998  70.510  1.00  0.00    -0.208 C  
HETATM   23  N   UNL     1     -10.149   8.878  70.038  1.00  0.00    -0.186 N  
HETATM   24  O   UNL     1      -8.517   9.160  71.678  1.00  0.00    -0.344 OA 
HETATM   25  H   UNL     1     -10.249   8.675  69.043  1.00  0.00     0.000 HD 
BRANCH  23  26
HETATM   26  C   UNL     1     -11.342   9.002  70.769  1.00  0.00    -0.277 A  
HETATM   27  C   UNL     1     -11.845   7.987  71.609  1.00  0.00    -0.329 A  
HETATM   28  C   UNL     1     -13.030   8.228  72.327  1.00  0.00    -0.289 A  
HETATM   29  C   UNL     1     -11.169   6.665  71.847  1.00  0.00    -0.302 C  
HETATM   30  C   UNL     1     -13.677   9.458  72.256  1.00  0.00    -0.495 A  
HETATM   31  C   UNL     1     -13.156  10.470  71.459  1.00  0.00    -0.532 A  
HETATM   32  C   UNL     1     -11.990  10.258  70.710  1.00  0.00    -0.456 A  
HETATM   33  C   UNL     1     -11.503  11.354  69.799  1.00  0.00    -0.376 C  
ENDBRANCH  23  26
ENDBRANCH  21  22
ENDBRANCH  18  21
ENDBRANCH  14  15
ENDBRANCH  11  14
ENDBRANCH  10  11
ENDBRANCH   9  10
ENDBRANCH   8   9
ENDBRANCH   2   3
TORSDOF 9
ENDMDL
MODEL       72
REMARK 921   NORMALIZED FREE ENERGY PREDICTED BY IDOCK:   -5.52 KCAL/MOL
REMARK 922        TOTAL FREE ENERGY PREDICTED BY IDOCK:   -9.52 KCAL/MOL
REMARK 923 INTER-LIGAND FREE ENERGY PREDICTED BY IDOCK:   -7.68 KCAL/MOL
REMARK 924 INTRA-LIGAND FREE ENERGY PREDICTED BY IDOCK:   -1.84 KCAL/MOL
REMARK 927      BINDING AFFINITY PREDICTED BY RF-SCORE:    0.00 PKD
ROOT
HETATM    1  C   UNL     1      -5.781   7.255  68.333  1.00  0.00    -0.023 C  
HETATM    2  O   UNL     1      -7.031   7.377  69.007  1.00  0.00    -0.072 OA 
ENDROOT
BRANCH   2   3
HETATM    3  C   UNL     1      -8.129   6.911  68.333  1.00  0.00    -0.120 A  
HETATM    4  C   UNL     1      -8.488   7.435  67.078  1.00  0.00    -0.118 A  
HETATM    5  C   UNL     1      -9.613   6.970  66.399  1.00  0.00    -0.159 A  
HETATM    6  C   UNL     1     -10.391   5.965  66.961  1.00  0.00    -0.298 A  
HETATM    7  C   UNL     1     -10.027   5.415  68.189  1.00  0.00    -0.207 A  
HETATM    8  C   UNL     1      -8.892   5.863  68.881  1.00  0.00    -0.115 A  
BRANCH   8   9
HETATM    9  O   UNL     1      -8.698   5.177  70.054  1.00  0.00    -0.104 OA 
BRANCH   9  10
HETATM   10  C   UNL     1      -9.404   3.953  70.251  1.00  0.00    -0.168 C  
BRANCH  10  11
HETATM   11  C   UNL     1      -9.967   3.900  71.684  1.00  0.00    -0.153 C  
HETATM   12  H   UNL     1      -9.779   2.761  73.311  1.00  0.00     0.000 HD 
HETATM   13  O   UNL     1      -9.432   2.794  72.428  1.00  0.00    -0.097 OA 
BRANCH  11  14
HETATM   14  C   UNL     1      -9.645   5.206  72.456  1.00  0.00    -0.149 C  
BRANCH  14  15
HETATM   15  N   UNL     1     -10.823   5.933  72.972  1.00  0.00    -0.253 NA 
HETATM   16  C   UNL     1     -10.447   7.204  73.610  1.00  0.00    -0.370 C  
HETATM   17  C   UNL     1      -9.867   8.208  72.601  1.00  0.00    -0.294 C  
HETATM   18  N   UNL     1     -10.805   8.600  71.525  1.00  0.00    -0.259 NA 
HETATM   19  C   UNL     1     -11.430   7.396  70.936  1.00  0.00    -0.286 C  
HETATM   20  C   UNL     1     -11.801   6.235  71.903  1.00  0.00    -0.305 C  
BRANCH  18  21
HETATM   21  C   UNL     1     -11.801   9.577  72.033  1.00  0.00    -0.156 C  
BRANCH  21  22
HETATM   22  C   UNL     1     -12.365  10.416  70.859  1.00  0.00    -0.381 C  
HETATM   23  N   UNL     1     -11.387  11.207  70.284  1.00  0.00    -0.475 N  
HETATM   24  O   UNL     1     -13.531  10.316  70.490  1.00  0.00    -0.175 OA 
HETATM   25  H   UNL     1     -10.449  11.119  70.674  1.00  0.00     0.000 HD 
BRANCH  23  26
HETATM   26  C   UNL     1     -11.535  12.118  69.225  1.00  0.00    -0.302 A  
HETATM   27  C   UNL     1     -11.880  13.473  69.412  1.00  0.00    -0.389 A  
HETATM   28  C   UNL     1     -11.965  14.311  68.286  1.00  0.00    -0.346 A  
HETATM   29  C   UNL     1     -12.109  14.118  70.751  1.00  0.00    -0.419 C  
HETATM   30  C   UNL     1     -11.669  13.837  67.012  1.00  0.00    -0.420 A  
HETATM   31  C   UNL     1     -11.290  12.511  66.836  1.00  0.00    -0.383 A  
HETATM   32  C   UNL     1     -11.218  11.641  67.933  1.00  0.00    -0.334 A  
HETATM   33  C   UNL     1     -10.879  10.193  67.689  1.00  0.00    -0.346 C  
ENDBRANCH  23  26
ENDBRANCH  21  22
ENDBRANCH  18  21
ENDBRANCH  14  15
ENDBRANCH  11  14
ENDBRANCH  10  11
ENDBRANCH   9  10
ENDBRANCH   8   9
ENDBRANCH   2   3
TORSDOF 9
ENDMDL
MODEL       73
REMARK 921   NORMALIZED FREE ENERGY PREDICTED BY IDOCK:   -5.50 KCAL/MOL
REMARK 922        TOTAL FREE ENERGY PREDICTED BY IDOCK:   -9.49 KCAL/MOL
REMARK 923 INTER-LIGAND FREE ENERGY PREDICTED BY IDOCK:   -7.93 KCAL/MOL
REMARK 924 INTRA-LIGAND FREE ENERGY PREDICTED BY IDOCK:   -1.56 KCAL/MOL
REMARK 927      BINDING AFFINITY PREDICTED BY RF-SCORE:    0.00 PKD
ROOT
HETATM    1  C   UNL     1     -12.025  14.026  67.139  1.00  0.00    -0.430 C  
HETATM    2  O   UNL     1     -11.108  13.934  68.225  1.00  0.00    -0.241 OA 
ENDROOT
BRANCH   2   3
HETATM    3  C   UNL     1     -11.568  14.361  69.443  1.00  0.00    -0.304 A  
HETATM    4  C   UNL     1     -12.378  13.536  70.244  1.00  0.00    -0.370 A  
HETATM    5  C   UNL     1     -12.857  13.976  71.477  1.00  0.00    -0.440 A  
HETATM    6  C   UNL     1     -12.522  15.245  71.934  1.00  0.00    -0.427 A  
HETATM    7  C   UNL     1     -11.693  16.059  71.164  1.00  0.00    -0.487 A  
HETATM    8  C   UNL     1     -11.193  15.629  69.926  1.00  0.00    -0.331 A  
BRANCH   8   9
HETATM    9  O   UNL     1     -10.380  16.568  69.342  1.00  0.00    -0.286 OA 
BRANCH   9  10
HETATM   10  C   UNL     1     -10.909  17.360  68.280  1.00  0.00    -0.256 C  
BRANCH  10  11
HETATM   11  C   UNL     1      -9.768  18.119  67.576  1.00  0.00    -0.303 C  
HETATM   12  H   UNL     1      -9.431  19.942  66.840  1.00  0.00     0.000 HD 
HETATM   13  O   UNL     1     -10.135  19.474  67.274  1.00  0.00    -0.355 OA 
BRANCH  11  14
HETATM   14  C   UNL     1      -8.492  18.145  68.458  1.00  0.00    -0.299 C  
BRANCH  14  15
HETATM   15  N   UNL     1      -7.290  17.556  67.835  1.00  0.00    -0.198 NA 
HETATM   16  C   UNL     1      -6.502  16.772  68.797  1.00  0.00    -0.170 C  
HETATM   17  C   UNL     1      -7.256  15.524  69.282  1.00  0.00    -0.196 C  
HETATM   18  N   UNL     1      -7.590  14.560  68.208  1.00  0.00    -0.112 NA 
HETATM   19  C   UNL     1      -8.203  15.270  67.065  1.00  0.00    -0.233 C  
HETATM   20  C   UNL     1      -7.630  16.670  66.699  1.00  0.00    -0.279 C  
BRANCH  18  21
HETATM   21  C   UNL     1      -6.392  13.773  67.822  1.00  0.00    -0.162 C  
BRANCH  21  22
HETATM   22  C   UNL     1      -6.818  12.371  67.321  1.00  0.00    -0.127 C  
HETATM   23  N   UNL     1      -8.051  12.002  67.830  1.00  0.00    -0.139 N  
HETATM   24  O   UNL     1      -6.136  11.729  66.528  1.00  0.00    -0.127 OA 
HETATM   25  H   UNL     1      -8.515  12.687  68.425  1.00  0.00     0.000 HD 
BRANCH  23  26
HETATM   26  C   UNL     1      -8.737  10.794  67.622  1.00  0.00    -0.126 A  
HETATM   27  C   UNL     1      -9.538  10.545  66.488  1.00  0.00    -0.216 A  
HETATM   28  C   UNL     1     -10.152   9.286  66.357  1.00  0.00    -0.337 A  
HETATM   29  C   UNL     1      -9.742  11.515  65.357  1.00  0.00    -0.262 C  
HETATM   30  C   UNL     1      -9.942   8.282  67.297  1.00  0.00    -0.289 A  
HETATM   31  C   UNL     1      -9.119   8.518  68.392  1.00  0.00    -0.139 A  
HETATM   32  C   UNL     1      -8.509   9.768  68.567  1.00  0.00    -0.115 A  
HETATM   33  C   UNL     1      -7.689  10.007  69.807  1.00  0.00    -0.173 C  
ENDBRANCH  23  26
ENDBRANCH  21  22
ENDBRANCH  18  21
ENDBRANCH  14  15
ENDBRANCH  11  14
ENDBRANCH  10  11
ENDBRANCH   9  10
ENDBRANCH   8   9
ENDBRANCH   2   3
TORSDOF 9
ENDMDL
MODEL       74
REMARK 921   NORMALIZED FREE ENERGY PREDICTED BY IDOCK:   -5.48 KCAL/MOL
REMARK 922        TOTAL FREE ENERGY PREDICTED BY IDOCK:   -9.46 KCAL/MOL
REMARK 923 INTER-LIGAND FREE ENERGY PREDICTED BY IDOCK:   -8.39 KCAL/MOL
REMARK 924 INTRA-LIGAND FREE ENERGY PREDICTED BY IDOCK:   -1.08 KCAL/MOL
REMARK 927      BINDING AFFINITY PREDICTED BY RF-SCORE:    0.00 PKD
ROOT
HETATM    1  C   UNL     1     -11.286   6.289  69.347  1.00  0.00    -0.420 C  
HETATM    2  O   UNL     1     -10.952   6.871  70.604  1.00  0.00    -0.242 OA 
ENDROOT
BRANCH   2   3
HETATM    3  C   UNL     1     -11.532   8.080  70.883  1.00  0.00    -0.276 A  
HETATM    4  C   UNL     1     -12.586   8.186  71.810  1.00  0.00    -0.360 A  
HETATM    5  C   UNL     1     -13.184   9.414  72.083  1.00  0.00    -0.541 A  
HETATM    6  C   UNL     1     -12.729  10.561  71.443  1.00  0.00    -0.547 A  
HETATM    7  C   UNL     1     -11.664  10.475  70.547  1.00  0.00    -0.443 A  
HETATM    8  C   UNL     1     -11.043   9.248  70.268  1.00  0.00    -0.251 A  
BRANCH   8   9
HETATM    9  O   UNL     1     -10.004   9.385  69.382  1.00  0.00    -0.170 OA 
BRANCH   9  10
HETATM   10  C   UNL     1      -8.671   9.386  69.892  1.00  0.00    -0.197 C  
BRANCH  10  11
HETATM   11  C   UNL     1      -7.671   9.164  68.741  1.00  0.00    -0.087 C  
HETATM   12  H   UNL     1      -7.628   8.249  66.969  1.00  0.00     0.000 HD 
HETATM   13  O   UNL     1      -8.244   8.385  67.679  1.00  0.00    -0.123 OA 
BRANCH  11  14
HETATM   14  C   UNL     1      -7.196  10.517  68.150  1.00  0.00    -0.087 C  
BRANCH  14  15
HETATM   15  N   UNL     1      -7.469  11.698  68.994  1.00  0.00    -0.089 NA 
HETATM   16  C   UNL     1      -6.230  12.335  69.464  1.00  0.00    -0.127 C  
HETATM   17  C   UNL     1      -5.419  12.946  68.310  1.00  0.00    -0.075 C  
HETATM   18  N   UNL     1      -6.126  14.017  67.571  1.00  0.00    -0.346 NA 
HETATM   19  C   UNL     1      -7.493  13.574  67.224  1.00  0.00    -0.039 C  
HETATM   20  C   UNL     1      -8.260  12.723  68.276  1.00  0.00    -0.159 C  
BRANCH  18  21
HETATM   21  C   UNL     1      -6.110  15.283  68.347  1.00  0.00    -0.105 C  
BRANCH  21  22
HETATM   22  C   UNL     1      -6.671  16.440  67.484  1.00  0.00    -0.153 C  
HETATM   23  N   UNL     1      -7.804  16.995  68.052  1.00  0.00    -0.178 N  
HETATM   24  O   UNL     1      -6.112  16.816  66.459  1.00  0.00    -0.292 OA 
HETATM   25  H   UNL     1      -8.098  16.603  68.947  1.00  0.00     0.000 HD 
BRANCH  23  26
HETATM   26  C   UNL     1      -8.598  18.034  67.540  1.00  0.00    -0.244 A  
HETATM   27  C   UNL     1      -8.299  19.400  67.726  1.00  0.00    -0.340 A  
HETATM   28  C   UNL     1      -9.139  20.363  67.138  1.00  0.00    -0.489 A  
HETATM   29  C   UNL     1      -7.095  19.916  68.465  1.00  0.00    -0.336 C  
HETATM   30  C   UNL     1     -10.220  19.987  66.347  1.00  0.00    -0.598 A  
HETATM   31  C   UNL     1     -10.488  18.641  66.132  1.00  0.00    -0.473 A  
HETATM   32  C   UNL     1      -9.686  17.653  66.722  1.00  0.00    -0.300 A  
HETATM   33  C   UNL     1     -10.057  16.206  66.528  1.00  0.00    -0.301 C  
ENDBRANCH  23  26
ENDBRANCH  21  22
ENDBRANCH  18  21
ENDBRANCH  14  15
ENDBRANCH  11  14
ENDBRANCH  10  11
ENDBRANCH   9  10
ENDBRANCH   8   9
ENDBRANCH   2   3
TORSDOF 9
ENDMDL
MODEL       75
REMARK 921   NORMALIZED FREE ENERGY PREDICTED BY IDOCK:   -5.46 KCAL/MOL
REMARK 922        TOTAL FREE ENERGY PREDICTED BY IDOCK:   -9.43 KCAL/MOL
REMARK 923 INTER-LIGAND FREE ENERGY PREDICTED BY IDOCK:   -8.62 KCAL/MOL
REMARK 924 INTRA-LIGAND FREE ENERGY PREDICTED BY IDOCK:   -0.81 KCAL/MOL
REMARK 927      BINDING AFFINITY PREDICTED BY RF-SCORE:    0.00 PKD
ROOT
HETATM    1  C   UNL     1     -12.620   7.074  71.698  1.00  0.00    -0.380 C  
HETATM    2  O   UNL     1     -12.274   6.820  70.339  1.00  0.00    -0.324 OA 
ENDROOT
BRANCH   2   3
HETATM    3  C   UNL     1     -10.965   6.492  70.100  1.00  0.00    -0.317 A  
HETATM    4  C   UNL     1     -10.431   5.265  70.534  1.00  0.00    -0.312 A  
HETATM    5  C   UNL     1      -9.097   4.938  70.302  1.00  0.00    -0.165 A  
HETATM    6  C   UNL     1      -8.277   5.829  69.620  1.00  0.00    -0.108 A  
HETATM    7  C   UNL     1      -8.803   7.034  69.155  1.00  0.00    -0.135 A  
HETATM    8  C   UNL     1     -10.146   7.375  69.371  1.00  0.00    -0.185 A  
BRANCH   8   9
HETATM    9  O   UNL     1     -10.467   8.587  68.814  1.00  0.00    -0.217 OA 
BRANCH   9  10
HETATM   10  C   UNL     1     -10.192   8.794  67.429  1.00  0.00    -0.252 C  
BRANCH  10  11
HETATM   11  C   UNL     1      -9.668  10.226  67.210  1.00  0.00    -0.166 C  
HETATM   12  H   UNL     1      -7.990  11.116  66.598  1.00  0.00     0.000 HD 
HETATM   13  O   UNL     1      -8.313  10.233  66.734  1.00  0.00    -0.122 OA 
BRANCH  11  14
HETATM   14  C   UNL     1     -10.547  10.987  66.183  1.00  0.00    -0.228 C  
BRANCH  14  15
HETATM   15  N   UNL     1     -11.669  11.751  66.766  1.00  0.00    -0.571 NA 
HETATM   16  C   UNL     1     -11.333  12.298  68.089  1.00  0.00    -0.295 C  
HETATM   17  C   UNL     1     -10.227  13.362  68.011  1.00  0.00    -0.243 C  
HETATM   18  N   UNL     1     -10.582  14.550  67.202  1.00  0.00    -0.271 NA 
HETATM   19  C   UNL     1     -11.150  14.126  65.904  1.00  0.00    -0.306 C  
HETATM   20  C   UNL     1     -12.081  12.880  65.902  1.00  0.00    -0.444 C  
BRANCH  18  21
HETATM   21  C   UNL     1     -11.489  15.447  67.963  1.00  0.00    -0.326 C  
BRANCH  21  22
HETATM   22  C   UNL     1     -10.722  16.711  68.422  1.00  0.00    -0.353 C  
HETATM   23  N   UNL     1      -9.889  17.190  67.426  1.00  0.00    -0.258 N  
HETATM   24  O   UNL     1     -10.905  17.217  69.524  1.00  0.00    -0.122 OA 
HETATM   25  H   UNL     1      -9.907  16.683  66.541  1.00  0.00     0.000 HD 
BRANCH  23  26
HETATM   26  C   UNL     1      -9.020  18.291  67.492  1.00  0.00    -0.253 A  
HETATM   27  C   UNL     1      -9.382  19.589  67.073  1.00  0.00    -0.416 A  
HETATM   28  C   UNL     1      -8.450  20.631  67.217  1.00  0.00    -0.306 A  
HETATM   29  C   UNL     1     -10.734  19.963  66.529  1.00  0.00    -0.447 C  
HETATM   30  C   UNL     1      -7.208  20.410  67.805  1.00  0.00    -0.334 A  
HETATM   31  C   UNL     1      -6.870  19.139  68.254  1.00  0.00    -0.283 A  
HETATM   32  C   UNL     1      -7.766  18.071  68.105  1.00  0.00    -0.274 A  
HETATM   33  C   UNL     1      -7.330  16.694  68.534  1.00  0.00    -0.201 C  
ENDBRANCH  23  26
ENDBRANCH  21  22
ENDBRANCH  18  21
ENDBRANCH  14  15
ENDBRANCH  11  14
ENDBRANCH  10  11
ENDBRANCH   9  10
ENDBRANCH   8   9
ENDBRANCH   2   3
TORSDOF 9
ENDMDL
MODEL       76
REMARK 921   NORMALIZED FREE ENERGY PREDICTED BY IDOCK:   -5.46 KCAL/MOL
REMARK 922        TOTAL FREE ENERGY PREDICTED BY IDOCK:   -9.42 KCAL/MOL
REMARK 923 INTER-LIGAND FREE ENERGY PREDICTED BY IDOCK:   -7.76 KCAL/MOL
REMARK 924 INTRA-LIGAND FREE ENERGY PREDICTED BY IDOCK:   -1.67 KCAL/MOL
REMARK 927      BINDING AFFINITY PREDICTED BY RF-SCORE:    0.00 PKD
ROOT
HETATM    1  C   UNL     1     -12.216  13.701  65.761  1.00  0.00    -0.464 C  
HETATM    2  O   UNL     1     -12.391  12.726  66.785  1.00  0.00    -0.431 OA 
ENDROOT
BRANCH   2   3
HETATM    3  C   UNL     1     -11.507  11.680  66.781  1.00  0.00    -0.225 A  
HETATM    4  C   UNL     1     -10.569  11.523  65.745  1.00  0.00    -0.315 A  
HETATM    5  C   UNL     1      -9.679  10.450  65.735  1.00  0.00    -0.285 A  
HETATM    6  C   UNL     1      -9.705   9.523  66.770  1.00  0.00    -0.254 A  
HETATM    7  C   UNL     1     -10.607   9.686  67.820  1.00  0.00    -0.320 A  
HETATM    8  C   UNL     1     -11.503  10.765  67.852  1.00  0.00    -0.227 A  
BRANCH   8   9
HETATM    9  O   UNL     1     -12.285  10.755  68.979  1.00  0.00    -0.421 OA 
BRANCH   9  10
HETATM   10  C   UNL     1     -11.866  11.525  70.105  1.00  0.00    -0.356 C  
BRANCH  10  11
HETATM   11  C   UNL     1     -12.345  10.853  71.405  1.00  0.00    -0.298 C  
HETATM   12  H   UNL     1     -13.702  11.179  72.832  1.00  0.00     0.000 HD 
HETATM   13  O   UNL     1     -13.407  11.593  72.030  1.00  0.00    -0.481 OA 
BRANCH  11  14
HETATM   14  C   UNL     1     -12.852   9.413  71.132  1.00  0.00    -0.251 C  
BRANCH  14  15
HETATM   15  N   UNL     1     -12.277   8.372  72.008  1.00  0.00    -0.339 NA 
HETATM   16  C   UNL     1     -12.452   7.024  71.446  1.00  0.00    -0.384 C  
HETATM   17  C   UNL     1     -11.651   6.831  70.148  1.00  0.00    -0.341 C  
HETATM   18  N   UNL     1     -10.186   6.975  70.311  1.00  0.00    -0.191 NA 
HETATM   19  C   UNL     1      -9.881   8.207  71.070  1.00  0.00    -0.179 C  
HETATM   20  C   UNL     1     -10.831   8.580  72.243  1.00  0.00    -0.348 C  
BRANCH  18  21
HETATM   21  C   UNL     1      -9.608   5.756  70.934  1.00  0.00    -0.168 C  
BRANCH  21  22
HETATM   22  C   UNL     1      -9.439   4.646  69.867  1.00  0.00    -0.167 C  
HETATM   23  N   UNL     1      -8.861   5.138  68.709  1.00  0.00    -0.093 N  
HETATM   24  O   UNL     1      -9.744   3.479  70.089  1.00  0.00    -0.180 OA 
HETATM   25  H   UNL     1      -8.606   6.125  68.717  1.00  0.00     0.000 HD 
BRANCH  23  26
HETATM   26  C   UNL     1      -8.586   4.436  67.524  1.00  0.00    -0.103 A  
HETATM   27  C   UNL     1      -7.492   3.557  67.382  1.00  0.00    -0.066 A  
HETATM   28  C   UNL     1      -7.328   2.873  66.165  1.00  0.00    -0.071 A  
HETATM   29  C   UNL     1      -6.504   3.242  68.471  1.00  0.00    -0.036 C  
HETATM   30  C   UNL     1      -8.247   3.015  65.130  1.00  0.00    -0.091 A  
HETATM   31  C   UNL     1      -9.346   3.851  65.288  1.00  0.00    -0.159 A  
HETATM   32  C   UNL     1      -9.529   4.567  66.479  1.00  0.00    -0.180 A  
HETATM   33  C   UNL     1     -10.690   5.521  66.581  1.00  0.00    -0.332 C  
ENDBRANCH  23  26
ENDBRANCH  21  22
ENDBRANCH  18  21
ENDBRANCH  14  15
ENDBRANCH  11  14
ENDBRANCH  10  11
ENDBRANCH   9  10
ENDBRANCH   8   9
ENDBRANCH   2   3
TORSDOF 9
ENDMDL
MODEL       77
REMARK 921   NORMALIZED FREE ENERGY PREDICTED BY IDOCK:   -5.45 KCAL/MOL
REMARK 922        TOTAL FREE ENERGY PREDICTED BY IDOCK:   -9.42 KCAL/MOL
REMARK 923 INTER-LIGAND FREE ENERGY PREDICTED BY IDOCK:   -8.46 KCAL/MOL
REMARK 924 INTRA-LIGAND FREE ENERGY PREDICTED BY IDOCK:   -0.96 KCAL/MOL
REMARK 927      BINDING AFFINITY PREDICTED BY RF-SCORE:    0.00 PKD
ROOT
HETATM    1  C   UNL     1     -10.656  19.835  65.357  1.00  0.00    -0.082 C  
HETATM    2  O   UNL     1     -10.692  18.414  65.258  1.00  0.00    -0.594 OA 
ENDROOT
BRANCH   2   3
HETATM    3  C   UNL     1     -10.524  17.722  66.427  1.00  0.00    -0.297 A  
HETATM    4  C   UNL     1     -10.167  18.380  67.618  1.00  0.00    -0.399 A  
HETATM    5  C   UNL     1      -9.984  17.673  68.805  1.00  0.00    -0.358 A  
HETATM    6  C   UNL     1     -10.166  16.295  68.822  1.00  0.00    -0.249 A  
HETATM    7  C   UNL     1     -10.552  15.636  67.656  1.00  0.00    -0.294 A  
HETATM    8  C   UNL     1     -10.752  16.333  66.455  1.00  0.00    -0.187 A  
BRANCH   8   9
HETATM    9  O   UNL     1     -11.150  15.504  65.437  1.00  0.00    -0.337 OA 
BRANCH   9  10
HETATM   10  C   UNL     1     -10.197  14.598  64.884  1.00  0.00    -0.287 C  
BRANCH  10  11
HETATM   11  C   UNL     1     -10.904  13.305  64.435  1.00  0.00    -0.403 C  
HETATM   12  H   UNL     1     -10.566  11.786  63.187  1.00  0.00     0.000 HD 
HETATM   13  O   UNL     1     -10.130  12.583  63.464  1.00  0.00    -0.393 OA 
BRANCH  11  14
HETATM   14  C   UNL     1     -11.166  12.368  65.642  1.00  0.00    -0.322 C  
BRANCH  14  15
HETATM   15  N   UNL     1      -9.962  11.721  66.204  1.00  0.00    -0.219 NA 
HETATM   16  C   UNL     1      -9.621  12.254  67.531  1.00  0.00    -0.184 C  
HETATM   17  C   UNL     1     -10.689  11.913  68.583  1.00  0.00    -0.235 C  
HETATM   18  N   UNL     1     -10.879  10.462  68.807  1.00  0.00    -0.218 NA 
HETATM   19  C   UNL     1     -11.018   9.764  67.510  1.00  0.00    -0.138 C  
HETATM   20  C   UNL     1     -10.127  10.256  66.333  1.00  0.00    -0.234 C  
BRANCH  18  21
HETATM   21  C   UNL     1      -9.780   9.914  69.642  1.00  0.00    -0.229 C  
BRANCH  21  22
HETATM   22  C   UNL     1     -10.362   9.233  70.905  1.00  0.00    -0.296 C  
HETATM   23  N   UNL     1      -9.669   8.080  71.227  1.00  0.00    -0.161 N  
HETATM   24  O   UNL     1     -11.291   9.725  71.538  1.00  0.00    -0.367 OA 
HETATM   25  H   UNL     1      -8.875   7.850  70.629  1.00  0.00     0.000 HD 
BRANCH  23  26
HETATM   26  C   UNL     1      -9.930   7.189  72.280  1.00  0.00    -0.172 A  
HETATM   27  C   UNL     1      -9.320   7.289  73.548  1.00  0.00    -0.253 A  
HETATM   28  C   UNL     1      -9.680   6.367  74.547  1.00  0.00    -0.329 A  
HETATM   29  C   UNL     1      -8.340   8.361  73.941  1.00  0.00    -0.170 C  
HETATM   30  C   UNL     1     -10.654   5.401  74.317  1.00  0.00    -0.232 A  
HETATM   31  C   UNL     1     -11.283   5.331  73.079  1.00  0.00    -0.387 A  
HETATM   32  C   UNL     1     -10.932   6.218  72.052  1.00  0.00    -0.299 A  
HETATM   33  C   UNL     1     -11.581   6.058  70.702  1.00  0.00    -0.132 C  
ENDBRANCH  23  26
ENDBRANCH  21  22
ENDBRANCH  18  21
ENDBRANCH  14  15
ENDBRANCH  11  14
ENDBRANCH  10  11
ENDBRANCH   9  10
ENDBRANCH   8   9
ENDBRANCH   2   3
TORSDOF 9
ENDMDL
MODEL       78
REMARK 921   NORMALIZED FREE ENERGY PREDICTED BY IDOCK:   -5.44 KCAL/MOL
REMARK 922        TOTAL FREE ENERGY PREDICTED BY IDOCK:   -9.39 KCAL/MOL
REMARK 923 INTER-LIGAND FREE ENERGY PREDICTED BY IDOCK:   -8.52 KCAL/MOL
REMARK 924 INTRA-LIGAND FREE ENERGY PREDICTED BY IDOCK:   -0.88 KCAL/MOL
REMARK 927      BINDING AFFINITY PREDICTED BY RF-SCORE:    0.00 PKD
ROOT
HETATM    1  C   UNL     1     -10.825   5.755  66.987  1.00  0.00    -0.241 C  
HETATM    2  O   UNL     1     -10.037   5.852  68.170  1.00  0.00    -0.142 OA 
ENDROOT
BRANCH   2   3
HETATM    3  C   UNL     1     -10.493   6.717  69.130  1.00  0.00    -0.219 A  
HETATM    4  C   UNL     1     -11.516   6.343  70.020  1.00  0.00    -0.496 A  
HETATM    5  C   UNL     1     -11.988   7.228  70.987  1.00  0.00    -0.362 A  
HETATM    6  C   UNL     1     -11.434   8.499  71.088  1.00  0.00    -0.322 A  
HETATM    7  C   UNL     1     -10.396   8.869  70.234  1.00  0.00    -0.235 A  
HETATM    8  C   UNL     1      -9.902   7.987  69.261  1.00  0.00    -0.178 A  
BRANCH   8   9
HETATM    9  O   UNL     1      -8.868   8.536  68.544  1.00  0.00    -0.138 OA 
BRANCH   9  10
HETATM   10  C   UNL     1      -9.017   8.671  67.132  1.00  0.00    -0.132 C  
BRANCH  10  11
HETATM   11  C   UNL     1      -8.929  10.158  66.737  1.00  0.00    -0.132 C  
HETATM   12  H   UNL     1      -8.376  11.244  65.157  1.00  0.00     0.000 HD 
HETATM   13  O   UNL     1      -8.431  10.327  65.401  1.00  0.00    -0.148 OA 
BRANCH  11  14
HETATM   14  C   UNL     1     -10.319  10.840  66.828  1.00  0.00    -0.243 C  
BRANCH  14  15
HETATM   15  N   UNL     1     -10.454  11.843  67.903  1.00  0.00    -0.199 NA 
HETATM   16  C   UNL     1      -9.438  12.901  67.798  1.00  0.00    -0.202 C  
HETATM   17  C   UNL     1      -9.625  13.758  66.536  1.00  0.00    -0.285 C  
HETATM   18  N   UNL     1     -10.916  14.480  66.476  1.00  0.00    -0.315 NA 
HETATM   19  C   UNL     1     -12.027  13.555  66.787  1.00  0.00    -0.404 C  
HETATM   20  C   UNL     1     -11.785  12.490  67.896  1.00  0.00    -0.359 C  
BRANCH  18  21
HETATM   21  C   UNL     1     -10.890  15.669  67.366  1.00  0.00    -0.315 C  
BRANCH  21  22
HETATM   22  C   UNL     1     -10.004  16.777  66.743  1.00  0.00    -0.282 C  
HETATM   23  N   UNL     1      -9.272  17.445  67.709  1.00  0.00    -0.245 N  
HETATM   24  O   UNL     1      -9.952  16.963  65.532  1.00  0.00    -0.572 OA 
HETATM   25  H   UNL     1      -9.385  17.116  68.668  1.00  0.00     0.000 HD 
BRANCH  23  26
HETATM   26  C   UNL     1      -8.392  18.524  67.523  1.00  0.00    -0.257 A  
HETATM   27  C   UNL     1      -7.048  18.366  67.125  1.00  0.00    -0.212 A  
HETATM   28  C   UNL     1      -6.261  19.515  66.930  1.00  0.00    -0.187 A  
HETATM   29  C   UNL     1      -6.396  17.044  66.829  1.00  0.00    -0.246 C  
HETATM   30  C   UNL     1      -6.800  20.789  67.076  1.00  0.00    -0.385 A  
HETATM   31  C   UNL     1      -8.135  20.941  67.429  1.00  0.00    -0.158 A  
HETATM   32  C   UNL     1      -8.944  19.818  67.655  1.00  0.00    -0.402 A  
HETATM   33  C   UNL     1     -10.364  20.027  68.111  1.00  0.00    -0.503 C  
ENDBRANCH  23  26
ENDBRANCH  21  22
ENDBRANCH  18  21
ENDBRANCH  14  15
ENDBRANCH  11  14
ENDBRANCH  10  11
ENDBRANCH   9  10
ENDBRANCH   8   9
ENDBRANCH   2   3
TORSDOF 9
ENDMDL
MODEL       79
REMARK 921   NORMALIZED FREE ENERGY PREDICTED BY IDOCK:   -5.41 KCAL/MOL
REMARK 922        TOTAL FREE ENERGY PREDICTED BY IDOCK:   -9.35 KCAL/MOL
REMARK 923 INTER-LIGAND FREE ENERGY PREDICTED BY IDOCK:   -8.37 KCAL/MOL
REMARK 924 INTRA-LIGAND FREE ENERGY PREDICTED BY IDOCK:   -0.98 KCAL/MOL
REMARK 927      BINDING AFFINITY PREDICTED BY RF-SCORE:    0.00 PKD
ROOT
HETATM    1  C   UNL     1     -12.388  14.615  64.456  1.00  0.00    -0.398 C  
HETATM    2  O   UNL     1     -12.753  13.260  64.701  1.00  0.00    -0.643 OA 
ENDROOT
BRANCH   2   3
HETATM    3  C   UNL     1     -11.731  12.348  64.694  1.00  0.00    -0.365 A  
HETATM    4  C   UNL     1     -10.957  12.131  63.539  1.00  0.00    -0.521 A  
HETATM    5  C   UNL     1      -9.926  11.193  63.529  1.00  0.00    -0.425 A  
HETATM    6  C   UNL     1      -9.645  10.465  64.679  1.00  0.00    -0.360 A  
HETATM    7  C   UNL     1     -10.383  10.695  65.839  1.00  0.00    -0.291 A  
HETATM    8  C   UNL     1     -11.417  11.642  65.870  1.00  0.00    -0.121 A  
BRANCH   8   9
HETATM    9  O   UNL     1     -11.999  11.731  67.110  1.00  0.00    -0.617 OA 
BRANCH   9  10
HETATM   10  C   UNL     1     -11.774  12.908  67.884  1.00  0.00    -0.357 C  
BRANCH  10  11
HETATM   11  C   UNL     1     -11.450  12.522  69.340  1.00  0.00    -0.263 C  
HETATM   12  H   UNL     1     -12.057  13.012  71.176  1.00  0.00     0.000 HD 
HETATM   13  O   UNL     1     -12.257  13.250  70.279  1.00  0.00    -0.340 OA 
BRANCH  11  14
HETATM   14  C   UNL     1     -11.677  11.007  69.576  1.00  0.00    -0.329 C  
BRANCH  14  15
HETATM   15  N   UNL     1     -10.581  10.313  70.282  1.00  0.00    -0.261 NA 
HETATM   16  C   UNL     1     -11.070   9.549  71.440  1.00  0.00    -0.368 C  
HETATM   17  C   UNL     1     -11.972   8.378  71.020  1.00  0.00    -0.231 C  
HETATM   18  N   UNL     1     -11.302   7.368  70.169  1.00  0.00    -0.224 NA 
HETATM   19  C   UNL     1     -10.576   8.037  69.069  1.00  0.00    -0.154 C  
HETATM   20  C   UNL     1      -9.854   9.376  69.396  1.00  0.00    -0.178 C  
BRANCH  18  21
HETATM   21  C   UNL     1     -10.427   6.493  70.990  1.00  0.00    -0.222 C  
BRANCH  21  22
HETATM   22  C   UNL     1      -9.471   5.691  70.073  1.00  0.00    -0.158 C  
HETATM   23  N   UNL     1     -10.144   4.702  69.376  1.00  0.00    -0.185 N  
HETATM   24  O   UNL     1      -8.281   5.972  69.971  1.00  0.00    -0.117 OA 
HETATM   25  H   UNL     1     -11.151   4.649  69.530  1.00  0.00     0.000 HD 
BRANCH  23  26
HETATM   26  C   UNL     1      -9.602   3.764  68.483  1.00  0.00    -0.105 A  
HETATM   27  C   UNL     1      -9.581   3.950  67.084  1.00  0.00    -0.226 A  
HETATM   28  C   UNL     1      -8.980   2.965  66.280  1.00  0.00    -0.153 A  
HETATM   29  C   UNL     1     -10.107   5.169  66.378  1.00  0.00    -0.268 C  
HETATM   30  C   UNL     1      -8.372   1.848  66.845  1.00  0.00    -0.087 A  
HETATM   31  C   UNL     1      -8.359   1.689  68.225  1.00  0.00    -0.076 A  
HETATM   32  C   UNL     1      -8.969   2.638  69.057  1.00  0.00    -0.171 A  
HETATM   33  C   UNL     1      -9.001   2.388  70.542  1.00  0.00    -0.158 C  
ENDBRANCH  23  26
ENDBRANCH  21  22
ENDBRANCH  18  21
ENDBRANCH  14  15
ENDBRANCH  11  14
ENDBRANCH  10  11
ENDBRANCH   9  10
ENDBRANCH   8   9
ENDBRANCH   2   3
TORSDOF 9
ENDMDL
MODEL       80
REMARK 921   NORMALIZED FREE ENERGY PREDICTED BY IDOCK:   -5.38 KCAL/MOL
REMARK 922        TOTAL FREE ENERGY PREDICTED BY IDOCK:   -9.31 KCAL/MOL
REMARK 923 INTER-LIGAND FREE ENERGY PREDICTED BY IDOCK:   -7.93 KCAL/MOL
REMARK 924 INTRA-LIGAND FREE ENERGY PREDICTED BY IDOCK:   -1.38 KCAL/MOL
REMARK 927      BINDING AFFINITY PREDICTED BY RF-SCORE:    0.00 PKD
ROOT
HETATM    1  C   UNL     1      -9.229   8.424  72.546  1.00  0.00    -0.268 C  
HETATM    2  O   UNL     1     -10.064   8.952  71.520  1.00  0.00    -0.267 OA 
ENDROOT
BRANCH   2   3
HETATM    3  C   UNL     1     -11.383   8.584  71.564  1.00  0.00    -0.283 A  
HETATM    4  C   UNL     1     -12.381   9.501  71.941  1.00  0.00    -0.450 A  
HETATM    5  C   UNL     1     -13.722   9.122  71.998  1.00  0.00    -0.508 A  
HETATM    6  C   UNL     1     -14.086   7.823  71.668  1.00  0.00    -0.533 A  
HETATM    7  C   UNL     1     -13.110   6.914  71.261  1.00  0.00    -0.273 A  
HETATM    8  C   UNL     1     -11.758   7.281  71.187  1.00  0.00    -0.303 A  
BRANCH   8   9
HETATM    9  O   UNL     1     -10.967   6.251  70.743  1.00  0.00    -0.262 OA 
BRANCH   9  10
HETATM   10  C   UNL     1     -10.665   6.177  69.351  1.00  0.00    -0.320 C  
BRANCH  10  11
HETATM   11  C   UNL     1      -9.164   6.438  69.127  1.00  0.00    -0.133 C  
HETATM   12  H   UNL     1      -7.429   5.514  69.470  1.00  0.00     0.000 HD 
HETATM   13  O   UNL     1      -8.355   5.353  69.608  1.00  0.00    -0.097 OA 
BRANCH  11  14
HETATM   14  C   UNL     1      -8.854   6.644  67.621  1.00  0.00    -0.116 C  
BRANCH  14  15
HETATM   15  N   UNL     1      -8.044   7.839  67.308  1.00  0.00    -0.117 NA 
HETATM   16  C   UNL     1      -8.193   8.251  65.905  1.00  0.00    -0.119 C  
HETATM   17  C   UNL     1      -9.616   8.739  65.594  1.00  0.00    -0.035 C  
HETATM   18  N   UNL     1     -10.036   9.927  66.372  1.00  0.00    -0.240 NA 
HETATM   19  C   UNL     1      -9.732   9.724  67.805  1.00  0.00    -0.141 C  
HETATM   20  C   UNL     1      -8.404   8.994  68.160  1.00  0.00    -0.121 C  
BRANCH  18  21
HETATM   21  C   UNL     1      -9.416  11.158  65.819  1.00  0.00    -0.221 C  
BRANCH  21  22
HETATM   22  C   UNL     1     -10.321  12.381  66.107  1.00  0.00    -0.247 C  
HETATM   23  N   UNL     1      -9.833  13.138  67.158  1.00  0.00    -0.231 N  
HETATM   24  O   UNL     1     -11.309  12.634  65.425  1.00  0.00    -0.293 OA 
HETATM   25  H   UNL     1      -8.958  12.820  67.573  1.00  0.00     0.000 HD 
BRANCH  23  26
HETATM   26  C   UNL     1     -10.402  14.293  67.718  1.00  0.00    -0.238 A  
HETATM   27  C   UNL     1     -11.269  14.268  68.831  1.00  0.00    -0.289 A  
HETATM   28  C   UNL     1     -11.754  15.486  69.339  1.00  0.00    -0.382 A  
HETATM   29  C   UNL     1     -11.673  13.021  69.568  1.00  0.00    -0.381 C  
HETATM   30  C   UNL     1     -11.357  16.702  68.793  1.00  0.00    -0.139 A  
HETATM   31  C   UNL     1     -10.471  16.726  67.722  1.00  0.00    -0.335 A  
HETATM   32  C   UNL     1      -9.985  15.530  67.175  1.00  0.00    -0.242 A  
HETATM   33  C   UNL     1      -9.089  15.597  65.966  1.00  0.00    -0.346 C  
ENDBRANCH  23  26
ENDBRANCH  21  22
ENDBRANCH  18  21
ENDBRANCH  14  15
ENDBRANCH  11  14
ENDBRANCH  10  11
ENDBRANCH   9  10
ENDBRANCH   8   9
ENDBRANCH   2   3
TORSDOF 9
ENDMDL
MODEL       81
REMARK 921   NORMALIZED FREE ENERGY PREDICTED BY IDOCK:   -5.37 KCAL/MOL
REMARK 922        TOTAL FREE ENERGY PREDICTED BY IDOCK:   -9.30 KCAL/MOL
REMARK 923 INTER-LIGAND FREE ENERGY PREDICTED BY IDOCK:   -7.63 KCAL/MOL
REMARK 924 INTRA-LIGAND FREE ENERGY PREDICTED BY IDOCK:   -1.66 KCAL/MOL
REMARK 927      BINDING AFFINITY PREDICTED BY RF-SCORE:    0.00 PKD
ROOT
HETATM    1  C   UNL     1      -8.321   8.119  74.071  1.00  0.00    -0.247 C  
HETATM    2  O   UNL     1      -8.546   7.926  72.677  1.00  0.00    -0.124 OA 
ENDROOT
BRANCH   2   3
HETATM    3  C   UNL     1      -9.851   7.771  72.291  1.00  0.00    -0.192 A  
HETATM    4  C   UNL     1     -10.640   8.879  71.931  1.00  0.00    -0.419 A  
HETATM    5  C   UNL     1     -11.972   8.722  71.552  1.00  0.00    -0.386 A  
HETATM    6  C   UNL     1     -12.533   7.451  71.515  1.00  0.00    -0.394 A  
HETATM    7  C   UNL     1     -11.752   6.342  71.837  1.00  0.00    -0.378 A  
HETATM    8  C   UNL     1     -10.407   6.481  72.211  1.00  0.00    -0.191 A  
BRANCH   8   9
HETATM    9  O   UNL     1      -9.814   5.269  72.463  1.00  0.00    -0.158 OA 
BRANCH   9  10
HETATM   10  C   UNL     1     -10.218   4.140  71.690  1.00  0.00    -0.063 C  
BRANCH  10  11
HETATM   11  C   UNL     1      -9.290   3.982  70.471  1.00  0.00    -0.150 C  
HETATM   12  H   UNL     1      -8.237   2.538  69.584  1.00  0.00     0.000 HD 
HETATM   13  O   UNL     1      -8.809   2.635  70.336  1.00  0.00    -0.068 OA 
BRANCH  11  14
HETATM   14  C   UNL     1     -10.024   4.369  69.161  1.00  0.00    -0.047 C  
BRANCH  14  15
HETATM   15  N   UNL     1      -9.157   4.916  68.097  1.00  0.00    -0.110 NA 
HETATM   16  C   UNL     1      -9.928   5.311  66.909  1.00  0.00    -0.194 C  
HETATM   17  C   UNL     1     -10.867   6.493  67.197  1.00  0.00    -0.401 C  
HETATM   18  N   UNL     1     -10.174   7.733  67.614  1.00  0.00    -0.201 NA 
HETATM   19  C   UNL     1      -9.191   7.429  68.677  1.00  0.00    -0.143 C  
HETATM   20  C   UNL     1      -8.394   6.098  68.556  1.00  0.00    -0.114 C  
BRANCH  18  21
HETATM   21  C   UNL     1      -9.564   8.410  66.441  1.00  0.00    -0.237 C  
BRANCH  21  22
HETATM   22  C   UNL     1      -9.604   9.946  66.637  1.00  0.00    -0.184 C  
HETATM   23  N   UNL     1     -10.894  10.398  66.854  1.00  0.00    -0.206 N  
HETATM   24  O   UNL     1      -8.584  10.627  66.643  1.00  0.00    -0.133 OA 
HETATM   25  H   UNL     1     -11.622   9.684  66.883  1.00  0.00     0.000 HD 
BRANCH  23  26
HETATM   26  C   UNL     1     -11.318  11.724  67.037  1.00  0.00    -0.321 A  
HETATM   27  C   UNL     1     -11.418  12.336  68.305  1.00  0.00    -0.367 A  
HETATM   28  C   UNL     1     -11.817  13.682  68.376  1.00  0.00    -0.407 A  
HETATM   29  C   UNL     1     -11.068  11.666  69.605  1.00  0.00    -0.177 C  
HETATM   30  C   UNL     1     -12.064  14.422  67.223  1.00  0.00    -0.358 A  
HETATM   31  C   UNL     1     -11.924  13.827  65.975  1.00  0.00    -0.443 A  
HETATM   32  C   UNL     1     -11.552  12.480  65.866  1.00  0.00    -0.454 A  
HETATM   33  C   UNL     1     -11.488  11.853  64.498  1.00  0.00    -0.363 C  
ENDBRANCH  23  26
ENDBRANCH  21  22
ENDBRANCH  18  21
ENDBRANCH  14  15
ENDBRANCH  11  14
ENDBRANCH  10  11
ENDBRANCH   9  10
ENDBRANCH   8   9
ENDBRANCH   2   3
TORSDOF 9
ENDMDL
MODEL       82
REMARK 921   NORMALIZED FREE ENERGY PREDICTED BY IDOCK:   -5.37 KCAL/MOL
REMARK 922        TOTAL FREE ENERGY PREDICTED BY IDOCK:   -9.29 KCAL/MOL
REMARK 923 INTER-LIGAND FREE ENERGY PREDICTED BY IDOCK:   -7.62 KCAL/MOL
REMARK 924 INTRA-LIGAND FREE ENERGY PREDICTED BY IDOCK:   -1.67 KCAL/MOL
REMARK 927      BINDING AFFINITY PREDICTED BY RF-SCORE:    0.00 PKD
ROOT
HETATM    1  C   UNL     1     -12.073  14.109  69.669  1.00  0.00    -0.349 C  
HETATM    2  O   UNL     1     -11.855  15.174  68.749  1.00  0.00    -0.330 OA 
ENDROOT
BRANCH   2   3
HETATM    3  C   UNL     1     -11.579  14.811  67.457  1.00  0.00    -0.361 A  
HETATM    4  C   UNL     1     -11.996  13.568  66.946  1.00  0.00    -0.447 A  
HETATM    5  C   UNL     1     -11.703  13.194  65.636  1.00  0.00    -0.402 A  
HETATM    6  C   UNL     1     -10.999  14.063  64.812  1.00  0.00    -0.410 A  
HETATM    7  C   UNL     1     -10.609  15.311  65.296  1.00  0.00    -0.438 A  
HETATM    8  C   UNL     1     -10.904  15.708  66.609  1.00  0.00    -0.266 A  
BRANCH   8   9
HETATM    9  O   UNL     1     -10.456  16.977  66.877  1.00  0.00    -0.313 OA 
BRANCH   9  10
HETATM   10  C   UNL     1      -9.158  17.351  66.416  1.00  0.00    -0.248 C  
BRANCH  10  11
HETATM   11  C   UNL     1      -8.399  18.089  67.536  1.00  0.00    -0.233 C  
HETATM   12  H   UNL     1      -8.779  18.825  69.351  1.00  0.00     0.000 HD 
HETATM   13  O   UNL     1      -9.247  18.370  68.661  1.00  0.00    -0.323 OA 
BRANCH  11  14
HETATM   14  C   UNL     1      -7.192  17.252  68.034  1.00  0.00    -0.190 C  
BRANCH  14  15
HETATM   15  N   UNL     1      -7.456  16.424  69.228  1.00  0.00    -0.233 NA 
HETATM   16  C   UNL     1      -8.148  15.172  68.886  1.00  0.00    -0.178 C  
HETATM   17  C   UNL     1      -7.269  14.240  68.037  1.00  0.00    -0.142 C  
HETATM   18  N   UNL     1      -6.024  13.801  68.707  1.00  0.00    -0.081 NA 
HETATM   19  C   UNL     1      -5.330  14.966  69.296  1.00  0.00    -0.090 C  
HETATM   20  C   UNL     1      -6.211  16.072  69.946  1.00  0.00    -0.154 C  
BRANCH  18  21
HETATM   21  C   UNL     1      -6.314  12.738  69.702  1.00  0.00    -0.091 C  
BRANCH  21  22
HETATM   22  C   UNL     1      -6.804  11.457  68.982  1.00  0.00    -0.102 C  
HETATM   23  N   UNL     1      -8.177  11.315  69.075  1.00  0.00    -0.339 N  
HETATM   24  O   UNL     1      -6.035  10.720  68.373  1.00  0.00    -0.044 OA 
HETATM   25  H   UNL     1      -8.675  12.059  69.564  1.00  0.00     0.000 HD 
BRANCH  23  26
HETATM   26  C   UNL     1      -8.966  10.267  68.574  1.00  0.00    -0.134 A  
HETATM   27  C   UNL     1      -9.461   9.218  69.378  1.00  0.00    -0.169 A  
HETATM   28  C   UNL     1     -10.274   8.237  68.785  1.00  0.00    -0.226 A  
HETATM   29  C   UNL     1      -9.233   9.100  70.860  1.00  0.00    -0.326 C  
HETATM   30  C   UNL     1     -10.631   8.313  67.442  1.00  0.00    -0.324 A  
HETATM   31  C   UNL     1     -10.174   9.369  66.662  1.00  0.00    -0.319 A  
HETATM   32  C   UNL     1      -9.342  10.353  67.214  1.00  0.00    -0.164 A  
HETATM   33  C   UNL     1      -8.806  11.437  66.316  1.00  0.00    -0.196 C  
ENDBRANCH  23  26
ENDBRANCH  21  22
ENDBRANCH  18  21
ENDBRANCH  14  15
ENDBRANCH  11  14
ENDBRANCH  10  11
ENDBRANCH   9  10
ENDBRANCH   8   9
ENDBRANCH   2   3
TORSDOF 9
ENDMDL
MODEL       83
REMARK 921   NORMALIZED FREE ENERGY PREDICTED BY IDOCK:   -5.36 KCAL/MOL
REMARK 922        TOTAL FREE ENERGY PREDICTED BY IDOCK:   -9.27 KCAL/MOL
REMARK 923 INTER-LIGAND FREE ENERGY PREDICTED BY IDOCK:   -8.03 KCAL/MOL
REMARK 924 INTRA-LIGAND FREE ENERGY PREDICTED BY IDOCK:   -1.25 KCAL/MOL
REMARK 927      BINDING AFFINITY PREDICTED BY RF-SCORE:    0.00 PKD
ROOT
HETATM    1  C   UNL     1      -9.142   8.452  73.081  1.00  0.00    -0.155 C  
HETATM    2  O   UNL     1      -9.774   8.720  71.833  1.00  0.00    -0.284 OA 
ENDROOT
BRANCH   2   3
HETATM    3  C   UNL     1     -11.137   8.593  71.805  1.00  0.00    -0.326 A  
HETATM    4  C   UNL     1     -11.976   9.708  71.988  1.00  0.00    -0.202 A  
HETATM    5  C   UNL     1     -13.363   9.575  71.973  1.00  0.00    -0.535 A  
HETATM    6  C   UNL     1     -13.935   8.326  71.762  1.00  0.00    -0.476 A  
HETATM    7  C   UNL     1     -13.114   7.220  71.547  1.00  0.00    -0.434 A  
HETATM    8  C   UNL     1     -11.716   7.336  71.548  1.00  0.00    -0.289 A  
BRANCH   8   9
HETATM    9  O   UNL     1     -11.098   6.138  71.293  1.00  0.00    -0.273 OA 
BRANCH   9  10
HETATM   10  C   UNL     1     -10.937   5.730  69.935  1.00  0.00    -0.319 C  
BRANCH  10  11
HETATM   11  C   UNL     1      -9.643   6.335  69.358  1.00  0.00    -0.141 C  
HETATM   12  H   UNL     1      -7.901   5.691  68.630  1.00  0.00     0.000 HD 
HETATM   13  O   UNL     1      -8.699   5.318  68.986  1.00  0.00    -0.099 OA 
BRANCH  11  14
HETATM   14  C   UNL     1      -9.944   7.200  68.107  1.00  0.00    -0.151 C  
BRANCH  14  15
HETATM   15  N   UNL     1      -8.820   8.037  67.641  1.00  0.00    -0.125 NA 
HETATM   16  C   UNL     1      -9.146   8.753  66.399  1.00  0.00    -0.177 C  
HETATM   17  C   UNL     1     -10.258   9.794  66.606  1.00  0.00    -0.226 C  
HETATM   18  N   UNL     1      -9.915  10.866  67.569  1.00  0.00    -0.172 NA 
HETATM   19  C   UNL     1      -9.358  10.275  68.805  1.00  0.00    -0.166 C  
HETATM   20  C   UNL     1      -8.421   9.043  68.651  1.00  0.00    -0.128 C  
BRANCH  18  21
HETATM   21  C   UNL     1      -9.005  11.858  66.942  1.00  0.00    -0.196 C  
BRANCH  21  22
HETATM   22  C   UNL     1      -9.544  13.291  67.173  1.00  0.00    -0.240 C  
HETATM   23  N   UNL     1      -8.919  14.209  66.347  1.00  0.00    -0.482 N  
HETATM   24  O   UNL     1     -10.452  13.524  67.965  1.00  0.00    -0.231 OA 
HETATM   25  H   UNL     1      -8.229  13.832  65.697  1.00  0.00     0.000 HD 
BRANCH  23  26
HETATM   26  C   UNL     1      -9.124  15.597  66.299  1.00  0.00    -0.341 A  
HETATM   27  C   UNL     1     -10.195  16.198  65.605  1.00  0.00    -0.390 A  
HETATM   28  C   UNL     1     -10.332  17.597  65.652  1.00  0.00    -0.120 A  
HETATM   29  C   UNL     1     -11.257  15.441  64.855  1.00  0.00    -0.410 C  
HETATM   30  C   UNL     1      -9.462  18.380  66.404  1.00  0.00    -0.297 A  
HETATM   31  C   UNL     1      -8.432  17.781  67.119  1.00  0.00    -0.239 A  
HETATM   32  C   UNL     1      -8.251  16.391  67.077  1.00  0.00    -0.231 A  
HETATM   33  C   UNL     1      -7.076  15.791  67.803  1.00  0.00    -0.171 C  
ENDBRANCH  23  26
ENDBRANCH  21  22
ENDBRANCH  18  21
ENDBRANCH  14  15
ENDBRANCH  11  14
ENDBRANCH  10  11
ENDBRANCH   9  10
ENDBRANCH   8   9
ENDBRANCH   2   3
TORSDOF 9
ENDMDL
MODEL       84
REMARK 921   NORMALIZED FREE ENERGY PREDICTED BY IDOCK:   -5.34 KCAL/MOL
REMARK 922        TOTAL FREE ENERGY PREDICTED BY IDOCK:   -9.25 KCAL/MOL
REMARK 923 INTER-LIGAND FREE ENERGY PREDICTED BY IDOCK:   -8.25 KCAL/MOL
REMARK 924 INTRA-LIGAND FREE ENERGY PREDICTED BY IDOCK:   -0.99 KCAL/MOL
REMARK 927      BINDING AFFINITY PREDICTED BY RF-SCORE:    0.00 PKD
ROOT
HETATM    1  C   UNL     1     -11.232  15.870  68.854  1.00  0.00    -0.343 C  
HETATM    2  O   UNL     1     -10.683  15.447  70.098  1.00  0.00    -0.286 OA 
ENDROOT
BRANCH   2   3
HETATM    3  C   UNL     1     -11.578  15.231  71.113  1.00  0.00    -0.370 A  
HETATM    4  C   UNL     1     -11.814  16.209  72.096  1.00  0.00    -0.626 A  
HETATM    5  C   UNL     1     -12.715  15.983  73.135  1.00  0.00    -0.619 A  
HETATM    6  C   UNL     1     -13.404  14.778  73.200  1.00  0.00    -0.458 A  
HETATM    7  C   UNL     1     -13.204  13.814  72.213  1.00  0.00    -0.563 A  
HETATM    8  C   UNL     1     -12.309  14.029  71.154  1.00  0.00    -0.365 A  
BRANCH   8   9
HETATM    9  O   UNL     1     -12.277  12.970  70.281  1.00  0.00    -0.339 OA 
BRANCH   9  10
HETATM   10  C   UNL     1     -12.524  11.660  70.792  1.00  0.00    -0.330 C  
BRANCH  10  11
HETATM   11  C   UNL     1     -12.073  10.606  69.763  1.00  0.00    -0.272 C  
HETATM   12  H   UNL     1     -11.903  10.443  67.782  1.00  0.00     0.000 HD 
HETATM   13  O   UNL     1     -12.181  11.093  68.416  1.00  0.00    -0.610 OA 
BRANCH  11  14
HETATM   14  C   UNL     1     -10.602  10.183  70.010  1.00  0.00    -0.287 C  
BRANCH  14  15
HETATM   15  N   UNL     1     -10.415   9.141  71.040  1.00  0.00    -0.271 NA 
HETATM   16  C   UNL     1     -11.156   7.912  70.719  1.00  0.00    -0.256 C  
HETATM   17  C   UNL     1     -10.609   7.220  69.461  1.00  0.00    -0.234 C  
HETATM   18  N   UNL     1      -9.200   6.780  69.572  1.00  0.00    -0.147 NA 
HETATM   19  C   UNL     1      -8.368   7.882  70.104  1.00  0.00    -0.127 C  
HETATM   20  C   UNL     1      -8.991   8.779  71.213  1.00  0.00    -0.231 C  
BRANCH  18  21
HETATM   21  C   UNL     1      -9.102   5.541  70.384  1.00  0.00    -0.139 C  
BRANCH  21  22
HETATM   22  C   UNL     1      -9.192   4.298  69.464  1.00  0.00    -0.140 C  
HETATM   23  N   UNL     1      -8.592   4.527  68.238  1.00  0.00    -0.097 N  
HETATM   24  O   UNL     1      -9.696   3.245  69.842  1.00  0.00    -0.144 OA 
HETATM   25  H   UNL     1      -8.160   5.443  68.113  1.00  0.00     0.000 HD 
BRANCH  23  26
HETATM   26  C   UNL     1      -8.509   3.648  67.147  1.00  0.00    -0.101 A  
HETATM   27  C   UNL     1      -7.556   2.612  67.059  1.00  0.00    -0.070 A  
HETATM   28  C   UNL     1      -7.583   1.761  65.939  1.00  0.00    -0.066 A  
HETATM   29  C   UNL     1      -6.533   2.301  68.117  1.00  0.00    -0.029 C  
HETATM   30  C   UNL     1      -8.556   1.899  64.954  1.00  0.00    -0.099 A  
HETATM   31  C   UNL     1      -9.518   2.896  65.065  1.00  0.00    -0.104 A  
HETATM   32  C   UNL     1      -9.508   3.777  66.155  1.00  0.00    -0.184 A  
HETATM   33  C   UNL     1     -10.520   4.891  66.197  1.00  0.00    -0.346 C  
ENDBRANCH  23  26
ENDBRANCH  21  22
ENDBRANCH  18  21
ENDBRANCH  14  15
ENDBRANCH  11  14
ENDBRANCH  10  11
ENDBRANCH   9  10
ENDBRANCH   8   9
ENDBRANCH   2   3
TORSDOF 9
ENDMDL
MODEL       85
REMARK 921   NORMALIZED FREE ENERGY PREDICTED BY IDOCK:   -5.33 KCAL/MOL
REMARK 922        TOTAL FREE ENERGY PREDICTED BY IDOCK:   -9.23 KCAL/MOL
REMARK 923 INTER-LIGAND FREE ENERGY PREDICTED BY IDOCK:   -7.71 KCAL/MOL
REMARK 924 INTRA-LIGAND FREE ENERGY PREDICTED BY IDOCK:   -1.52 KCAL/MOL
REMARK 927      BINDING AFFINITY PREDICTED BY RF-SCORE:    0.00 PKD
ROOT
HETATM    1  C   UNL     1     -10.532   5.108  66.413  1.00  0.00    -0.303 C  
HETATM    2  O   UNL     1      -9.454   5.434  67.286  1.00  0.00    -0.117 OA 
ENDROOT
BRANCH   2   3
HETATM    3  C   UNL     1      -9.800   5.913  68.521  1.00  0.00    -0.135 A  
HETATM    4  C   UNL     1     -11.140   6.195  68.843  1.00  0.00    -0.417 A  
HETATM    5  C   UNL     1     -11.490   6.696  70.096  1.00  0.00    -0.444 A  
HETATM    6  C   UNL     1     -10.504   6.911  71.052  1.00  0.00    -0.235 A  
HETATM    7  C   UNL     1      -9.177   6.605  70.756  1.00  0.00    -0.155 A  
HETATM    8  C   UNL     1      -8.808   6.090  69.504  1.00  0.00    -0.125 A  
BRANCH   8   9
HETATM    9  O   UNL     1      -7.462   5.834  69.427  1.00  0.00    -0.076 OA 
BRANCH   9  10
HETATM   10  C   UNL     1      -6.572   6.633  70.205  1.00  0.00    -0.045 C  
BRANCH  10  11
HETATM   11  C   UNL     1      -5.765   7.565  69.282  1.00  0.00    -0.026 C  
HETATM   12  H   UNL     1      -5.259   7.670  67.354  1.00  0.00     0.000 HD 
HETATM   13  O   UNL     1      -5.757   7.096  67.924  1.00  0.00    -0.023 OA 
BRANCH  11  14
HETATM   14  C   UNL     1      -6.348   9.002  69.296  1.00  0.00    -0.042 C  
BRANCH  14  15
HETATM   15  N   UNL     1      -6.951   9.444  68.022  1.00  0.00    -0.078 NA 
HETATM   16  C   UNL     1      -8.389   9.143  67.962  1.00  0.00    -0.120 C  
HETATM   17  C   UNL     1      -9.192   9.951  68.994  1.00  0.00    -0.168 C  
HETATM   18  N   UNL     1      -9.115  11.418  68.811  1.00  0.00    -0.137 NA 
HETATM   19  C   UNL     1      -7.706  11.832  68.636  1.00  0.00    -0.126 C  
HETATM   20  C   UNL     1      -6.783  10.898  67.802  1.00  0.00    -0.064 C  
BRANCH  18  21
HETATM   21  C   UNL     1      -9.987  11.850  67.689  1.00  0.00    -0.189 C  
BRANCH  21  22
HETATM   22  C   UNL     1     -11.210  12.626  68.238  1.00  0.00    -0.272 C  
HETATM   23  N   UNL     1     -11.065  12.920  69.582  1.00  0.00    -0.472 N  
HETATM   24  O   UNL     1     -12.144  12.962  67.516  1.00  0.00    -0.330 OA 
HETATM   25  H   UNL     1     -10.191  12.623  70.016  1.00  0.00     0.000 HD 
BRANCH  23  26
HETATM   26  C   UNL     1     -11.980  13.579  70.419  1.00  0.00    -0.295 A  
HETATM   27  C   UNL     1     -12.234  14.965  70.349  1.00  0.00    -0.393 A  
HETATM   28  C   UNL     1     -13.199  15.520  71.208  1.00  0.00    -0.588 A  
HETATM   29  C   UNL     1     -11.584  15.902  69.369  1.00  0.00    -0.352 C  
HETATM   30  C   UNL     1     -13.931  14.720  72.080  1.00  0.00    -0.582 A  
HETATM   31  C   UNL     1     -13.708  13.349  72.117  1.00  0.00    -0.646 A  
HETATM   32  C   UNL     1     -12.737  12.764  71.292  1.00  0.00    -0.364 A  
HETATM   33  C   UNL     1     -12.472  11.287  71.420  1.00  0.00    -0.392 C  
ENDBRANCH  23  26
ENDBRANCH  21  22
ENDBRANCH  18  21
ENDBRANCH  14  15
ENDBRANCH  11  14
ENDBRANCH  10  11
ENDBRANCH   9  10
ENDBRANCH   8   9
ENDBRANCH   2   3
TORSDOF 9
ENDMDL
MODEL       86
REMARK 921   NORMALIZED FREE ENERGY PREDICTED BY IDOCK:   -5.33 KCAL/MOL
REMARK 922        TOTAL FREE ENERGY PREDICTED BY IDOCK:   -9.22 KCAL/MOL
REMARK 923 INTER-LIGAND FREE ENERGY PREDICTED BY IDOCK:   -8.23 KCAL/MOL
REMARK 924 INTRA-LIGAND FREE ENERGY PREDICTED BY IDOCK:   -1.00 KCAL/MOL
REMARK 927      BINDING AFFINITY PREDICTED BY RF-SCORE:    0.00 PKD
ROOT
HETATM    1  C   UNL     1     -10.308   6.479  67.485  1.00  0.00    -0.201 C  
HETATM    2  O   UNL     1     -10.952   7.656  67.006  1.00  0.00    -0.277 OA 
ENDROOT
BRANCH   2   3
HETATM    3  C   UNL     1     -10.135   8.720  66.724  1.00  0.00    -0.288 A  
HETATM    4  C   UNL     1      -9.004   8.570  65.901  1.00  0.00    -0.235 A  
HETATM    5  C   UNL     1      -8.167   9.650  65.625  1.00  0.00    -0.121 A  
HETATM    6  C   UNL     1      -8.455  10.900  66.159  1.00  0.00    -0.171 A  
HETATM    7  C   UNL     1      -9.591  11.068  66.949  1.00  0.00    -0.205 A  
HETATM    8  C   UNL     1     -10.451   9.995  67.228  1.00  0.00    -0.254 A  
BRANCH   8   9
HETATM    9  O   UNL     1     -11.520  10.377  68.000  1.00  0.00    -0.356 OA 
BRANCH   9  10
HETATM   10  C   UNL     1     -11.341  10.467  69.413  1.00  0.00    -0.250 C  
BRANCH  10  11
HETATM   11  C   UNL     1     -12.459  11.330  70.027  1.00  0.00    -0.182 C  
HETATM   12  H   UNL     1     -13.642  11.302  71.633  1.00  0.00     0.000 HD 
HETATM   13  O   UNL     1     -12.953  10.770  71.255  1.00  0.00    -0.376 OA 
BRANCH  11  14
HETATM   14  C   UNL     1     -11.955  12.767  70.316  1.00  0.00    -0.280 C  
BRANCH  14  15
HETATM   15  N   UNL     1     -12.516  13.815  69.438  1.00  0.00    -0.162 NA 
HETATM   16  C   UNL     1     -12.413  15.151  70.043  1.00  0.00    -0.277 C  
HETATM   17  C   UNL     1     -10.953  15.607  70.193  1.00  0.00    -0.339 C  
HETATM   18  N   UNL     1     -10.218  15.725  68.913  1.00  0.00    -0.209 NA 
HETATM   19  C   UNL     1     -10.424  14.507  68.099  1.00  0.00    -0.239 C  
HETATM   20  C   UNL     1     -11.838  13.859  68.124  1.00  0.00    -0.372 C  
BRANCH  18  21
HETATM   21  C   UNL     1     -10.607  16.968  68.201  1.00  0.00    -0.369 C  
BRANCH  21  22
HETATM   22  C   UNL     1      -9.711  18.144  68.661  1.00  0.00    -0.357 C  
HETATM   23  N   UNL     1      -8.476  18.116  68.038  1.00  0.00    -0.255 N  
HETATM   24  O   UNL     1     -10.113  19.000  69.442  1.00  0.00    -0.237 OA 
HETATM   25  H   UNL     1      -8.330  17.368  67.361  1.00  0.00     0.000 HD 
BRANCH  23  26
HETATM   26  C   UNL     1      -7.400  18.998  68.229  1.00  0.00    -0.284 A  
HETATM   27  C   UNL     1      -6.287  18.696  69.042  1.00  0.00    -0.261 A  
HETATM   28  C   UNL     1      -5.243  19.633  69.136  1.00  0.00    -0.206 A  
HETATM   29  C   UNL     1      -6.098  17.400  69.781  1.00  0.00    -0.228 C  
HETATM   30  C   UNL     1      -5.274  20.819  68.409  1.00  0.00    -0.314 A  
HETATM   31  C   UNL     1      -6.353  21.096  67.578  1.00  0.00    -0.433 A  
HETATM   32  C   UNL     1      -7.422  20.195  67.477  1.00  0.00    -0.332 A  
HETATM   33  C   UNL     1      -8.608  20.568  66.626  1.00  0.00    -0.156 C  
ENDBRANCH  23  26
ENDBRANCH  21  22
ENDBRANCH  18  21
ENDBRANCH  14  15
ENDBRANCH  11  14
ENDBRANCH  10  11
ENDBRANCH   9  10
ENDBRANCH   8   9
ENDBRANCH   2   3
TORSDOF 9
ENDMDL
MODEL       87
REMARK 921   NORMALIZED FREE ENERGY PREDICTED BY IDOCK:   -5.32 KCAL/MOL
REMARK 922        TOTAL FREE ENERGY PREDICTED BY IDOCK:   -9.21 KCAL/MOL
REMARK 923 INTER-LIGAND FREE ENERGY PREDICTED BY IDOCK:   -8.35 KCAL/MOL
REMARK 924 INTRA-LIGAND FREE ENERGY PREDICTED BY IDOCK:   -0.86 KCAL/MOL
REMARK 927      BINDING AFFINITY PREDICTED BY RF-SCORE:    0.00 PKD
ROOT
HETATM    1  C   UNL     1      -8.422   8.615  71.351  1.00  0.00    -0.188 C  
HETATM    2  O   UNL     1      -9.789   8.525  70.959  1.00  0.00    -0.175 OA 
ENDROOT
BRANCH   2   3
HETATM    3  C   UNL     1     -10.025   8.381  69.618  1.00  0.00    -0.193 A  
HETATM    4  C   UNL     1      -9.950   7.121  68.997  1.00  0.00    -0.174 A  
HETATM    5  C   UNL     1     -10.178   6.977  67.629  1.00  0.00    -0.245 A  
HETATM    6  C   UNL     1     -10.497   8.091  66.863  1.00  0.00    -0.387 A  
HETATM    7  C   UNL     1     -10.607   9.340  67.473  1.00  0.00    -0.329 A  
HETATM    8  C   UNL     1     -10.392   9.501  68.849  1.00  0.00    -0.208 A  
BRANCH   8   9
HETATM    9  O   UNL     1     -10.573  10.801  69.252  1.00  0.00    -0.211 OA 
BRANCH   9  10
HETATM   10  C   UNL     1     -11.732  11.119  70.022  1.00  0.00    -0.356 C  
BRANCH  10  11
HETATM   11  C   UNL     1     -12.155  12.575  69.752  1.00  0.00    -0.224 C  
HETATM   12  H   UNL     1     -12.403  14.265  70.783  1.00  0.00     0.000 HD 
HETATM   13  O   UNL     1     -12.142  13.367  70.950  1.00  0.00    -0.326 OA 
BRANCH  11  14
HETATM   14  C   UNL     1     -11.213  13.244  68.717  1.00  0.00    -0.276 C  
BRANCH  14  15
HETATM   15  N   UNL     1     -11.861  14.231  67.829  1.00  0.00    -0.377 NA 
HETATM   16  C   UNL     1     -11.550  15.613  68.225  1.00  0.00    -0.319 C  
HETATM   17  C   UNL     1     -10.061  15.946  68.042  1.00  0.00    -0.230 C  
HETATM   18  N   UNL     1      -9.583  15.847  66.644  1.00  0.00    -0.232 NA 
HETATM   19  C   UNL     1     -10.027  14.569  66.047  1.00  0.00    -0.322 C  
HETATM   20  C   UNL     1     -11.451  14.061  66.417  1.00  0.00    -0.352 C  
BRANCH  18  21
HETATM   21  C   UNL     1     -10.017  17.031  65.859  1.00  0.00    -0.217 C  
BRANCH  21  22
HETATM   22  C   UNL     1      -9.435  18.323  66.484  1.00  0.00    -0.310 C  
HETATM   23  N   UNL     1      -8.054  18.352  66.397  1.00  0.00    -0.268 N  
HETATM   24  O   UNL     1     -10.154  19.206  66.940  1.00  0.00    -0.327 OA 
HETATM   25  H   UNL     1      -7.616  17.561  65.924  1.00  0.00     0.000 HD 
BRANCH  23  26
HETATM   26  C   UNL     1      -7.185  19.343  66.882  1.00  0.00    -0.209 A  
HETATM   27  C   UNL     1      -6.619  20.344  66.064  1.00  0.00    -0.257 A  
HETATM   28  C   UNL     1      -5.791  21.313  66.657  1.00  0.00    -0.357 A  
HETATM   29  C   UNL     1      -6.885  20.494  64.592  1.00  0.00    -0.117 C  
HETATM   30  C   UNL     1      -5.566  21.325  68.030  1.00  0.00    -0.363 A  
HETATM   31  C   UNL     1      -6.158  20.361  68.838  1.00  0.00    -0.372 A  
HETATM   32  C   UNL     1      -6.970  19.365  68.279  1.00  0.00    -0.318 A  
HETATM   33  C   UNL     1      -7.529  18.294  69.179  1.00  0.00    -0.112 C  
ENDBRANCH  23  26
ENDBRANCH  21  22
ENDBRANCH  18  21
ENDBRANCH  14  15
ENDBRANCH  11  14
ENDBRANCH  10  11
ENDBRANCH   9  10
ENDBRANCH   8   9
ENDBRANCH   2   3
TORSDOF 9
ENDMDL
MODEL       88
REMARK 921   NORMALIZED FREE ENERGY PREDICTED BY IDOCK:   -5.31 KCAL/MOL
REMARK 922        TOTAL FREE ENERGY PREDICTED BY IDOCK:   -9.21 KCAL/MOL
REMARK 923 INTER-LIGAND FREE ENERGY PREDICTED BY IDOCK:   -8.16 KCAL/MOL
REMARK 924 INTRA-LIGAND FREE ENERGY PREDICTED BY IDOCK:   -1.05 KCAL/MOL
REMARK 927      BINDING AFFINITY PREDICTED BY RF-SCORE:    0.00 PKD
ROOT
HETATM    1  C   UNL     1      -6.584   8.142  66.453  1.00  0.00    -0.051 C  
HETATM    2  O   UNL     1      -7.855   8.266  65.821  1.00  0.00    -0.090 OA 
ENDROOT
BRANCH   2   3
HETATM    3  C   UNL     1      -8.734   7.235  66.022  1.00  0.00    -0.151 A  
HETATM    4  C   UNL     1      -8.461   5.942  65.541  1.00  0.00    -0.154 A  
HETATM    5  C   UNL     1      -9.362   4.896  65.735  1.00  0.00    -0.165 A  
HETATM    6  C   UNL     1     -10.547   5.125  66.424  1.00  0.00    -0.336 A  
HETATM    7  C   UNL     1     -10.814   6.395  66.934  1.00  0.00    -0.428 A  
HETATM    8  C   UNL     1      -9.914   7.456  66.758  1.00  0.00    -0.230 A  
BRANCH   8   9
HETATM    9  O   UNL     1     -10.353   8.611  67.357  1.00  0.00    -0.242 OA 
BRANCH   9  10
HETATM   10  C   UNL     1      -9.907   8.903  68.680  1.00  0.00    -0.167 C  
BRANCH  10  11
HETATM   11  C   UNL     1     -11.025   9.619  69.462  1.00  0.00    -0.208 C  
HETATM   12  H   UNL     1     -11.778   9.620  71.309  1.00  0.00     0.000 HD 
HETATM   13  O   UNL     1     -11.088   9.178  70.828  1.00  0.00    -0.242 OA 
BRANCH  11  14
HETATM   14  C   UNL     1     -10.810  11.155  69.456  1.00  0.00    -0.188 C  
BRANCH  14  15
HETATM   15  N   UNL     1     -11.850  11.928  68.747  1.00  0.00    -0.319 NA 
HETATM   16  C   UNL     1     -11.952  13.304  69.254  1.00  0.00    -0.303 C  
HETATM   17  C   UNL     1     -10.686  14.124  68.959  1.00  0.00    -0.231 C  
HETATM   18  N   UNL     1     -10.387  14.284  67.518  1.00  0.00    -0.247 NA 
HETATM   19  C   UNL     1     -10.470  12.974  66.837  1.00  0.00    -0.254 C  
HETATM   20  C   UNL     1     -11.594  11.999  67.292  1.00  0.00    -0.313 C  
BRANCH  18  21
HETATM   21  C   UNL     1     -11.277  15.307  66.911  1.00  0.00    -0.256 C  
BRANCH  21  22
HETATM   22  C   UNL     1     -10.429  16.449  66.297  1.00  0.00    -0.293 C  
HETATM   23  N   UNL     1      -9.601  17.031  67.241  1.00  0.00    -0.240 N  
HETATM   24  O   UNL     1     -10.482  16.728  65.104  1.00  0.00    -0.658 OA 
HETATM   25  H   UNL     1      -9.635  16.631  68.178  1.00  0.00     0.000 HD 
BRANCH  23  26
HETATM   26  C   UNL     1      -8.721  18.110  67.059  1.00  0.00    -0.258 A  
HETATM   27  C   UNL     1      -9.125  19.460  67.131  1.00  0.00    -0.359 A  
HETATM   28  C   UNL     1      -8.156  20.466  66.972  1.00  0.00    -0.351 A  
HETATM   29  C   UNL     1     -10.526  19.915  67.432  1.00  0.00    -0.542 C  
HETATM   30  C   UNL     1      -6.813  20.149  66.792  1.00  0.00    -0.265 A  
HETATM   31  C   UNL     1      -6.412  18.819  66.762  1.00  0.00    -0.204 A  
HETATM   32  C   UNL     1      -7.354  17.789  66.894  1.00  0.00    -0.229 A  
HETATM   33  C   UNL     1      -6.889  16.361  66.777  1.00  0.00    -0.183 C  
ENDBRANCH  23  26
ENDBRANCH  21  22
ENDBRANCH  18  21
ENDBRANCH  14  15
ENDBRANCH  11  14
ENDBRANCH  10  11
ENDBRANCH   9  10
ENDBRANCH   8   9
ENDBRANCH   2   3
TORSDOF 9
ENDMDL
MODEL       89
REMARK 921   NORMALIZED FREE ENERGY PREDICTED BY IDOCK:   -5.30 KCAL/MOL
REMARK 922        TOTAL FREE ENERGY PREDICTED BY IDOCK:   -9.18 KCAL/MOL
REMARK 923 INTER-LIGAND FREE ENERGY PREDICTED BY IDOCK:   -7.97 KCAL/MOL
REMARK 924 INTRA-LIGAND FREE ENERGY PREDICTED BY IDOCK:   -1.21 KCAL/MOL
REMARK 927      BINDING AFFINITY PREDICTED BY RF-SCORE:    0.00 PKD
ROOT
HETATM    1  C   UNL     1      -6.711  11.393  68.892  1.00  0.00    -0.080 C  
HETATM    2  O   UNL     1      -7.538  10.354  69.409  1.00  0.00    -0.113 OA 
ENDROOT
BRANCH   2   3
HETATM    3  C   UNL     1      -8.453   9.821  68.541  1.00  0.00    -0.115 A  
HETATM    4  C   UNL     1      -8.045   9.053  67.435  1.00  0.00    -0.108 A  
HETATM    5  C   UNL     1      -8.976   8.522  66.544  1.00  0.00    -0.194 A  
HETATM    6  C   UNL     1     -10.332   8.740  66.753  1.00  0.00    -0.328 A  
HETATM    7  C   UNL     1     -10.751   9.471  67.863  1.00  0.00    -0.285 A  
HETATM    8  C   UNL     1      -9.828  10.004  68.776  1.00  0.00    -0.167 A  
BRANCH   8   9
HETATM    9  O   UNL     1     -10.446  10.666  69.807  1.00  0.00    -0.222 OA 
BRANCH   9  10
HETATM   10  C   UNL     1     -11.451   9.979  70.551  1.00  0.00    -0.330 C  
BRANCH  10  11
HETATM   11  C   UNL     1     -12.622  10.934  70.852  1.00  0.00    -0.397 C  
HETATM   12  H   UNL     1     -14.005  11.186  72.268  1.00  0.00     0.000 HD 
HETATM   13  O   UNL     1     -13.283  10.597  72.082  1.00  0.00    -0.464 OA 
BRANCH  11  14
HETATM   14  C   UNL     1     -12.131  12.401  70.951  1.00  0.00    -0.051 C  
BRANCH  14  15
HETATM   15  N   UNL     1     -12.754  13.335  69.990  1.00  0.00     0.039 NA 
HETATM   16  C   UNL     1     -12.834  14.702  70.527  1.00  0.00    -0.317 C  
HETATM   17  C   UNL     1     -11.445  15.327  70.726  1.00  0.00    -0.325 C  
HETATM   18  N   UNL     1     -10.656  15.467  69.480  1.00  0.00    -0.250 NA 
HETATM   19  C   UNL     1     -10.680  14.196  68.723  1.00  0.00    -0.256 C  
HETATM   20  C   UNL     1     -12.012  13.393  68.711  1.00  0.00    -0.324 C  
BRANCH  18  21
HETATM   21  C   UNL     1     -11.141  16.622  68.683  1.00  0.00    -0.294 C  
BRANCH  21  22
HETATM   22  C   UNL     1      -9.973  17.229  67.866  1.00  0.00    -0.297 C  
HETATM   23  N   UNL     1      -9.237  18.126  68.621  1.00  0.00    -0.303 N  
HETATM   24  O   UNL     1      -9.739  16.884  66.713  1.00  0.00    -0.246 OA 
HETATM   25  H   UNL     1      -9.531  18.247  69.590  1.00  0.00     0.000 HD 
BRANCH  23  26
HETATM   26  C   UNL     1      -8.133  18.889  68.208  1.00  0.00    -0.320 A  
HETATM   27  C   UNL     1      -8.253  20.138  67.562  1.00  0.00    -0.373 A  
HETATM   28  C   UNL     1      -7.083  20.840  67.224  1.00  0.00    -0.417 A  
HETATM   29  C   UNL     1      -9.559  20.817  67.256  1.00  0.00    -0.494 C  
HETATM   30  C   UNL     1      -5.826  20.345  67.557  1.00  0.00    -0.231 A  
HETATM   31  C   UNL     1      -5.712  19.134  68.230  1.00  0.00    -0.211 A  
HETATM   32  C   UNL     1      -6.857  18.396  68.562  1.00  0.00    -0.263 A  
HETATM   33  C   UNL     1      -6.686  17.052  69.220  1.00  0.00    -0.234 C  
ENDBRANCH  23  26
ENDBRANCH  21  22
ENDBRANCH  18  21
ENDBRANCH  14  15
ENDBRANCH  11  14
ENDBRANCH  10  11
ENDBRANCH   9  10
ENDBRANCH   8   9
ENDBRANCH   2   3
TORSDOF 9
ENDMDL
MODEL       90
REMARK 921   NORMALIZED FREE ENERGY PREDICTED BY IDOCK:   -5.29 KCAL/MOL
REMARK 922        TOTAL FREE ENERGY PREDICTED BY IDOCK:   -9.17 KCAL/MOL
REMARK 923 INTER-LIGAND FREE ENERGY PREDICTED BY IDOCK:   -8.38 KCAL/MOL
REMARK 924 INTRA-LIGAND FREE ENERGY PREDICTED BY IDOCK:   -0.79 KCAL/MOL
REMARK 927      BINDING AFFINITY PREDICTED BY RF-SCORE:    0.00 PKD
ROOT
HETATM    1  C   UNL     1     -10.444   5.763  66.981  1.00  0.00    -0.280 C  
HETATM    2  O   UNL     1     -10.678   6.881  67.832  1.00  0.00    -0.215 OA 
ENDROOT
BRANCH   2   3
HETATM    3  C   UNL     1     -10.672   6.628  69.178  1.00  0.00    -0.264 A  
HETATM    4  C   UNL     1     -10.387   5.344  69.676  1.00  0.00    -0.361 A  
HETATM    5  C   UNL     1     -10.393   5.085  71.045  1.00  0.00    -0.254 A  
HETATM    6  C   UNL     1     -10.673   6.110  71.940  1.00  0.00    -0.277 A  
HETATM    7  C   UNL     1     -10.925   7.395  71.461  1.00  0.00    -0.255 A  
HETATM    8  C   UNL     1     -10.912   7.677  70.086  1.00  0.00    -0.246 A  
BRANCH   8   9
HETATM    9  O   UNL     1     -11.158   9.002  69.828  1.00  0.00    -0.206 OA 
BRANCH   9  10
HETATM   10  C   UNL     1     -11.127   9.924  70.916  1.00  0.00    -0.348 C  
BRANCH  10  11
HETATM   11  C   UNL     1     -12.445  10.720  70.965  1.00  0.00    -0.420 C  
HETATM   12  H   UNL     1     -14.110  10.767  72.063  1.00  0.00     0.000 HD 
HETATM   13  O   UNL     1     -13.298  10.277  72.033  1.00  0.00    -0.434 OA 
BRANCH  11  14
HETATM   14  C   UNL     1     -12.173  12.234  71.157  1.00  0.00     0.004 C  
BRANCH  14  15
HETATM   15  N   UNL     1     -12.773  13.112  70.132  1.00  0.00     0.026 NA 
HETATM   16  C   UNL     1     -12.944  14.488  70.619  1.00  0.00    -0.301 C  
HETATM   17  C   UNL     1     -11.597  15.179  70.883  1.00  0.00    -0.338 C  
HETATM   18  N   UNL     1     -10.739  15.318  69.685  1.00  0.00    -0.265 NA 
HETATM   19  C   UNL     1     -10.662  14.026  68.967  1.00  0.00    -0.211 C  
HETATM   20  C   UNL     1     -11.956  13.166  68.899  1.00  0.00    -0.277 C  
BRANCH  18  21
HETATM   21  C   UNL     1     -11.220  16.428  68.824  1.00  0.00    -0.313 C  
BRANCH  21  22
HETATM   22  C   UNL     1     -10.058  17.405  68.520  1.00  0.00    -0.352 C  
HETATM   23  N   UNL     1      -9.564  17.226  67.240  1.00  0.00    -0.249 N  
HETATM   24  O   UNL     1      -9.692  18.251  69.330  1.00  0.00    -0.155 OA 
HETATM   25  H   UNL     1     -10.031  16.519  66.672  1.00  0.00     0.000 HD 
BRANCH  23  26
HETATM   26  C   UNL     1      -8.497  17.905  66.631  1.00  0.00    -0.258 A  
HETATM   27  C   UNL     1      -8.554  19.265  66.259  1.00  0.00    -0.335 A  
HETATM   28  C   UNL     1      -7.415  19.860  65.690  1.00  0.00    -0.285 A  
HETATM   29  C   UNL     1      -9.741  20.160  66.485  1.00  0.00    -0.553 C  
HETATM   30  C   UNL     1      -6.231  19.145  65.535  1.00  0.00    -0.274 A  
HETATM   31  C   UNL     1      -6.165  17.817  65.939  1.00  0.00    -0.240 A  
HETATM   32  C   UNL     1      -7.289  17.184  66.489  1.00  0.00    -0.311 A  
HETATM   33  C   UNL     1      -7.198  15.722  66.841  1.00  0.00    -0.128 C  
ENDBRANCH  23  26
ENDBRANCH  21  22
ENDBRANCH  18  21
ENDBRANCH  14  15
ENDBRANCH  11  14
ENDBRANCH  10  11
ENDBRANCH   9  10
ENDBRANCH   8   9
ENDBRANCH   2   3
TORSDOF 9
ENDMDL
MODEL       91
REMARK 921   NORMALIZED FREE ENERGY PREDICTED BY IDOCK:   -5.27 KCAL/MOL
REMARK 922        TOTAL FREE ENERGY PREDICTED BY IDOCK:   -9.14 KCAL/MOL
REMARK 923 INTER-LIGAND FREE ENERGY PREDICTED BY IDOCK:   -7.92 KCAL/MOL
REMARK 924 INTRA-LIGAND FREE ENERGY PREDICTED BY IDOCK:   -1.22 KCAL/MOL
REMARK 927      BINDING AFFINITY PREDICTED BY RF-SCORE:    0.00 PKD
ROOT
HETATM    1  C   UNL     1      -8.596  17.192  66.155  1.00  0.00    -0.187 C  
HETATM    2  O   UNL     1      -9.529  16.259  65.618  1.00  0.00    -0.463 OA 
ENDROOT
BRANCH   2   3
HETATM    3  C   UNL     1     -10.475  15.781  66.486  1.00  0.00    -0.303 A  
HETATM    4  C   UNL     1     -10.757  16.446  67.693  1.00  0.00    -0.312 A  
HETATM    5  C   UNL     1     -11.709  15.952  68.582  1.00  0.00    -0.328 A  
HETATM    6  C   UNL     1     -12.405  14.789  68.272  1.00  0.00     0.078 A  
HETATM    7  C   UNL     1     -12.158  14.139  67.064  1.00  0.00    -0.449 A  
HETATM    8  C   UNL     1     -11.210  14.628  66.152  1.00  0.00    -0.341 A  
BRANCH   8   9
HETATM    9  O   UNL     1     -11.138  13.858  65.019  1.00  0.00    -0.322 OA 
BRANCH   9  10
HETATM   10  C   UNL     1     -11.858  12.626  64.987  1.00  0.00    -0.395 C  
BRANCH  10  11
HETATM   11  C   UNL     1     -11.003  11.540  64.307  1.00  0.00    -0.341 C  
HETATM   12  H   UNL     1      -9.597  11.424  62.897  1.00  0.00     0.000 HD 
HETATM   13  O   UNL     1     -10.124  12.094  63.316  1.00  0.00    -0.414 OA 
BRANCH  11  14
HETATM   14  C   UNL     1     -10.142  10.778  65.348  1.00  0.00    -0.285 C  
BRANCH  14  15
HETATM   15  N   UNL     1     -10.200  11.318  66.722  1.00  0.00    -0.218 NA 
HETATM   16  C   UNL     1     -10.615  10.297  67.696  1.00  0.00    -0.263 C  
HETATM   17  C   UNL     1      -9.574   9.176  67.836  1.00  0.00    -0.146 C  
HETATM   18  N   UNL     1      -8.251   9.631  68.322  1.00  0.00    -0.105 NA 
HETATM   19  C   UNL     1      -7.811  10.815  67.552  1.00  0.00    -0.109 C  
HETATM   20  C   UNL     1      -8.896  11.860  67.162  1.00  0.00    -0.180 C  
BRANCH  18  21
HETATM   21  C   UNL     1      -8.290   9.876  69.786  1.00  0.00    -0.183 C  
BRANCH  21  22
HETATM   22  C   UNL     1      -8.332   8.528  70.548  1.00  0.00    -0.135 C  
HETATM   23  N   UNL     1      -9.480   8.413  71.312  1.00  0.00    -0.171 N  
HETATM   24  O   UNL     1      -7.458   7.679  70.414  1.00  0.00    -0.076 OA 
HETATM   25  H   UNL     1     -10.138   9.190  71.256  1.00  0.00     0.000 HD 
BRANCH  23  26
HETATM   26  C   UNL     1      -9.843   7.351  72.157  1.00  0.00    -0.172 A  
HETATM   27  C   UNL     1      -9.324   7.184  73.457  1.00  0.00    -0.231 A  
HETATM   28  C   UNL     1      -9.783   6.107  74.236  1.00  0.00    -0.243 A  
HETATM   29  C   UNL     1      -8.344   8.119  74.111  1.00  0.00    -0.286 C  
HETATM   30  C   UNL     1     -10.766   5.244  73.762  1.00  0.00    -0.343 A  
HETATM   31  C   UNL     1     -11.305   5.436  72.495  1.00  0.00    -0.286 A  
HETATM   32  C   UNL     1     -10.855   6.485  71.682  1.00  0.00    -0.281 A  
HETATM   33  C   UNL     1     -11.409   6.610  70.287  1.00  0.00    -0.431 C  
ENDBRANCH  23  26
ENDBRANCH  21  22
ENDBRANCH  18  21
ENDBRANCH  14  15
ENDBRANCH  11  14
ENDBRANCH  10  11
ENDBRANCH   9  10
ENDBRANCH   8   9
ENDBRANCH   2   3
TORSDOF 9
ENDMDL
MODEL       92
REMARK 921   NORMALIZED FREE ENERGY PREDICTED BY IDOCK:   -5.26 KCAL/MOL
REMARK 922        TOTAL FREE ENERGY PREDICTED BY IDOCK:   -9.12 KCAL/MOL
REMARK 923 INTER-LIGAND FREE ENERGY PREDICTED BY IDOCK:   -8.24 KCAL/MOL
REMARK 924 INTRA-LIGAND FREE ENERGY PREDICTED BY IDOCK:   -0.88 KCAL/MOL
REMARK 927      BINDING AFFINITY PREDICTED BY RF-SCORE:    0.00 PKD
ROOT
HETATM    1  C   UNL     1      -8.763   4.292  70.681  1.00  0.00    -0.083 C  
HETATM    2  O   UNL     1     -10.157   4.548  70.834  1.00  0.00    -0.207 OA 
ENDROOT
BRANCH   2   3
HETATM    3  C   UNL     1     -10.491   5.747  71.407  1.00  0.00    -0.238 A  
HETATM    4  C   UNL     1     -10.601   5.881  72.803  1.00  0.00    -0.257 A  
HETATM    5  C   UNL     1     -10.954   7.097  73.384  1.00  0.00    -0.277 A  
HETATM    6  C   UNL     1     -11.193   8.203  72.578  1.00  0.00    -0.459 A  
HETATM    7  C   UNL     1     -11.055   8.092  71.195  1.00  0.00    -0.278 A  
HETATM    8  C   UNL     1     -10.689   6.878  70.594  1.00  0.00    -0.236 A  
BRANCH   8   9
HETATM    9  O   UNL     1     -10.586   6.988  69.230  1.00  0.00    -0.210 OA 
BRANCH   9  10
HETATM   10  C   UNL     1      -9.702   7.970  68.692  1.00  0.00    -0.159 C  
BRANCH  10  11
HETATM   11  C   UNL     1     -10.055   8.239  67.217  1.00  0.00    -0.247 C  
HETATM   12  H   UNL     1     -11.231   7.459  65.806  1.00  0.00     0.000 HD 
HETATM   13  O   UNL     1     -11.013   7.293  66.716  1.00  0.00    -0.284 OA 
BRANCH  11  14
HETATM   14  C   UNL     1     -10.639   9.664  67.036  1.00  0.00    -0.197 C  
BRANCH  14  15
HETATM   15  N   UNL     1      -9.855  10.555  66.157  1.00  0.00    -0.208 NA 
HETATM   16  C   UNL     1     -10.719  11.394  65.315  1.00  0.00    -0.265 C  
HETATM   17  C   UNL     1     -11.534  12.399  66.144  1.00  0.00    -0.379 C  
HETATM   18  N   UNL     1     -10.713  13.367  66.906  1.00  0.00    -0.272 NA 
HETATM   19  C   UNL     1      -9.645  12.653  67.641  1.00  0.00    -0.188 C  
HETATM   20  C   UNL     1      -8.964  11.451  66.927  1.00  0.00    -0.171 C  
BRANCH  18  21
HETATM   21  C   UNL     1     -10.186  14.426  66.009  1.00  0.00    -0.315 C  
BRANCH  21  22
HETATM   22  C   UNL     1      -9.916  15.719  66.817  1.00  0.00    -0.252 C  
HETATM   23  N   UNL     1      -9.007  16.541  66.174  1.00  0.00    -0.317 N  
HETATM   24  O   UNL     1     -10.502  15.963  67.867  1.00  0.00    -0.271 OA 
HETATM   25  H   UNL     1      -8.666  16.214  65.270  1.00  0.00     0.000 HD 
BRANCH  23  26
HETATM   26  C   UNL     1      -8.501  17.772  66.620  1.00  0.00    -0.258 A  
HETATM   27  C   UNL     1      -9.189  18.994  66.465  1.00  0.00    -0.357 A  
HETATM   28  C   UNL     1      -8.610  20.167  66.982  1.00  0.00    -0.408 A  
HETATM   29  C   UNL     1     -10.546  19.134  65.833  1.00  0.00    -0.495 C  
HETATM   30  C   UNL     1      -7.405  20.128  67.677  1.00  0.00    -0.328 A  
HETATM   31  C   UNL     1      -6.750  18.917  67.863  1.00  0.00    -0.230 A  
HETATM   32  C   UNL     1      -7.285  17.731  67.341  1.00  0.00    -0.201 A  
HETATM   33  C   UNL     1      -6.505  16.452  67.496  1.00  0.00    -0.187 C  
ENDBRANCH  23  26
ENDBRANCH  21  22
ENDBRANCH  18  21
ENDBRANCH  14  15
ENDBRANCH  11  14
ENDBRANCH  10  11
ENDBRANCH   9  10
ENDBRANCH   8   9
ENDBRANCH   2   3
TORSDOF 9
ENDMDL
MODEL       93
REMARK 921   NORMALIZED FREE ENERGY PREDICTED BY IDOCK:   -5.23 KCAL/MOL
REMARK 922        TOTAL FREE ENERGY PREDICTED BY IDOCK:   -9.08 KCAL/MOL
REMARK 923 INTER-LIGAND FREE ENERGY PREDICTED BY IDOCK:   -7.95 KCAL/MOL
REMARK 924 INTRA-LIGAND FREE ENERGY PREDICTED BY IDOCK:   -1.13 KCAL/MOL
REMARK 927      BINDING AFFINITY PREDICTED BY RF-SCORE:    0.00 PKD
ROOT
HETATM    1  C   UNL     1      -9.325   3.415  67.573  1.00  0.00    -0.204 C  
HETATM    2  O   UNL     1     -10.001   4.556  67.054  1.00  0.00    -0.204 OA 
ENDROOT
BRANCH   2   3
HETATM    3  C   UNL     1      -9.275   5.359  66.214  1.00  0.00    -0.152 A  
HETATM    4  C   UNL     1      -8.822   4.889  64.969  1.00  0.00    -0.154 A  
HETATM    5  C   UNL     1      -8.072   5.703  64.121  1.00  0.00    -0.129 A  
HETATM    6  C   UNL     1      -7.773   7.005  64.502  1.00  0.00    -0.113 A  
HETATM    7  C   UNL     1      -8.244   7.494  65.720  1.00  0.00    -0.137 A  
HETATM    8  C   UNL     1      -9.010   6.692  66.580  1.00  0.00    -0.142 A  
BRANCH   8   9
HETATM    9  O   UNL     1      -9.393   7.368  67.711  1.00  0.00    -0.136 OA 
BRANCH   9  10
HETATM   10  C   UNL     1     -10.644   8.055  67.702  1.00  0.00    -0.194 C  
BRANCH  10  11
HETATM   11  C   UNL     1     -10.438   9.520  68.133  1.00  0.00    -0.223 C  
HETATM   12  H   UNL     1      -9.024  10.627  69.002  1.00  0.00     0.000 HD 
HETATM   13  O   UNL     1      -9.151   9.724  68.736  1.00  0.00    -0.130 OA 
BRANCH  11  14
HETATM   14  C   UNL     1     -10.564  10.478  66.920  1.00  0.00    -0.243 C  
BRANCH  14  15
HETATM   15  N   UNL     1     -11.687  11.434  66.992  1.00  0.00    -0.508 NA 
HETATM   16  C   UNL     1     -11.582  12.318  68.163  1.00  0.00    -0.339 C  
HETATM   17  C   UNL     1     -10.368  13.256  68.072  1.00  0.00    -0.241 C  
HETATM   18  N   UNL     1     -10.399  14.180  66.915  1.00  0.00    -0.267 NA 
HETATM   19  C   UNL     1     -10.720  13.432  65.680  1.00  0.00    -0.277 C  
HETATM   20  C   UNL     1     -11.769  12.288  65.787  1.00  0.00    -0.385 C  
BRANCH  18  21
HETATM   21  C   UNL     1     -11.338  15.303  67.170  1.00  0.00    -0.247 C  
BRANCH  21  22
HETATM   22  C   UNL     1     -10.616  16.430  67.949  1.00  0.00    -0.320 C  
HETATM   23  N   UNL     1      -9.678  17.073  67.159  1.00  0.00    -0.252 N  
HETATM   24  O   UNL     1     -10.912  16.714  69.105  1.00  0.00    -0.316 OA 
HETATM   25  H   UNL     1      -9.606  16.752  66.194  1.00  0.00     0.000 HD 
BRANCH  23  26
HETATM   26  C   UNL     1      -8.815  18.117  67.532  1.00  0.00    -0.256 A  
HETATM   27  C   UNL     1      -7.604  17.909  68.225  1.00  0.00    -0.266 A  
HETATM   28  C   UNL     1      -6.793  19.020  68.518  1.00  0.00    -0.297 A  
HETATM   29  C   UNL     1      -7.073  16.561  68.629  1.00  0.00    -0.175 C  
HETATM   30  C   UNL     1      -7.144  20.298  68.095  1.00  0.00    -0.295 A  
HETATM   31  C   UNL     1      -8.318  20.493  67.378  1.00  0.00    -0.351 A  
HETATM   32  C   UNL     1      -9.163  19.413  67.088  1.00  0.00    -0.375 A  
HETATM   33  C   UNL     1     -10.464  19.679  66.377  1.00  0.00    -0.618 C  
ENDBRANCH  23  26
ENDBRANCH  21  22
ENDBRANCH  18  21
ENDBRANCH  14  15
ENDBRANCH  11  14
ENDBRANCH  10  11
ENDBRANCH   9  10
ENDBRANCH   8   9
ENDBRANCH   2   3
TORSDOF 9
ENDMDL
MODEL       94
REMARK 921   NORMALIZED FREE ENERGY PREDICTED BY IDOCK:   -5.23 KCAL/MOL
REMARK 922        TOTAL FREE ENERGY PREDICTED BY IDOCK:   -9.07 KCAL/MOL
REMARK 923 INTER-LIGAND FREE ENERGY PREDICTED BY IDOCK:   -8.24 KCAL/MOL
REMARK 924 INTRA-LIGAND FREE ENERGY PREDICTED BY IDOCK:   -0.83 KCAL/MOL
REMARK 927      BINDING AFFINITY PREDICTED BY RF-SCORE:    0.00 PKD
ROOT
HETATM    1  C   UNL     1     -10.004  20.587  67.939  1.00  0.00    -0.207 C  
HETATM    2  O   UNL     1      -8.831  20.090  68.578  1.00  0.00    -0.189 OA 
ENDROOT
BRANCH   2   3
HETATM    3  C   UNL     1      -8.031  19.274  67.823  1.00  0.00    -0.277 A  
HETATM    4  C   UNL     1      -6.923  19.786  67.124  1.00  0.00    -0.235 A  
HETATM    5  C   UNL     1      -6.117  18.957  66.346  1.00  0.00    -0.190 A  
HETATM    6  C   UNL     1      -6.400  17.599  66.265  1.00  0.00    -0.279 A  
HETATM    7  C   UNL     1      -7.475  17.074  66.980  1.00  0.00    -0.227 A  
HETATM    8  C   UNL     1      -8.290  17.891  67.777  1.00  0.00    -0.241 A  
BRANCH   8   9
HETATM    9  O   UNL     1      -9.274  17.177  68.413  1.00  0.00    -0.250 OA 
BRANCH   9  10
HETATM   10  C   UNL     1     -10.466  16.868  67.692  1.00  0.00    -0.332 C  
BRANCH  10  11
HETATM   11  C   UNL     1     -11.004  15.495  68.135  1.00  0.00    -0.312 C  
HETATM   12  H   UNL     1     -12.545  14.771  69.176  1.00  0.00     0.000 HD 
HETATM   13  O   UNL     1     -12.213  15.617  68.902  1.00  0.00    -0.251 OA 
BRANCH  11  14
HETATM   14  C   UNL     1     -11.296  14.590  66.910  1.00  0.00    -0.348 C  
BRANCH  14  15
HETATM   15  N   UNL     1     -11.971  13.314  67.222  1.00  0.00    -0.364 NA 
HETATM   16  C   UNL     1     -11.937  12.383  66.085  1.00  0.00    -0.327 C  
HETATM   17  C   UNL     1     -10.509  11.918  65.761  1.00  0.00    -0.256 C  
HETATM   18  N   UNL     1      -9.845  11.181  66.860  1.00  0.00    -0.191 NA 
HETATM   19  C   UNL     1     -10.000  11.922  68.131  1.00  0.00    -0.197 C  
HETATM   20  C   UNL     1     -11.361  12.632  68.385  1.00  0.00    -0.290 C  
BRANCH  18  21
HETATM   21  C   UNL     1     -10.357   9.789  66.938  1.00  0.00    -0.234 C  
BRANCH  21  22
HETATM   22  C   UNL     1      -9.834   9.104  68.225  1.00  0.00    -0.160 C  
HETATM   23  N   UNL     1     -10.870   8.591  68.985  1.00  0.00    -0.424 N  
HETATM   24  O   UNL     1      -8.636   9.007  68.468  1.00  0.00    -0.127 OA 
HETATM   25  H   UNL     1     -11.809   8.702  68.600  1.00  0.00     0.000 HD 
BRANCH  23  26
HETATM   26  C   UNL     1     -10.782   7.936  70.224  1.00  0.00    -0.236 A  
HETATM   27  C   UNL     1     -10.467   6.568  70.355  1.00  0.00    -0.256 A  
HETATM   28  C   UNL     1     -10.365   6.017  71.645  1.00  0.00    -0.260 A  
HETATM   29  C   UNL     1     -10.166   5.648  69.204  1.00  0.00    -0.305 C  
HETATM   30  C   UNL     1     -10.522   6.808  72.779  1.00  0.00    -0.247 A  
HETATM   31  C   UNL     1     -10.793   8.165  72.646  1.00  0.00    -0.429 A  
HETATM   32  C   UNL     1     -10.924   8.743  71.376  1.00  0.00    -0.360 A  
HETATM   33  C   UNL     1     -11.295  10.200  71.277  1.00  0.00    -0.241 C  
ENDBRANCH  23  26
ENDBRANCH  21  22
ENDBRANCH  18  21
ENDBRANCH  14  15
ENDBRANCH  11  14
ENDBRANCH  10  11
ENDBRANCH   9  10
ENDBRANCH   8   9
ENDBRANCH   2   3
TORSDOF 9
ENDMDL
MODEL       95
REMARK 921   NORMALIZED FREE ENERGY PREDICTED BY IDOCK:   -5.22 KCAL/MOL
REMARK 922        TOTAL FREE ENERGY PREDICTED BY IDOCK:   -9.06 KCAL/MOL
REMARK 923 INTER-LIGAND FREE ENERGY PREDICTED BY IDOCK:   -8.06 KCAL/MOL
REMARK 924 INTRA-LIGAND FREE ENERGY PREDICTED BY IDOCK:   -1.00 KCAL/MOL
REMARK 927      BINDING AFFINITY PREDICTED BY RF-SCORE:    0.00 PKD
ROOT
HETATM    1  C   UNL     1      -6.877   7.213  67.052  1.00  0.00    -0.072 C  
HETATM    2  O   UNL     1      -7.958   7.028  66.143  1.00  0.00    -0.101 OA 
ENDROOT
BRANCH   2   3
HETATM    3  C   UNL     1      -8.386   8.146  65.476  1.00  0.00    -0.153 A  
HETATM    4  C   UNL     1      -7.761   8.569  64.289  1.00  0.00    -0.130 A  
HETATM    5  C   UNL     1      -8.189   9.714  63.619  1.00  0.00    -0.162 A  
HETATM    6  C   UNL     1      -9.257  10.448  64.120  1.00  0.00    -0.298 A  
HETATM    7  C   UNL     1      -9.905  10.020  65.278  1.00  0.00    -0.388 A  
HETATM    8  C   UNL     1      -9.496   8.865  65.959  1.00  0.00    -0.252 A  
BRANCH   8   9
HETATM    9  O   UNL     1     -10.278   8.607  67.056  1.00  0.00    -0.239 OA 
BRANCH   9  10
HETATM   10  C   UNL     1      -9.844   9.084  68.329  1.00  0.00    -0.166 C  
BRANCH  10  11
HETATM   11  C   UNL     1     -10.911  10.020  68.928  1.00  0.00    -0.220 C  
HETATM   12  H   UNL     1     -11.881  10.251  70.656  1.00  0.00     0.000 HD 
HETATM   13  O   UNL     1     -11.223   9.674  70.287  1.00  0.00    -0.246 OA 
BRANCH  11  14
HETATM   14  C   UNL     1     -10.434  11.495  68.900  1.00  0.00    -0.187 C  
BRANCH  14  15
HETATM   15  N   UNL     1     -10.972  12.305  67.787  1.00  0.00    -0.221 NA 
HETATM   16  C   UNL     1     -11.998  13.253  68.245  1.00  0.00    -0.302 C  
HETATM   17  C   UNL     1     -11.417  14.331  69.173  1.00  0.00    -0.291 C  
HETATM   18  N   UNL     1     -10.383  15.183  68.542  1.00  0.00    -0.225 NA 
HETATM   19  C   UNL     1      -9.388  14.339  67.846  1.00  0.00    -0.198 C  
HETATM   20  C   UNL     1      -9.914  13.078  67.101  1.00  0.00    -0.235 C  
BRANCH  18  21
HETATM   21  C   UNL     1     -11.011  16.190  67.649  1.00  0.00    -0.268 C  
BRANCH  21  22
HETATM   22  C   UNL     1      -9.940  17.186  67.139  1.00  0.00    -0.283 C  
HETATM   23  N   UNL     1      -9.262  17.784  68.187  1.00  0.00    -0.269 N  
HETATM   24  O   UNL     1      -9.722  17.349  65.943  1.00  0.00    -0.507 OA 
HETATM   25  H   UNL     1      -9.526  17.483  69.125  1.00  0.00     0.000 HD 
BRANCH  23  26
HETATM   26  C   UNL     1      -8.253  18.758  68.109  1.00  0.00    -0.304 A  
HETATM   27  C   UNL     1      -8.465  20.053  67.592  1.00  0.00    -0.378 A  
HETATM   28  C   UNL     1      -7.396  20.966  67.594  1.00  0.00    -0.277 A  
HETATM   29  C   UNL     1      -9.786  20.562  67.084  1.00  0.00    -0.567 C  
HETATM   30  C   UNL     1      -6.161  20.627  68.138  1.00  0.00    -0.350 A  
HETATM   31  C   UNL     1      -5.968  19.363  68.684  1.00  0.00    -0.252 A  
HETATM   32  C   UNL     1      -7.004  18.419  68.677  1.00  0.00    -0.281 A  
HETATM   33  C   UNL     1      -6.729  17.036  69.207  1.00  0.00    -0.234 C  
ENDBRANCH  23  26
ENDBRANCH  21  22
ENDBRANCH  18  21
ENDBRANCH  14  15
ENDBRANCH  11  14
ENDBRANCH  10  11
ENDBRANCH   9  10
ENDBRANCH   8   9
ENDBRANCH   2   3
TORSDOF 9
ENDMDL
MODEL       96
REMARK 921   NORMALIZED FREE ENERGY PREDICTED BY IDOCK:   -5.20 KCAL/MOL
REMARK 922        TOTAL FREE ENERGY PREDICTED BY IDOCK:   -9.03 KCAL/MOL
REMARK 923 INTER-LIGAND FREE ENERGY PREDICTED BY IDOCK:   -8.08 KCAL/MOL
REMARK 924 INTRA-LIGAND FREE ENERGY PREDICTED BY IDOCK:   -0.94 KCAL/MOL
REMARK 927      BINDING AFFINITY PREDICTED BY RF-SCORE:    0.00 PKD
ROOT
HETATM    1  C   UNL     1     -10.614  16.231  65.576  1.00  0.00    -0.353 C  
HETATM    2  O   UNL     1     -11.357  15.115  66.057  1.00  0.00    -0.318 OA 
ENDROOT
BRANCH   2   3
HETATM    3  C   UNL     1     -11.362  14.002  65.259  1.00  0.00    -0.321 A  
HETATM    4  C   UNL     1     -12.243  13.894  64.167  1.00  0.00    -0.436 A  
HETATM    5  C   UNL     1     -12.257  12.756  63.363  1.00  0.00    -0.594 A  
HETATM    6  C   UNL     1     -11.381  11.711  63.631  1.00  0.00    -0.485 A  
HETATM    7  C   UNL     1     -10.481  11.820  64.690  1.00  0.00    -0.347 A  
HETATM    8  C   UNL     1     -10.445  12.962  65.503  1.00  0.00    -0.289 A  
BRANCH   8   9
HETATM    9  O   UNL     1      -9.474  12.879  66.469  1.00  0.00    -0.252 OA 
BRANCH   9  10
HETATM   10  C   UNL     1      -8.677  11.697  66.532  1.00  0.00    -0.182 C  
BRANCH  10  11
HETATM   11  C   UNL     1      -8.739  11.101  67.951  1.00  0.00    -0.136 C  
HETATM   12  H   UNL     1      -7.687  11.188  69.644  1.00  0.00     0.000 HD 
HETATM   13  O   UNL     1      -7.649  11.555  68.769  1.00  0.00    -0.127 OA 
BRANCH  11  14
HETATM   14  C   UNL     1     -10.067  11.480  68.656  1.00  0.00    -0.207 C  
BRANCH  14  15
HETATM   15  N   UNL     1     -11.061  10.391  68.744  1.00  0.00    -0.244 NA 
HETATM   16  C   UNL     1     -10.466   9.145  69.249  1.00  0.00    -0.221 C  
HETATM   17  C   UNL     1     -10.003   9.275  70.708  1.00  0.00    -0.290 C  
HETATM   18  N   UNL     1     -11.090   9.578  71.667  1.00  0.00    -0.347 NA 
HETATM   19  C   UNL     1     -11.914  10.696  71.159  1.00  0.00    -0.300 C  
HETATM   20  C   UNL     1     -12.193  10.743  69.629  1.00  0.00    -0.254 C  
BRANCH  18  21
HETATM   21  C   UNL     1     -11.888   8.358  71.954  1.00  0.00    -0.336 C  
BRANCH  21  22
HETATM   22  C   UNL     1     -10.953   7.209  72.407  1.00  0.00    -0.251 C  
HETATM   23  N   UNL     1     -10.975   6.154  71.513  1.00  0.00    -0.264 N  
HETATM   24  O   UNL     1     -10.260   7.295  73.415  1.00  0.00    -0.275 OA 
HETATM   25  H   UNL     1     -11.560   6.275  70.686  1.00  0.00     0.000 HD 
BRANCH  23  26
HETATM   26  C   UNL     1     -10.284   4.934  71.610  1.00  0.00    -0.197 A  
HETATM   27  C   UNL     1     -10.568   3.960  72.590  1.00  0.00    -0.170 A  
HETATM   28  C   UNL     1      -9.843   2.756  72.576  1.00  0.00    -0.217 A  
HETATM   29  C   UNL     1     -11.646   4.087  73.631  1.00  0.00    -0.087 C  
HETATM   30  C   UNL     1      -8.895   2.497  71.590  1.00  0.00    -0.123 A  
HETATM   31  C   UNL     1      -8.647   3.443  70.602  1.00  0.00    -0.115 A  
HETATM   32  C   UNL     1      -9.334   4.665  70.598  1.00  0.00    -0.220 A  
HETATM   33  C   UNL     1      -8.979   5.693  69.556  1.00  0.00    -0.129 C  
ENDBRANCH  23  26
ENDBRANCH  21  22
ENDBRANCH  18  21
ENDBRANCH  14  15
ENDBRANCH  11  14
ENDBRANCH  10  11
ENDBRANCH   9  10
ENDBRANCH   8   9
ENDBRANCH   2   3
TORSDOF 9
ENDMDL
MODEL       97
REMARK 921   NORMALIZED FREE ENERGY PREDICTED BY IDOCK:   -5.20 KCAL/MOL
REMARK 922        TOTAL FREE ENERGY PREDICTED BY IDOCK:   -9.02 KCAL/MOL
REMARK 923 INTER-LIGAND FREE ENERGY PREDICTED BY IDOCK:   -7.41 KCAL/MOL
REMARK 924 INTRA-LIGAND FREE ENERGY PREDICTED BY IDOCK:   -1.61 KCAL/MOL
REMARK 927      BINDING AFFINITY PREDICTED BY RF-SCORE:    0.00 PKD
ROOT
HETATM    1  C   UNL     1     -10.916   6.632  67.053  1.00  0.00    -0.393 C  
HETATM    2  O   UNL     1      -9.861   7.187  67.833  1.00  0.00    -0.138 OA 
ENDROOT
BRANCH   2   3
HETATM    3  C   UNL     1      -8.649   6.556  67.747  1.00  0.00    -0.117 A  
HETATM    4  C   UNL     1      -7.807   6.746  66.635  1.00  0.00    -0.107 A  
HETATM    5  C   UNL     1      -6.579   6.094  66.542  1.00  0.00    -0.055 A  
HETATM    6  C   UNL     1      -6.168   5.249  67.566  1.00  0.00    -0.035 A  
HETATM    7  C   UNL     1      -6.978   5.078  68.687  1.00  0.00    -0.056 A  
HETATM    8  C   UNL     1      -8.212   5.735  68.803  1.00  0.00    -0.101 A  
BRANCH   8   9
HETATM    9  O   UNL     1      -8.839   5.451  69.990  1.00  0.00    -0.122 OA 
BRANCH   9  10
HETATM   10  C   UNL     1      -9.550   4.220  70.106  1.00  0.00    -0.198 C  
BRANCH  10  11
HETATM   11  C   UNL     1     -10.154   4.096  71.518  1.00  0.00    -0.114 C  
HETATM   12  H   UNL     1     -10.143   2.793  73.029  1.00  0.00     0.000 HD 
HETATM   13  O   UNL     1      -9.770   2.869  72.158  1.00  0.00    -0.134 OA 
BRANCH  11  14
HETATM   14  C   UNL     1      -9.704   5.275  72.419  1.00  0.00    -0.152 C  
BRANCH  14  15
HETATM   15  N   UNL     1     -10.802   6.098  72.967  1.00  0.00    -0.249 NA 
HETATM   16  C   UNL     1     -10.323   7.398  73.459  1.00  0.00    -0.353 C  
HETATM   17  C   UNL     1      -9.793   8.286  72.322  1.00  0.00    -0.294 C  
HETATM   18  N   UNL     1     -10.806   8.631  71.298  1.00  0.00    -0.242 NA 
HETATM   19  C   UNL     1     -11.527   7.413  70.870  1.00  0.00    -0.286 C  
HETATM   20  C   UNL     1     -11.858   6.355  71.962  1.00  0.00    -0.333 C  
BRANCH  18  21
HETATM   21  C   UNL     1     -11.715   9.693  71.800  1.00  0.00    -0.285 C  
BRANCH  21  22
HETATM   22  C   UNL     1     -12.283  10.508  70.613  1.00  0.00    -0.352 C  
HETATM   23  N   UNL     1     -11.326  11.345  70.066  1.00  0.00    -0.474 N  
HETATM   24  O   UNL     1     -13.432  10.355  70.210  1.00  0.00    -0.006 OA 
HETATM   25  H   UNL     1     -10.397  11.298  70.483  1.00  0.00     0.000 HD 
BRANCH  23  26
HETATM   26  C   UNL     1     -11.486  12.251  69.005  1.00  0.00    -0.297 A  
HETATM   27  C   UNL     1     -11.320  11.894  67.650  1.00  0.00    -0.372 A  
HETATM   28  C   UNL     1     -11.541  12.869  66.662  1.00  0.00    -0.428 A  
HETATM   29  C   UNL     1     -10.978  10.511  67.169  1.00  0.00    -0.294 C  
HETATM   30  C   UNL     1     -11.962  14.152  66.997  1.00  0.00    -0.471 A  
HETATM   31  C   UNL     1     -12.164  14.488  68.331  1.00  0.00    -0.154 A  
HETATM   32  C   UNL     1     -11.931  13.549  69.345  1.00  0.00    -0.383 A  
HETATM   33  C   UNL     1     -12.086  13.978  70.780  1.00  0.00    -0.417 C  
ENDBRANCH  23  26
ENDBRANCH  21  22
ENDBRANCH  18  21
ENDBRANCH  14  15
ENDBRANCH  11  14
ENDBRANCH  10  11
ENDBRANCH   9  10
ENDBRANCH   8   9
ENDBRANCH   2   3
TORSDOF 9
ENDMDL
MODEL       98
REMARK 921   NORMALIZED FREE ENERGY PREDICTED BY IDOCK:   -5.19 KCAL/MOL
REMARK 922        TOTAL FREE ENERGY PREDICTED BY IDOCK:   -9.01 KCAL/MOL
REMARK 923 INTER-LIGAND FREE ENERGY PREDICTED BY IDOCK:   -8.45 KCAL/MOL
REMARK 924 INTRA-LIGAND FREE ENERGY PREDICTED BY IDOCK:   -0.56 KCAL/MOL
REMARK 927      BINDING AFFINITY PREDICTED BY RF-SCORE:    0.00 PKD
ROOT
HETATM    1  C   UNL     1     -10.504   5.702  67.437  1.00  0.00    -0.241 C  
HETATM    2  O   UNL     1      -9.711   5.634  68.619  1.00  0.00    -0.124 OA 
ENDROOT
BRANCH   2   3
HETATM    3  C   UNL     1      -9.611   4.401  69.209  1.00  0.00    -0.191 A  
HETATM    4  C   UNL     1      -9.488   3.233  68.436  1.00  0.00    -0.209 A  
HETATM    5  C   UNL     1      -9.399   1.978  69.037  1.00  0.00    -0.197 A  
HETATM    6  C   UNL     1      -9.420   1.874  70.423  1.00  0.00    -0.154 A  
HETATM    7  C   UNL     1      -9.508   3.028  71.200  1.00  0.00    -0.222 A  
HETATM    8  C   UNL     1      -9.587   4.299  70.612  1.00  0.00    -0.190 A  
BRANCH   8   9
HETATM    9  O   UNL     1      -9.642   5.299  71.551  1.00  0.00    -0.147 OA 
BRANCH   9  10
HETATM   10  C   UNL     1     -10.825   5.428  72.339  1.00  0.00    -0.241 C  
BRANCH  10  11
HETATM   11  C   UNL     1     -10.638   6.546  73.383  1.00  0.00    -0.285 C  
HETATM   12  H   UNL     1      -9.206   7.215  74.600  1.00  0.00     0.000 HD 
HETATM   13  O   UNL     1      -9.321   6.526  73.957  1.00  0.00    -0.153 OA 
BRANCH  11  14
HETATM   14  C   UNL     1     -10.870   7.941  72.749  1.00  0.00    -0.386 C  
BRANCH  14  15
HETATM   15  N   UNL     1     -11.602   7.931  71.466  1.00  0.00    -0.263 NA 
HETATM   16  C   UNL     1     -12.729   8.875  71.469  1.00  0.00    -0.335 C  
HETATM   17  C   UNL     1     -12.261  10.335  71.559  1.00  0.00    -0.353 C  
HETATM   18  N   UNL     1     -11.417  10.775  70.424  1.00  0.00    -0.315 NA 
HETATM   19  C   UNL     1     -10.353   9.780  70.171  1.00  0.00    -0.282 C  
HETATM   20  C   UNL     1     -10.726   8.277  70.324  1.00  0.00    -0.235 C  
BRANCH  18  21
HETATM   21  C   UNL     1     -12.253  11.042  69.226  1.00  0.00    -0.210 C  
BRANCH  21  22
HETATM   22  C   UNL     1     -11.417  11.780  68.151  1.00  0.00    -0.316 C  
HETATM   23  N   UNL     1     -11.857  13.080  67.969  1.00  0.00    -0.355 N  
HETATM   24  O   UNL     1     -10.459  11.251  67.597  1.00  0.00    -0.182 OA 
HETATM   25  H   UNL     1     -12.628  13.381  68.564  1.00  0.00     0.000 HD 
BRANCH  23  26
HETATM   26  C   UNL     1     -11.364  14.031  67.061  1.00  0.00    -0.330 A  
HETATM   27  C   UNL     1     -11.587  13.962  65.670  1.00  0.00    -0.338 A  
HETATM   28  C   UNL     1     -11.083  14.987  64.852  1.00  0.00    -0.425 A  
HETATM   29  C   UNL     1     -12.390  12.888  64.988  1.00  0.00    -0.541 C  
HETATM   30  C   UNL     1     -10.416  16.080  65.397  1.00  0.00    -0.415 A  
HETATM   31  C   UNL     1     -10.233  16.166  66.772  1.00  0.00    -0.281 A  
HETATM   32  C   UNL     1     -10.702  15.150  67.616  1.00  0.00    -0.285 A  
HETATM   33  C   UNL     1     -10.415  15.243  69.092  1.00  0.00    -0.247 C  
ENDBRANCH  23  26
ENDBRANCH  21  22
ENDBRANCH  18  21
ENDBRANCH  14  15
ENDBRANCH  11  14
ENDBRANCH  10  11
ENDBRANCH   9  10
ENDBRANCH   8   9
ENDBRANCH   2   3
TORSDOF 9
ENDMDL
MODEL       99
REMARK 921   NORMALIZED FREE ENERGY PREDICTED BY IDOCK:   -5.18 KCAL/MOL
REMARK 922        TOTAL FREE ENERGY PREDICTED BY IDOCK:   -9.00 KCAL/MOL
REMARK 923 INTER-LIGAND FREE ENERGY PREDICTED BY IDOCK:   -8.00 KCAL/MOL
REMARK 924 INTRA-LIGAND FREE ENERGY PREDICTED BY IDOCK:   -1.00 KCAL/MOL
REMARK 927      BINDING AFFINITY PREDICTED BY RF-SCORE:    0.00 PKD
ROOT
HETATM    1  C   UNL     1     -11.272  16.128  69.597  1.00  0.00    -0.331 C  
HETATM    2  O   UNL     1     -10.141  16.851  69.120  1.00  0.00    -0.278 OA 
ENDROOT
BRANCH   2   3
HETATM    3  C   UNL     1     -10.339  17.613  67.998  1.00  0.00    -0.375 A  
HETATM    4  C   UNL     1     -10.432  19.014  68.077  1.00  0.00    -0.436 A  
HETATM    5  C   UNL     1     -10.647  19.787  66.938  1.00  0.00    -0.588 A  
HETATM    6  C   UNL     1     -10.760  19.170  65.697  1.00  0.00    -0.297 A  
HETATM    7  C   UNL     1     -10.636  17.785  65.602  1.00  0.00    -0.123 A  
HETATM    8  C   UNL     1     -10.409  16.992  66.737  1.00  0.00    -0.302 A  
BRANCH   8   9
HETATM    9  O   UNL     1     -10.295  15.661  66.423  1.00  0.00    -0.276 OA 
BRANCH   9  10
HETATM   10  C   UNL     1     -11.256  15.086  65.540  1.00  0.00    -0.344 C  
BRANCH  10  11
HETATM   11  C   UNL     1     -12.077  14.018  66.287  1.00  0.00    -0.456 C  
HETATM   12  H   UNL     1     -13.330  12.529  65.842  1.00  0.00     0.000 HD 
HETATM   13  O   UNL     1     -12.823  13.188  65.382  1.00  0.00    -0.553 OA 
BRANCH  11  14
HETATM   14  C   UNL     1     -11.158  13.104  67.137  1.00  0.00    -0.279 C  
BRANCH  14  15
HETATM   15  N   UNL     1     -11.544  11.678  67.163  1.00  0.00    -0.547 NA 
HETATM   16  C   UNL     1     -10.397  10.794  66.912  1.00  0.00    -0.241 C  
HETATM   17  C   UNL     1      -9.355  10.864  68.039  1.00  0.00    -0.160 C  
HETATM   18  N   UNL     1      -9.862  10.440  69.364  1.00  0.00    -0.225 NA 
HETATM   19  C   UNL     1     -11.152  11.106  69.647  1.00  0.00    -0.232 C  
HETATM   20  C   UNL     1     -12.141  11.288  68.460  1.00  0.00    -0.091 C  
BRANCH  18  21
HETATM   21  C   UNL     1      -9.949   8.959  69.439  1.00  0.00    -0.192 C  
BRANCH  21  22
HETATM   22  C   UNL     1      -9.168   8.446  70.674  1.00  0.00    -0.156 C  
HETATM   23  N   UNL     1      -9.384   7.095  70.887  1.00  0.00    -0.160 N  
HETATM   24  O   UNL     1      -8.421   9.174  71.320  1.00  0.00    -0.286 OA 
HETATM   25  H   UNL     1      -9.986   6.624  70.211  1.00  0.00     0.000 HD 
BRANCH  23  26
HETATM   26  C   UNL     1      -8.872   6.299  71.923  1.00  0.00    -0.139 A  
HETATM   27  C   UNL     1      -9.493   6.175  73.184  1.00  0.00    -0.138 A  
HETATM   28  C   UNL     1      -8.918   5.320  74.141  1.00  0.00    -0.118 A  
HETATM   29  C   UNL     1     -10.779   6.852  73.571  1.00  0.00    -0.342 C  
HETATM   30  C   UNL     1      -7.786   4.568  73.845  1.00  0.00    -0.089 A  
HETATM   31  C   UNL     1      -7.200   4.661  72.589  1.00  0.00    -0.082 A  
HETATM   32  C   UNL     1      -7.732   5.521  71.618  1.00  0.00    -0.107 A  
HETATM   33  C   UNL     1      -7.021   5.651  70.296  1.00  0.00    -0.058 C  
ENDBRANCH  23  26
ENDBRANCH  21  22
ENDBRANCH  18  21
ENDBRANCH  14  15
ENDBRANCH  11  14
ENDBRANCH  10  11
ENDBRANCH   9  10
ENDBRANCH   8   9
ENDBRANCH   2   3
TORSDOF 9
ENDMDL
MODEL      100
REMARK 921   NORMALIZED FREE ENERGY PREDICTED BY IDOCK:   -5.18 KCAL/MOL
REMARK 922        TOTAL FREE ENERGY PREDICTED BY IDOCK:   -9.00 KCAL/MOL
REMARK 923 INTER-LIGAND FREE ENERGY PREDICTED BY IDOCK:   -7.95 KCAL/MOL
REMARK 924 INTRA-LIGAND FREE ENERGY PREDICTED BY IDOCK:   -1.05 KCAL/MOL
REMARK 927      BINDING AFFINITY PREDICTED BY RF-SCORE:    0.00 PKD
ROOT
HETATM    1  C   UNL     1     -10.510   5.694  67.537  1.00  0.00    -0.229 C  
HETATM    2  O   UNL     1      -9.528   5.505  68.551  1.00  0.00    -0.115 OA 
ENDROOT
BRANCH   2   3
HETATM    3  C   UNL     1      -9.563   4.304  69.211  1.00  0.00    -0.190 A  
HETATM    4  C   UNL     1      -9.400   3.090  68.520  1.00  0.00    -0.243 A  
HETATM    5  C   UNL     1      -9.448   1.869  69.190  1.00  0.00    -0.147 A  
HETATM    6  C   UNL     1      -9.650   1.843  70.565  1.00  0.00    -0.129 A  
HETATM    7  C   UNL     1      -9.781   3.042  71.265  1.00  0.00    -0.208 A  
HETATM    8  C   UNL     1      -9.723   4.280  70.609  1.00  0.00    -0.204 A  
BRANCH   8   9
HETATM    9  O   UNL     1      -9.849   5.333  71.480  1.00  0.00    -0.160 OA 
BRANCH   9  10
HETATM   10  C   UNL     1     -11.132   5.600  72.044  1.00  0.00    -0.230 C  
BRANCH  10  11
HETATM   11  C   UNL     1     -10.996   6.610  73.199  1.00  0.00    -0.231 C  
HETATM   12  H   UNL     1      -9.591   7.222  74.476  1.00  0.00     0.000 HD 
HETATM   13  O   UNL     1      -9.675   6.600  73.764  1.00  0.00    -0.180 OA 
BRANCH  11  14
HETATM   14  C   UNL     1     -11.307   8.050  72.717  1.00  0.00    -0.374 C  
BRANCH  14  15
HETATM   15  N   UNL     1     -12.004   8.138  71.418  1.00  0.00    -0.293 NA 
HETATM   16  C   UNL     1     -12.995   9.223  71.398  1.00  0.00    -0.326 C  
HETATM   17  C   UNL     1     -12.338  10.608  71.503  1.00  0.00    -0.310 C  
HETATM   18  N   UNL     1     -11.418  10.931  70.389  1.00  0.00    -0.305 NA 
HETATM   19  C   UNL     1     -10.490   9.803  70.158  1.00  0.00    -0.286 C  
HETATM   20  C   UNL     1     -11.063   8.363  70.297  1.00  0.00    -0.213 C  
BRANCH  18  21
HETATM   21  C   UNL     1     -12.182  11.308  69.173  1.00  0.00    -0.183 C  
BRANCH  21  22
HETATM   22  C   UNL     1     -11.208  11.713  68.040  1.00  0.00    -0.263 C  
HETATM   23  N   UNL     1     -11.486  11.038  66.864  1.00  0.00    -0.038 N  
HETATM   24  O   UNL     1     -10.347  12.572  68.199  1.00  0.00    -0.218 OA 
HETATM   25  H   UNL     1     -12.285  10.404  66.888  1.00  0.00     0.000 HD 
BRANCH  23  26
HETATM   26  C   UNL     1     -10.797  11.123  65.643  1.00  0.00    -0.138 A  
HETATM   27  C   UNL     1      -9.762  10.238  65.275  1.00  0.00    -0.354 A  
HETATM   28  C   UNL     1      -9.162  10.387  64.012  1.00  0.00    -0.300 A  
HETATM   29  C   UNL     1      -9.282   9.089  66.119  1.00  0.00    -0.272 C  
HETATM   30  C   UNL     1      -9.605  11.353  63.115  1.00  0.00    -0.398 A  
HETATM   31  C   UNL     1     -10.653  12.197  63.465  1.00  0.00    -0.501 A  
HETATM   32  C   UNL     1     -11.259  12.093  64.725  1.00  0.00    -0.373 A  
HETATM   33  C   UNL     1     -12.337  13.078  65.094  1.00  0.00    -0.536 C  
ENDBRANCH  23  26
ENDBRANCH  21  22
ENDBRANCH  18  21
ENDBRANCH  14  15
ENDBRANCH  11  14
ENDBRANCH  10  11
ENDBRANCH   9  10
ENDBRANCH   8   9
ENDBRANCH   2   3
TORSDOF 9
ENDMDL
MODEL      101
REMARK 921   NORMALIZED FREE ENERGY PREDICTED BY IDOCK:   -5.18 KCAL/MOL
REMARK 922        TOTAL FREE ENERGY PREDICTED BY IDOCK:   -8.99 KCAL/MOL
REMARK 923 INTER-LIGAND FREE ENERGY PREDICTED BY IDOCK:   -8.02 KCAL/MOL
REMARK 924 INTRA-LIGAND FREE ENERGY PREDICTED BY IDOCK:   -0.97 KCAL/MOL
REMARK 927      BINDING AFFINITY PREDICTED BY RF-SCORE:    0.00 PKD
ROOT
HETATM    1  C   UNL     1     -11.363  15.938  69.648  1.00  0.00    -0.342 C  
HETATM    2  O   UNL     1     -10.164  16.144  68.907  1.00  0.00    -0.220 OA 
ENDROOT
BRANCH   2   3
HETATM    3  C   UNL     1     -10.175  17.182  68.014  1.00  0.00    -0.332 A  
HETATM    4  C   UNL     1     -10.172  18.519  68.453  1.00  0.00    -0.409 A  
HETATM    5  C   UNL     1     -10.197  19.575  67.544  1.00  0.00    -0.546 A  
HETATM    6  C   UNL     1     -10.213  19.311  66.180  1.00  0.00    -0.549 A  
HETATM    7  C   UNL     1     -10.183  17.991  65.732  1.00  0.00    -0.115 A  
HETATM    8  C   UNL     1     -10.147  16.916  66.633  1.00  0.00    -0.304 A  
BRANCH   8   9
HETATM    9  O   UNL     1     -10.096  15.704  65.989  1.00  0.00    -0.286 OA 
BRANCH   9  10
HETATM   10  C   UNL     1     -11.108  15.401  65.030  1.00  0.00    -0.418 C  
BRANCH  10  11
HETATM   11  C   UNL     1     -12.098  14.378  65.620  1.00  0.00    -0.354 C  
HETATM   12  H   UNL     1     -13.374  12.996  64.958  1.00  0.00     0.000 HD 
HETATM   13  O   UNL     1     -12.764  13.626  64.594  1.00  0.00    -0.635 OA 
BRANCH  11  14
HETATM   14  C   UNL     1     -11.371  13.381  66.559  1.00  0.00    -0.320 C  
BRANCH  14  15
HETATM   15  N   UNL     1     -11.767  11.967  66.396  1.00  0.00    -0.565 NA 
HETATM   16  C   UNL     1     -10.777  11.206  65.619  1.00  0.00    -0.185 C  
HETATM   17  C   UNL     1      -9.436  11.080  66.357  1.00  0.00    -0.193 C  
HETATM   18  N   UNL     1      -9.518  10.363  67.650  1.00  0.00    -0.148 NA 
HETATM   19  C   UNL     1     -10.638  10.898  68.454  1.00  0.00    -0.194 C  
HETATM   20  C   UNL     1     -11.942  11.285  67.698  1.00  0.00     0.154 C  
BRANCH  18  21
HETATM   21  C   UNL     1      -9.615   8.898  67.429  1.00  0.00    -0.157 C  
BRANCH  21  22
HETATM   22  C   UNL     1      -9.069   8.138  68.663  1.00  0.00    -0.143 C  
HETATM   23  N   UNL     1      -9.976   7.201  69.125  1.00  0.00    -0.164 N  
HETATM   24  O   UNL     1      -7.944   8.342  69.106  1.00  0.00    -0.106 OA 
HETATM   25  H   UNL     1     -10.844   7.115  68.596  1.00  0.00     0.000 HD 
BRANCH  23  26
HETATM   26  C   UNL     1      -9.842   6.354  70.238  1.00  0.00    -0.168 A  
HETATM   27  C   UNL     1      -8.974   5.242  70.264  1.00  0.00    -0.153 A  
HETATM   28  C   UNL     1      -8.886   4.481  71.443  1.00  0.00    -0.153 A  
HETATM   29  C   UNL     1      -8.075   4.836  69.129  1.00  0.00    -0.074 C  
HETATM   30  C   UNL     1      -9.598   4.836  72.584  1.00  0.00    -0.167 A  
HETATM   31  C   UNL     1     -10.421   5.956  72.567  1.00  0.00    -0.238 A  
HETATM   32  C   UNL     1     -10.552   6.725  71.402  1.00  0.00    -0.247 A  
HETATM   33  C   UNL     1     -11.514   7.884  71.403  1.00  0.00    -0.293 C  
ENDBRANCH  23  26
ENDBRANCH  21  22
ENDBRANCH  18  21
ENDBRANCH  14  15
ENDBRANCH  11  14
ENDBRANCH  10  11
ENDBRANCH   9  10
ENDBRANCH   8   9
ENDBRANCH   2   3
TORSDOF 9
ENDMDL
MODEL      102
REMARK 921   NORMALIZED FREE ENERGY PREDICTED BY IDOCK:   -5.17 KCAL/MOL
REMARK 922        TOTAL FREE ENERGY PREDICTED BY IDOCK:   -8.98 KCAL/MOL
REMARK 923 INTER-LIGAND FREE ENERGY PREDICTED BY IDOCK:   -7.74 KCAL/MOL
REMARK 924 INTRA-LIGAND FREE ENERGY PREDICTED BY IDOCK:   -1.24 KCAL/MOL
REMARK 927      BINDING AFFINITY PREDICTED BY RF-SCORE:    0.00 PKD
ROOT
HETATM    1  C   UNL     1     -11.788  14.481  69.637  1.00  0.00    -0.318 C  
HETATM    2  O   UNL     1     -10.986  15.269  68.763  1.00  0.00    -0.239 OA 
ENDROOT
BRANCH   2   3
HETATM    3  C   UNL     1     -11.203  15.095  67.421  1.00  0.00    -0.323 A  
HETATM    4  C   UNL     1     -12.160  14.177  66.952  1.00  0.00    -0.466 A  
HETATM    5  C   UNL     1     -12.371  13.991  65.587  1.00  0.00    -0.502 A  
HETATM    6  C   UNL     1     -11.635  14.730  64.669  1.00  0.00    -0.401 A  
HETATM    7  C   UNL     1     -10.707  15.666  65.122  1.00  0.00    -0.463 A  
HETATM    8  C   UNL     1     -10.489  15.875  66.492  1.00  0.00    -0.304 A  
BRANCH   8   9
HETATM    9  O   UNL     1      -9.556  16.854  66.724  1.00  0.00    -0.242 OA 
BRANCH   9  10
HETATM   10  C   UNL     1      -8.272  16.728  66.114  1.00  0.00    -0.264 C  
BRANCH  10  11
HETATM   11  C   UNL     1      -7.179  16.701  67.199  1.00  0.00    -0.184 C  
HETATM   12  H   UNL     1      -6.626  17.791  68.776  1.00  0.00     0.000 HD 
HETATM   13  O   UNL     1      -7.300  17.807  68.107  1.00  0.00    -0.222 OA 
BRANCH  11  14
HETATM   14  C   UNL     1      -7.245  15.388  68.021  1.00  0.00    -0.124 C  
BRANCH  14  15
HETATM   15  N   UNL     1      -7.028  14.152  67.242  1.00  0.00    -0.168 NA 
HETATM   16  C   UNL     1      -6.012  13.286  67.858  1.00  0.00    -0.138 C  
HETATM   17  C   UNL     1      -6.470  12.733  69.217  1.00  0.00    -0.105 C  
HETATM   18  N   UNL     1      -7.683  11.886  69.151  1.00  0.00     0.075 NA 
HETATM   19  C   UNL     1      -8.729  12.564  68.354  1.00  0.00    -0.122 C  
HETATM   20  C   UNL     1      -8.270  13.360  67.099  1.00  0.00    -0.110 C  
BRANCH  18  21
HETATM   21  C   UNL     1      -7.348  10.535  68.633  1.00  0.00    -0.091 C  
BRANCH  21  22
HETATM   22  C   UNL     1      -8.382   9.501  69.145  1.00  0.00    -0.125 C  
HETATM   23  N   UNL     1      -8.783   9.781  70.439  1.00  0.00    -0.306 N  
HETATM   24  O   UNL     1      -8.801   8.595  68.433  1.00  0.00    -0.140 OA 
HETATM   25  H   UNL     1      -8.382  10.618  70.864  1.00  0.00     0.000 HD 
BRANCH  23  26
HETATM   26  C   UNL     1      -9.678   9.049  71.236  1.00  0.00    -0.301 A  
HETATM   27  C   UNL     1     -11.057   9.332  71.312  1.00  0.00    -0.427 A  
HETATM   28  C   UNL     1     -11.874   8.513  72.111  1.00  0.00    -0.448 A  
HETATM   29  C   UNL     1     -11.747  10.425  70.542  1.00  0.00    -0.434 C  
HETATM   30  C   UNL     1     -11.350   7.411  72.782  1.00  0.00    -0.356 A  
HETATM   31  C   UNL     1      -9.998   7.111  72.673  1.00  0.00    -0.208 A  
HETATM   32  C   UNL     1      -9.150   7.920  71.904  1.00  0.00    -0.192 A  
HETATM   33  C   UNL     1      -7.677   7.606  71.875  1.00  0.00    -0.093 C  
ENDBRANCH  23  26
ENDBRANCH  21  22
ENDBRANCH  18  21
ENDBRANCH  14  15
ENDBRANCH  11  14
ENDBRANCH  10  11
ENDBRANCH   9  10
ENDBRANCH   8   9
ENDBRANCH   2   3
TORSDOF 9
ENDMDL
MODEL      103
REMARK 921   NORMALIZED FREE ENERGY PREDICTED BY IDOCK:   -5.16 KCAL/MOL
REMARK 922        TOTAL FREE ENERGY PREDICTED BY IDOCK:   -8.97 KCAL/MOL
REMARK 923 INTER-LIGAND FREE ENERGY PREDICTED BY IDOCK:   -7.77 KCAL/MOL
REMARK 924 INTRA-LIGAND FREE ENERGY PREDICTED BY IDOCK:   -1.20 KCAL/MOL
REMARK 927      BINDING AFFINITY PREDICTED BY RF-SCORE:    0.00 PKD
ROOT
HETATM    1  C   UNL     1     -12.013  12.426  65.035  1.00  0.00    -0.402 C  
HETATM    2  O   UNL     1     -12.030  11.995  66.393  1.00  0.00    -0.611 OA 
ENDROOT
BRANCH   2   3
HETATM    3  C   UNL     1     -11.849  12.970  67.338  1.00  0.00    -0.357 A  
HETATM    4  C   UNL     1     -11.917  14.334  67.000  1.00  0.00    -0.463 A  
HETATM    5  C   UNL     1     -11.719  15.324  67.960  1.00  0.00    -0.268 A  
HETATM    6  C   UNL     1     -11.461  14.966  69.278  1.00  0.00    -0.324 A  
HETATM    7  C   UNL     1     -11.424  13.618  69.632  1.00  0.00    -0.286 A  
HETATM    8  C   UNL     1     -11.632  12.608  68.681  1.00  0.00    -0.316 A  
BRANCH   8   9
HETATM    9  O   UNL     1     -11.578  11.355  69.239  1.00  0.00    -0.257 OA 
BRANCH   9  10
HETATM   10  C   UNL     1     -12.759  10.828  69.841  1.00  0.00    -0.032 C  
BRANCH  10  11
HETATM   11  C   UNL     1     -12.503  10.548  71.334  1.00  0.00    -0.411 C  
HETATM   12  H   UNL     1     -13.176  11.189  73.100  1.00  0.00     0.000 HD 
HETATM   13  O   UNL     1     -13.333  11.361  72.180  1.00  0.00    -0.469 OA 
BRANCH  11  14
HETATM   14  C   UNL     1     -12.773   9.060  71.675  1.00  0.00    -0.358 C  
BRANCH  14  15
HETATM   15  N   UNL     1     -11.595   8.304  72.147  1.00  0.00    -0.337 NA 
HETATM   16  C   UNL     1     -11.734   6.861  71.902  1.00  0.00    -0.299 C  
HETATM   17  C   UNL     1     -11.749   6.528  70.402  1.00  0.00    -0.375 C  
HETATM   18  N   UNL     1     -10.510   6.904  69.683  1.00  0.00    -0.209 NA 
HETATM   19  C   UNL     1     -10.132   8.293  70.023  1.00  0.00    -0.196 C  
HETATM   20  C   UNL     1     -10.346   8.755  71.493  1.00  0.00    -0.303 C  
BRANCH  18  21
HETATM   21  C   UNL     1      -9.428   5.927  69.962  1.00  0.00    -0.159 C  
BRANCH  21  22
HETATM   22  C   UNL     1      -8.525   5.766  68.714  1.00  0.00    -0.107 C  
HETATM   23  N   UNL     1      -9.188   6.134  67.556  1.00  0.00    -0.113 N  
HETATM   24  O   UNL     1      -7.357   5.403  68.799  1.00  0.00    -0.071 OA 
HETATM   25  H   UNL     1     -10.141   6.478  67.673  1.00  0.00     0.000 HD 
BRANCH  23  26
HETATM   26  C   UNL     1      -8.702   6.090  66.240  1.00  0.00    -0.138 A  
HETATM   27  C   UNL     1      -8.782   4.942  65.423  1.00  0.00    -0.143 A  
HETATM   28  C   UNL     1      -8.299   5.015  64.104  1.00  0.00    -0.133 A  
HETATM   29  C   UNL     1      -9.411   3.641  65.840  1.00  0.00    -0.166 C  
HETATM   30  C   UNL     1      -7.793   6.204  63.588  1.00  0.00    -0.112 A  
HETATM   31  C   UNL     1      -7.753   7.344  64.383  1.00  0.00    -0.120 A  
HETATM   32  C   UNL     1      -8.204   7.302  65.709  1.00  0.00    -0.135 A  
HETATM   33  C   UNL     1      -8.071   8.538  66.560  1.00  0.00    -0.103 C  
ENDBRANCH  23  26
ENDBRANCH  21  22
ENDBRANCH  18  21
ENDBRANCH  14  15
ENDBRANCH  11  14
ENDBRANCH  10  11
ENDBRANCH   9  10
ENDBRANCH   8   9
ENDBRANCH   2   3
TORSDOF 9
ENDMDL
MODEL      104
REMARK 921   NORMALIZED FREE ENERGY PREDICTED BY IDOCK:   -5.16 KCAL/MOL
REMARK 922        TOTAL FREE ENERGY PREDICTED BY IDOCK:   -8.97 KCAL/MOL
REMARK 923 INTER-LIGAND FREE ENERGY PREDICTED BY IDOCK:   -7.43 KCAL/MOL
REMARK 924 INTRA-LIGAND FREE ENERGY PREDICTED BY IDOCK:   -1.53 KCAL/MOL
REMARK 927      BINDING AFFINITY PREDICTED BY RF-SCORE:    0.00 PKD
ROOT
HETATM    1  C   UNL     1     -11.054  14.859  64.963  1.00  0.00    -0.414 C  
HETATM    2  O   UNL     1     -10.971  15.806  66.024  1.00  0.00    -0.282 OA 
ENDROOT
BRANCH   2   3
HETATM    3  C   UNL     1     -11.249  15.335  67.279  1.00  0.00    -0.306 A  
HETATM    4  C   UNL     1     -11.782  14.047  67.472  1.00  0.00    -0.421 A  
HETATM    5  C   UNL     1     -12.077  13.573  68.748  1.00  0.00    -0.305 A  
HETATM    6  C   UNL     1     -11.832  14.376  69.856  1.00  0.00    -0.382 A  
HETATM    7  C   UNL     1     -11.274  15.642  69.681  1.00  0.00    -0.310 A  
HETATM    8  C   UNL     1     -10.960  16.131  68.404  1.00  0.00    -0.341 A  
BRANCH   8   9
HETATM    9  O   UNL     1     -10.399  17.382  68.453  1.00  0.00    -0.335 OA 
BRANCH   9  10
HETATM   10  C   UNL     1     -10.648  18.282  67.375  1.00  0.00    -0.401 C  
BRANCH  10  11
HETATM   11  C   UNL     1      -9.354  19.036  67.014  1.00  0.00    -0.309 C  
HETATM   12  H   UNL     1      -8.776  20.916  66.676  1.00  0.00     0.000 HD 
HETATM   13  O   UNL     1      -9.574  20.451  66.899  1.00  0.00    -0.411 OA 
BRANCH  11  14
HETATM   14  C   UNL     1      -8.257  18.800  68.084  1.00  0.00    -0.304 C  
BRANCH  14  15
HETATM   15  N   UNL     1      -6.972  18.293  67.562  1.00  0.00    -0.198 NA 
HETATM   16  C   UNL     1      -6.180  17.627  68.605  1.00  0.00    -0.187 C  
HETATM   17  C   UNL     1      -6.852  16.340  69.108  1.00  0.00    -0.202 C  
HETATM   18  N   UNL     1      -7.035  15.302  68.068  1.00  0.00    -0.120 NA 
HETATM   19  C   UNL     1      -7.636  15.903  66.857  1.00  0.00    -0.219 C  
HETATM   20  C   UNL     1      -7.164  17.330  66.455  1.00  0.00    -0.292 C  
BRANCH  18  21
HETATM   21  C   UNL     1      -5.751  14.609  67.791  1.00  0.00    -0.063 C  
BRANCH  21  22
HETATM   22  C   UNL     1      -5.991  13.085  67.653  1.00  0.00    -0.144 C  
HETATM   23  N   UNL     1      -7.100  12.678  68.375  1.00  0.00    -0.093 N  
HETATM   24  O   UNL     1      -5.289  12.379  66.938  1.00  0.00    -0.333 OA 
HETATM   25  H   UNL     1      -7.613  13.411  68.864  1.00  0.00     0.000 HD 
BRANCH  23  26
HETATM   26  C   UNL     1      -7.600  11.373  68.512  1.00  0.00    -0.129 A  
HETATM   27  C   UNL     1      -7.154  10.473  69.503  1.00  0.00    -0.124 A  
HETATM   28  C   UNL     1      -7.749   9.201  69.578  1.00  0.00    -0.080 A  
HETATM   29  C   UNL     1      -6.115  10.795  70.541  1.00  0.00    -0.109 C  
HETATM   30  C   UNL     1      -8.792   8.843  68.730  1.00  0.00    -0.137 A  
HETATM   31  C   UNL     1      -9.256   9.747  67.782  1.00  0.00    -0.141 A  
HETATM   32  C   UNL     1      -8.671  11.015  67.662  1.00  0.00    -0.128 A  
HETATM   33  C   UNL     1      -9.152  11.935  66.570  1.00  0.00    -0.211 C  
ENDBRANCH  23  26
ENDBRANCH  21  22
ENDBRANCH  18  21
ENDBRANCH  14  15
ENDBRANCH  11  14
ENDBRANCH  10  11
ENDBRANCH   9  10
ENDBRANCH   8   9
ENDBRANCH   2   3
TORSDOF 9
ENDMDL
MODEL      105
REMARK 921   NORMALIZED FREE ENERGY PREDICTED BY IDOCK:   -5.16 KCAL/MOL
REMARK 922        TOTAL FREE ENERGY PREDICTED BY IDOCK:   -8.96 KCAL/MOL
REMARK 923 INTER-LIGAND FREE ENERGY PREDICTED BY IDOCK:   -7.85 KCAL/MOL
REMARK 924 INTRA-LIGAND FREE ENERGY PREDICTED BY IDOCK:   -1.11 KCAL/MOL
REMARK 927      BINDING AFFINITY PREDICTED BY RF-SCORE:    0.00 PKD
ROOT
HETATM    1  C   UNL     1     -10.993   6.476  66.927  1.00  0.00    -0.338 C  
HETATM    2  O   UNL     1     -10.103   7.495  66.481  1.00  0.00    -0.213 OA 
ENDROOT
BRANCH   2   3
HETATM    3  C   UNL     1      -9.950   8.572  67.314  1.00  0.00    -0.225 A  
HETATM    4  C   UNL     1      -9.662   8.399  68.680  1.00  0.00    -0.171 A  
HETATM    5  C   UNL     1      -9.520   9.494  69.530  1.00  0.00    -0.195 A  
HETATM    6  C   UNL     1      -9.652  10.782  69.023  1.00  0.00    -0.193 A  
HETATM    7  C   UNL     1      -9.904  10.967  67.665  1.00  0.00    -0.192 A  
HETATM    8  C   UNL     1     -10.040   9.876  66.793  1.00  0.00    -0.230 A  
BRANCH   8   9
HETATM    9  O   UNL     1     -10.260  10.274  65.498  1.00  0.00    -0.284 OA 
BRANCH   9  10
HETATM   10  C   UNL     1     -11.523  10.852  65.170  1.00  0.00     0.646 C  
BRANCH  10  11
HETATM   11  C   UNL     1     -11.340  11.916  64.071  1.00  0.00    -0.397 C  
HETATM   12  H   UNL     1     -12.479  12.937  62.790  1.00  0.00     0.000 HD 
HETATM   13  O   UNL     1     -12.592  12.281  63.468  1.00  0.00    -0.667 OA 
BRANCH  11  14
HETATM   14  C   UNL     1     -10.684  13.199  64.644  1.00  0.00    -0.380 C  
BRANCH  14  15
HETATM   15  N   UNL     1     -11.632  14.207  65.162  1.00  0.00    -0.330 NA 
HETATM   16  C   UNL     1     -11.689  14.203  66.631  1.00  0.00    -0.403 C  
HETATM   17  C   UNL     1     -10.363  14.654  67.263  1.00  0.00    -0.256 C  
HETATM   18  N   UNL     1      -9.963  16.037  66.916  1.00  0.00    -0.245 NA 
HETATM   19  C   UNL     1     -10.074  16.242  65.455  1.00  0.00    -0.245 C  
HETATM   20  C   UNL     1     -11.278  15.577  64.727  1.00  0.00    -0.390 C  
BRANCH  18  21
HETATM   21  C   UNL     1     -10.754  17.020  67.698  1.00  0.00    -0.295 C  
BRANCH  21  22
HETATM   22  C   UNL     1      -9.805  18.029  68.392  1.00  0.00    -0.366 C  
HETATM   23  N   UNL     1      -8.511  17.921  67.916  1.00  0.00    -0.246 N  
HETATM   24  O   UNL     1     -10.212  18.841  69.218  1.00  0.00    -0.243 OA 
HETATM   25  H   UNL     1      -8.359  17.235  67.176  1.00  0.00     0.000 HD 
BRANCH  23  26
HETATM   26  C   UNL     1      -7.382  18.645  68.331  1.00  0.00    -0.287 A  
HETATM   27  C   UNL     1      -7.123  19.973  67.931  1.00  0.00    -0.319 A  
HETATM   28  C   UNL     1      -5.982  20.622  68.435  1.00  0.00    -0.368 A  
HETATM   29  C   UNL     1      -8.022  20.785  67.039  1.00  0.00    -0.230 C  
HETATM   30  C   UNL     1      -5.142  19.993  69.349  1.00  0.00    -0.211 A  
HETATM   31  C   UNL     1      -5.422  18.699  69.772  1.00  0.00    -0.221 A  
HETATM   32  C   UNL     1      -6.537  18.013  69.272  1.00  0.00    -0.233 A  
HETATM   33  C   UNL     1      -6.760  16.585  69.696  1.00  0.00    -0.126 C  
ENDBRANCH  23  26
ENDBRANCH  21  22
ENDBRANCH  18  21
ENDBRANCH  14  15
ENDBRANCH  11  14
ENDBRANCH  10  11
ENDBRANCH   9  10
ENDBRANCH   8   9
ENDBRANCH   2   3
TORSDOF 9
ENDMDL
MODEL      106
REMARK 921   NORMALIZED FREE ENERGY PREDICTED BY IDOCK:   -5.13 KCAL/MOL
REMARK 922        TOTAL FREE ENERGY PREDICTED BY IDOCK:   -8.92 KCAL/MOL
REMARK 923 INTER-LIGAND FREE ENERGY PREDICTED BY IDOCK:   -7.65 KCAL/MOL
REMARK 924 INTRA-LIGAND FREE ENERGY PREDICTED BY IDOCK:   -1.27 KCAL/MOL
REMARK 927      BINDING AFFINITY PREDICTED BY RF-SCORE:    0.00 PKD
ROOT
HETATM    1  C   UNL     1     -12.340  11.166  69.574  1.00  0.00    -0.194 C  
HETATM    2  O   UNL     1     -11.754  12.020  70.552  1.00  0.00    -0.227 OA 
ENDROOT
BRANCH   2   3
HETATM    3  C   UNL     1     -12.482  13.126  70.904  1.00  0.00    -0.323 A  
HETATM    4  C   UNL     1     -13.432  13.072  71.940  1.00  0.00    -0.498 A  
HETATM    5  C   UNL     1     -14.181  14.194  72.289  1.00  0.00    -0.598 A  
HETATM    6  C   UNL     1     -13.984  15.392  71.614  1.00  0.00    -0.617 A  
HETATM    7  C   UNL     1     -13.022  15.467  70.607  1.00  0.00    -0.425 A  
HETATM    8  C   UNL     1     -12.251  14.351  70.251  1.00  0.00    -0.334 A  
BRANCH   8   9
HETATM    9  O   UNL     1     -11.349  14.642  69.258  1.00  0.00    -0.257 OA 
BRANCH   9  10
HETATM   10  C   UNL     1     -11.846  14.949  67.956  1.00  0.00    -0.268 C  
BRANCH  10  11
HETATM   11  C   UNL     1     -10.678  15.342  67.031  1.00  0.00    -0.321 C  
HETATM   12  H   UNL     1      -8.741  15.789  67.195  1.00  0.00     0.000 HD 
HETATM   13  O   UNL     1      -9.460  15.546  67.765  1.00  0.00    -0.203 OA 
BRANCH  11  14
HETATM   14  C   UNL     1     -10.424  14.248  65.962  1.00  0.00    -0.301 C  
BRANCH  14  15
HETATM   15  N   UNL     1     -10.964  12.914  66.293  1.00  0.00    -0.277 NA 
HETATM   16  C   UNL     1     -11.288  12.138  65.087  1.00  0.00    -0.327 C  
HETATM   17  C   UNL     1     -10.034  11.784  64.273  1.00  0.00    -0.257 C  
HETATM   18  N   UNL     1      -9.056  10.942  64.998  1.00  0.00    -0.199 NA 
HETATM   19  C   UNL     1      -8.803  11.506  66.342  1.00  0.00    -0.193 C  
HETATM   20  C   UNL     1     -10.015  12.116  67.103  1.00  0.00    -0.200 C  
BRANCH  18  21
HETATM   21  C   UNL     1      -9.513   9.530  65.042  1.00  0.00    -0.204 C  
BRANCH  21  22
HETATM   22  C   UNL     1      -8.658   8.728  66.054  1.00  0.00    -0.148 C  
HETATM   23  N   UNL     1      -9.437   8.188  67.063  1.00  0.00    -0.165 N  
HETATM   24  O   UNL     1      -7.450   8.574  65.906  1.00  0.00    -0.076 OA 
HETATM   25  H   UNL     1     -10.440   8.358  66.997  1.00  0.00     0.000 HD 
BRANCH  23  26
HETATM   26  C   UNL     1      -9.007   7.433  68.166  1.00  0.00    -0.129 A  
HETATM   27  C   UNL     1      -8.465   8.008  69.334  1.00  0.00    -0.132 A  
HETATM   28  C   UNL     1      -8.101   7.164  70.398  1.00  0.00    -0.118 A  
HETATM   29  C   UNL     1      -8.300   9.486  69.559  1.00  0.00    -0.145 C  
HETATM   30  C   UNL     1      -8.310   5.790  70.331  1.00  0.00    -0.121 A  
HETATM   31  C   UNL     1      -8.882   5.231  69.194  1.00  0.00    -0.113 A  
HETATM   32  C   UNL     1      -9.236   6.039  68.105  1.00  0.00    -0.116 A  
HETATM   33  C   UNL     1      -9.780   5.384  66.862  1.00  0.00    -0.166 C  
ENDBRANCH  23  26
ENDBRANCH  21  22
ENDBRANCH  18  21
ENDBRANCH  14  15
ENDBRANCH  11  14
ENDBRANCH  10  11
ENDBRANCH   9  10
ENDBRANCH   8   9
ENDBRANCH   2   3
TORSDOF 9
ENDMDL
MODEL      107
REMARK 921   NORMALIZED FREE ENERGY PREDICTED BY IDOCK:   -5.12 KCAL/MOL
REMARK 922        TOTAL FREE ENERGY PREDICTED BY IDOCK:   -8.91 KCAL/MOL
REMARK 923 INTER-LIGAND FREE ENERGY PREDICTED BY IDOCK:   -8.15 KCAL/MOL
REMARK 924 INTRA-LIGAND FREE ENERGY PREDICTED BY IDOCK:   -0.76 KCAL/MOL
REMARK 927      BINDING AFFINITY PREDICTED BY RF-SCORE:    0.00 PKD
ROOT
HETATM    1  C   UNL     1     -11.386  15.940  69.675  1.00  0.00    -0.342 C  
HETATM    2  O   UNL     1     -10.218  16.225  68.910  1.00  0.00    -0.228 OA 
ENDROOT
BRANCH   2   3
HETATM    3  C   UNL     1     -10.311  17.275  68.034  1.00  0.00    -0.353 A  
HETATM    4  C   UNL     1     -10.373  18.603  68.494  1.00  0.00    -0.311 A  
HETATM    5  C   UNL     1     -10.481  19.669  67.602  1.00  0.00    -0.579 A  
HETATM    6  C   UNL     1     -10.516  19.423  66.235  1.00  0.00    -0.586 A  
HETATM    7  C   UNL     1     -10.422  18.114  65.766  1.00  0.00    -0.215 A  
HETATM    8  C   UNL     1     -10.302  17.030  66.648  1.00  0.00    -0.299 A  
BRANCH   8   9
HETATM    9  O   UNL     1     -10.199  15.833  65.985  1.00  0.00    -0.290 OA 
BRANCH   9  10
HETATM   10  C   UNL     1     -11.208  15.492  65.035  1.00  0.00    -0.358 C  
BRANCH  10  11
HETATM   11  C   UNL     1     -12.157  14.439  65.637  1.00  0.00    -0.354 C  
HETATM   12  H   UNL     1     -13.375  12.997  64.991  1.00  0.00     0.000 HD 
HETATM   13  O   UNL     1     -12.790  13.646  64.620  1.00  0.00    -0.666 OA 
BRANCH  11  14
HETATM   14  C   UNL     1     -11.395  13.485  66.592  1.00  0.00    -0.322 C  
BRANCH  14  15
HETATM   15  N   UNL     1     -11.698  12.050  66.416  1.00  0.00    -0.565 NA 
HETATM   16  C   UNL     1     -10.609  11.340  65.728  1.00  0.00    -0.248 C  
HETATM   17  C   UNL     1      -9.326  11.294  66.572  1.00  0.00    -0.185 C  
HETATM   18  N   UNL     1      -9.470  10.584  67.863  1.00  0.00    -0.146 NA 
HETATM   19  C   UNL     1     -10.679  11.062  68.569  1.00  0.00    -0.202 C  
HETATM   20  C   UNL     1     -11.938  11.370  67.708  1.00  0.00     0.005 C  
BRANCH  18  21
HETATM   21  C   UNL     1      -9.469   9.114  67.652  1.00  0.00    -0.140 C  
BRANCH  21  22
HETATM   22  C   UNL     1      -9.045   8.393  68.956  1.00  0.00    -0.147 C  
HETATM   23  N   UNL     1      -8.508   9.278  69.875  1.00  0.00    -0.146 N  
HETATM   24  O   UNL     1      -9.231   7.192  69.125  1.00  0.00    -0.140 OA 
HETATM   25  H   UNL     1      -8.488  10.259  69.596  1.00  0.00     0.000 HD 
BRANCH  23  26
HETATM   26  C   UNL     1      -7.989   8.983  71.146  1.00  0.00    -0.127 A  
HETATM   27  C   UNL     1      -8.794   8.619  72.246  1.00  0.00    -0.218 A  
HETATM   28  C   UNL     1      -8.170   8.306  73.466  1.00  0.00    -0.250 A  
HETATM   29  C   UNL     1     -10.290   8.479  72.197  1.00  0.00    -0.409 C  
HETATM   30  C   UNL     1      -6.784   8.305  73.586  1.00  0.00    -0.145 A  
HETATM   31  C   UNL     1      -5.992   8.624  72.490  1.00  0.00    -0.079 A  
HETATM   32  C   UNL     1      -6.580   8.964  71.263  1.00  0.00    -0.080 A  
HETATM   33  C   UNL     1      -5.689   9.380  70.122  1.00  0.00    -0.032 C  
ENDBRANCH  23  26
ENDBRANCH  21  22
ENDBRANCH  18  21
ENDBRANCH  14  15
ENDBRANCH  11  14
ENDBRANCH  10  11
ENDBRANCH   9  10
ENDBRANCH   8   9
ENDBRANCH   2   3
TORSDOF 9
ENDMDL
MODEL      108
REMARK 921   NORMALIZED FREE ENERGY PREDICTED BY IDOCK:   -5.12 KCAL/MOL
REMARK 922        TOTAL FREE ENERGY PREDICTED BY IDOCK:   -8.91 KCAL/MOL
REMARK 923 INTER-LIGAND FREE ENERGY PREDICTED BY IDOCK:   -7.15 KCAL/MOL
REMARK 924 INTRA-LIGAND FREE ENERGY PREDICTED BY IDOCK:   -1.76 KCAL/MOL
REMARK 927      BINDING AFFINITY PREDICTED BY RF-SCORE:    0.00 PKD
ROOT
HETATM    1  C   UNL     1     -12.165  14.592  64.439  1.00  0.00    -0.452 C  
HETATM    2  O   UNL     1     -11.053  14.159  65.217  1.00  0.00    -0.307 OA 
ENDROOT
BRANCH   2   3
HETATM    3  C   UNL     1     -11.184  14.276  66.576  1.00  0.00    -0.332 A  
HETATM    4  C   UNL     1     -11.886  13.315  67.325  1.00  0.00    -0.421 A  
HETATM    5  C   UNL     1     -12.030  13.441  68.705  1.00  0.00    -0.359 A  
HETATM    6  C   UNL     1     -11.462  14.527  69.361  1.00  0.00    -0.323 A  
HETATM    7  C   UNL     1     -10.735  15.469  68.634  1.00  0.00    -0.252 A  
HETATM    8  C   UNL     1     -10.571  15.351  67.246  1.00  0.00    -0.294 A  
BRANCH   8   9
HETATM    9  O   UNL     1      -9.804  16.365  66.729  1.00  0.00    -0.238 OA 
BRANCH   9  10
HETATM   10  C   UNL     1      -8.705  16.848  67.499  1.00  0.00    -0.208 C  
BRANCH  10  11
HETATM   11  C   UNL     1      -7.404  16.164  67.040  1.00  0.00    -0.231 C  
HETATM   12  H   UNL     1      -5.513  16.674  66.658  1.00  0.00     0.000 HD 
HETATM   13  O   UNL     1      -6.315  17.096  66.942  1.00  0.00    -0.162 OA 
BRANCH  11  14
HETATM   14  C   UNL     1      -6.992  15.037  68.022  1.00  0.00    -0.137 C  
BRANCH  14  15
HETATM   15  N   UNL     1      -6.544  13.783  67.383  1.00  0.00    -0.267 NA 
HETATM   16  C   UNL     1      -5.606  13.037  68.234  1.00  0.00    -0.081 C  
HETATM   17  C   UNL     1      -6.276  12.521  69.518  1.00  0.00    -0.120 C  
HETATM   18  N   UNL     1      -7.391  11.576  69.285  1.00  0.00    -0.061 NA 
HETATM   19  C   UNL     1      -8.311  12.123  68.264  1.00  0.00    -0.172 C  
HETATM   20  C   UNL     1      -7.678  12.886  67.065  1.00  0.00     0.037 C  
BRANCH  18  21
HETATM   21  C   UNL     1      -6.870  10.231  68.931  1.00  0.00    -0.059 C  
BRANCH  21  22
HETATM   22  C   UNL     1      -7.832   9.136  69.456  1.00  0.00    -0.082 C  
HETATM   23  N   UNL     1      -8.429   9.512  70.646  1.00  0.00    -0.195 N  
HETATM   24  O   UNL     1      -8.044   8.103  68.829  1.00  0.00    -0.116 OA 
HETATM   25  H   UNL     1      -8.189  10.439  70.997  1.00  0.00     0.000 HD 
BRANCH  23  26
HETATM   26  C   UNL     1      -9.327   8.766  71.427  1.00  0.00    -0.258 A  
HETATM   27  C   UNL     1      -8.928   7.698  72.258  1.00  0.00    -0.177 A  
HETATM   28  C   UNL     1      -9.903   7.040  73.029  1.00  0.00    -0.217 A  
HETATM   29  C   UNL     1      -7.507   7.239  72.433  1.00  0.00    -0.084 C  
HETATM   30  C   UNL     1     -11.230   7.456  73.017  1.00  0.00    -0.345 A  
HETATM   31  C   UNL     1     -11.613   8.534  72.229  1.00  0.00    -0.444 A  
HETATM   32  C   UNL     1     -10.673   9.199  71.429  1.00  0.00    -0.414 A  
HETATM   33  C   UNL     1     -11.143  10.312  70.530  1.00  0.00    -0.381 C  
ENDBRANCH  23  26
ENDBRANCH  21  22
ENDBRANCH  18  21
ENDBRANCH  14  15
ENDBRANCH  11  14
ENDBRANCH  10  11
ENDBRANCH   9  10
ENDBRANCH   8   9
ENDBRANCH   2   3
TORSDOF 9
ENDMDL
MODEL      109
REMARK 921   NORMALIZED FREE ENERGY PREDICTED BY IDOCK:   -5.11 KCAL/MOL
REMARK 922        TOTAL FREE ENERGY PREDICTED BY IDOCK:   -8.90 KCAL/MOL
REMARK 923 INTER-LIGAND FREE ENERGY PREDICTED BY IDOCK:   -7.67 KCAL/MOL
REMARK 924 INTRA-LIGAND FREE ENERGY PREDICTED BY IDOCK:   -1.23 KCAL/MOL
REMARK 927      BINDING AFFINITY PREDICTED BY RF-SCORE:    0.00 PKD
ROOT
HETATM    1  C   UNL     1     -12.369  14.484  69.437  1.00  0.00    -0.177 C  
HETATM    2  O   UNL     1     -12.100  13.848  68.191  1.00  0.00    -0.365 OA 
ENDROOT
BRANCH   2   3
HETATM    3  C   UNL     1     -11.631  14.656  67.189  1.00  0.00    -0.378 A  
HETATM    4  C   UNL     1     -10.849  15.790  67.474  1.00  0.00    -0.315 A  
HETATM    5  C   UNL     1     -10.383  16.619  66.455  1.00  0.00    -0.310 A  
HETATM    6  C   UNL     1     -10.683  16.319  65.131  1.00  0.00    -0.350 A  
HETATM    7  C   UNL     1     -11.430  15.180  64.834  1.00  0.00    -0.374 A  
HETATM    8  C   UNL     1     -11.897  14.328  65.846  1.00  0.00    -0.380 A  
BRANCH   8   9
HETATM    9  O   UNL     1     -12.587  13.255  65.341  1.00  0.00    -0.478 OA 
BRANCH   9  10
HETATM   10  C   UNL     1     -12.400  12.911  63.969  1.00  0.00    -0.380 C  
BRANCH  10  11
HETATM   11  C   UNL     1     -11.353  11.787  63.850  1.00  0.00    -0.411 C  
HETATM   12  H   UNL     1      -9.446  11.587  63.299  1.00  0.00     0.000 HD 
HETATM   13  O   UNL     1     -10.092  12.280  63.372  1.00  0.00    -0.407 OA 
BRANCH  11  14
HETATM   14  C   UNL     1     -11.119  11.100  65.221  1.00  0.00    -0.006 C  
BRANCH  14  15
HETATM   15  N   UNL     1      -9.704  10.993  65.632  1.00  0.00    -0.219 NA 
HETATM   16  C   UNL     1      -9.463  11.623  66.938  1.00  0.00    -0.185 C  
HETATM   17  C   UNL     1     -10.185  10.886  68.078  1.00  0.00    -0.178 C  
HETATM   18  N   UNL     1      -9.755   9.481  68.262  1.00  0.00    -0.145 NA 
HETATM   19  C   UNL     1      -9.743   8.782  66.959  1.00  0.00    -0.198 C  
HETATM   20  C   UNL     1      -9.256   9.585  65.719  1.00  0.00    -0.211 C  
BRANCH  18  21
HETATM   21  C   UNL     1      -8.445   9.424  68.959  1.00  0.00    -0.129 C  
BRANCH  21  22
HETATM   22  C   UNL     1      -8.263   8.040  69.631  1.00  0.00    -0.121 C  
HETATM   23  N   UNL     1      -9.344   7.718  70.432  1.00  0.00    -0.160 N  
HETATM   24  O   UNL     1      -7.286   7.332  69.406  1.00  0.00    -0.084 OA 
HETATM   25  H   UNL     1     -10.106   8.395  70.454  1.00  0.00     0.000 HD 
BRANCH  23  26
HETATM   26  C   UNL     1      -9.515   6.567  71.218  1.00  0.00    -0.166 A  
HETATM   27  C   UNL     1      -9.881   5.313  70.685  1.00  0.00    -0.264 A  
HETATM   28  C   UNL     1      -9.988   4.213  71.555  1.00  0.00    -0.230 A  
HETATM   29  C   UNL     1     -10.111   5.042  69.224  1.00  0.00    -0.270 C  
HETATM   30  C   UNL     1      -9.694   4.336  72.910  1.00  0.00    -0.172 A  
HETATM   31  C   UNL     1      -9.294   5.564  73.424  1.00  0.00    -0.138 A  
HETATM   32  C   UNL     1      -9.199   6.687  72.591  1.00  0.00    -0.148 A  
HETATM   33  C   UNL     1      -8.838   8.015  73.203  1.00  0.00    -0.318 C  
ENDBRANCH  23  26
ENDBRANCH  21  22
ENDBRANCH  18  21
ENDBRANCH  14  15
ENDBRANCH  11  14
ENDBRANCH  10  11
ENDBRANCH   9  10
ENDBRANCH   8   9
ENDBRANCH   2   3
TORSDOF 9
ENDMDL
MODEL      110
REMARK 921   NORMALIZED FREE ENERGY PREDICTED BY IDOCK:   -5.10 KCAL/MOL
REMARK 922        TOTAL FREE ENERGY PREDICTED BY IDOCK:   -8.88 KCAL/MOL
REMARK 923 INTER-LIGAND FREE ENERGY PREDICTED BY IDOCK:   -8.26 KCAL/MOL
REMARK 924 INTRA-LIGAND FREE ENERGY PREDICTED BY IDOCK:   -0.61 KCAL/MOL
REMARK 927      BINDING AFFINITY PREDICTED BY RF-SCORE:    0.00 PKD
ROOT
HETATM    1  C   UNL     1     -11.614  15.184  68.550  1.00  0.00    -0.335 C  
HETATM    2  O   UNL     1     -11.456  14.218  69.586  1.00  0.00    -0.263 OA 
ENDROOT
BRANCH   2   3
HETATM    3  C   UNL     1     -11.964  14.557  70.812  1.00  0.00    -0.322 A  
HETATM    4  C   UNL     1     -11.643  15.786  71.418  1.00  0.00    -0.511 A  
HETATM    5  C   UNL     1     -12.150  16.124  72.671  1.00  0.00    -0.652 A  
HETATM    6  C   UNL     1     -12.996  15.243  73.334  1.00  0.00    -0.656 A  
HETATM    7  C   UNL     1     -13.348  14.037  72.729  1.00  0.00    -0.603 A  
HETATM    8  C   UNL     1     -12.856  13.685  71.464  1.00  0.00    -0.359 A  
BRANCH   8   9
HETATM    9  O   UNL     1     -13.341  12.473  71.040  1.00  0.00     0.072 OA 
BRANCH   9  10
HETATM   10  C   UNL     1     -12.412  11.419  70.790  1.00  0.00    -0.365 C  
BRANCH  10  11
HETATM   11  C   UNL     1     -12.705  10.232  71.728  1.00  0.00    -0.433 C  
HETATM   12  H   UNL     1     -14.045   8.763  71.889  1.00  0.00     0.000 HD 
HETATM   13  O   UNL     1     -13.865   9.495  71.311  1.00  0.00    -0.294 OA 
BRANCH  11  14
HETATM   14  C   UNL     1     -11.501   9.256  71.780  1.00  0.00    -0.378 C  
BRANCH  14  15
HETATM   15  N   UNL     1     -11.851   7.826  71.657  1.00  0.00    -0.276 NA 
HETATM   16  C   UNL     1     -11.334   7.239  70.412  1.00  0.00    -0.271 C  
HETATM   17  C   UNL     1      -9.798   7.197  70.386  1.00  0.00    -0.176 C  
HETATM   18  N   UNL     1      -9.195   6.373  71.459  1.00  0.00    -0.145 NA 
HETATM   19  C   UNL     1      -9.800   6.720  72.763  1.00  0.00    -0.166 C  
HETATM   20  C   UNL     1     -11.326   7.026  72.786  1.00  0.00    -0.218 C  
BRANCH  18  21
HETATM   21  C   UNL     1      -9.311   4.929  71.135  1.00  0.00    -0.150 C  
BRANCH  21  22
HETATM   22  C   UNL     1      -8.774   4.661  69.707  1.00  0.00    -0.081 C  
HETATM   23  N   UNL     1      -9.747   4.109  68.892  1.00  0.00    -0.146 N  
HETATM   24  O   UNL     1      -7.634   4.969  69.373  1.00  0.00    -0.060 OA 
HETATM   25  H   UNL     1     -10.666   3.979  69.314  1.00  0.00     0.000 HD 
BRANCH  23  26
HETATM   26  C   UNL     1      -9.616   3.706  67.554  1.00  0.00    -0.144 A  
HETATM   27  C   UNL     1     -10.002   4.511  66.461  1.00  0.00    -0.263 A  
HETATM   28  C   UNL     1      -9.792   4.028  65.158  1.00  0.00    -0.203 A  
HETATM   29  C   UNL     1     -10.574   5.896  66.584  1.00  0.00    -0.330 C  
HETATM   30  C   UNL     1      -9.173   2.802  64.935  1.00  0.00    -0.147 A  
HETATM   31  C   UNL     1      -8.757   2.030  66.013  1.00  0.00    -0.116 A  
HETATM   32  C   UNL     1      -8.971   2.469  67.327  1.00  0.00    -0.182 A  
HETATM   33  C   UNL     1      -8.576   1.566  68.466  1.00  0.00    -0.090 C  
ENDBRANCH  23  26
ENDBRANCH  21  22
ENDBRANCH  18  21
ENDBRANCH  14  15
ENDBRANCH  11  14
ENDBRANCH  10  11
ENDBRANCH   9  10
ENDBRANCH   8   9
ENDBRANCH   2   3
TORSDOF 9
ENDMDL
MODEL      111
REMARK 921   NORMALIZED FREE ENERGY PREDICTED BY IDOCK:   -5.07 KCAL/MOL
REMARK 922        TOTAL FREE ENERGY PREDICTED BY IDOCK:   -8.83 KCAL/MOL
REMARK 923 INTER-LIGAND FREE ENERGY PREDICTED BY IDOCK:   -7.64 KCAL/MOL
REMARK 924 INTRA-LIGAND FREE ENERGY PREDICTED BY IDOCK:   -1.19 KCAL/MOL
REMARK 927      BINDING AFFINITY PREDICTED BY RF-SCORE:    0.00 PKD
ROOT
HETATM    1  C   UNL     1      -8.434  11.384  66.975  1.00  0.00    -0.159 C  
HETATM    2  O   UNL     1      -9.785  10.978  66.779  1.00  0.00    -0.187 OA 
ENDROOT
BRANCH   2   3
HETATM    3  C   UNL     1     -10.677  11.972  66.472  1.00  0.00    -0.258 A  
HETATM    4  C   UNL     1     -10.948  12.321  65.137  1.00  0.00    -0.344 A  
HETATM    5  C   UNL     1     -11.845  13.341  64.826  1.00  0.00    -0.411 A  
HETATM    6  C   UNL     1     -12.496  14.021  65.848  1.00  0.00    -0.513 A  
HETATM    7  C   UNL     1     -12.261  13.663  67.175  1.00  0.00    -0.340 A  
HETATM    8  C   UNL     1     -11.370  12.632  67.505  1.00  0.00    -0.308 A  
BRANCH   8   9
HETATM    9  O   UNL     1     -11.301  12.422  68.860  1.00  0.00    -0.254 OA 
BRANCH   9  10
HETATM   10  C   UNL     1     -12.390  12.858  69.672  1.00  0.00    -0.023 C  
BRANCH  10  11
HETATM   11  C   UNL     1     -12.383  12.096  71.010  1.00  0.00    -0.230 C  
HETATM   12  H   UNL     1     -13.502  11.978  72.657  1.00  0.00     0.000 HD 
HETATM   13  O   UNL     1     -13.507  12.448  71.832  1.00  0.00    -0.423 OA 
BRANCH  11  14
HETATM   14  C   UNL     1     -12.413  10.563  70.776  1.00  0.00    -0.378 C  
BRANCH  14  15
HETATM   15  N   UNL     1     -11.426   9.792  71.558  1.00  0.00    -0.366 NA 
HETATM   16  C   UNL     1     -12.042   8.645  72.242  1.00  0.00    -0.373 C  
HETATM   17  C   UNL     1     -12.560   7.591  71.251  1.00  0.00    -0.314 C  
HETATM   18  N   UNL     1     -11.510   6.989  70.399  1.00  0.00    -0.311 NA 
HETATM   19  C   UNL     1     -10.665   8.052  69.812  1.00  0.00    -0.231 C  
HETATM   20  C   UNL     1     -10.327   9.276  70.711  1.00  0.00    -0.281 C  
BRANCH  18  21
HETATM   21  C   UNL     1     -10.727   5.987  71.165  1.00  0.00    -0.264 C  
BRANCH  21  22
HETATM   22  C   UNL     1      -9.665   5.331  70.248  1.00  0.00    -0.195 C  
HETATM   23  N   UNL     1     -10.250   4.697  69.166  1.00  0.00    -0.079 N  
HETATM   24  O   UNL     1      -8.463   5.435  70.468  1.00  0.00    -0.117 OA 
HETATM   25  H   UNL     1     -11.266   4.764  69.100  1.00  0.00     0.000 HD 
BRANCH  23  26
HETATM   26  C   UNL     1      -9.609   3.971  68.149  1.00  0.00    -0.128 A  
HETATM   27  C   UNL     1      -9.095   2.670  68.333  1.00  0.00    -0.224 A  
HETATM   28  C   UNL     1      -8.504   2.015  67.238  1.00  0.00    -0.099 A  
HETATM   29  C   UNL     1      -9.186   1.891  69.616  1.00  0.00    -0.172 C  
HETATM   30  C   UNL     1      -8.465   2.609  65.980  1.00  0.00    -0.098 A  
HETATM   31  C   UNL     1      -9.008   3.875  65.794  1.00  0.00    -0.131 A  
HETATM   32  C   UNL     1      -9.584   4.567  66.868  1.00  0.00    -0.208 A  
HETATM   33  C   UNL     1     -10.091   5.967  66.640  1.00  0.00    -0.226 C  
ENDBRANCH  23  26
ENDBRANCH  21  22
ENDBRANCH  18  21
ENDBRANCH  14  15
ENDBRANCH  11  14
ENDBRANCH  10  11
ENDBRANCH   9  10
ENDBRANCH   8   9
ENDBRANCH   2   3
TORSDOF 9
ENDMDL
MODEL      112
REMARK 921   NORMALIZED FREE ENERGY PREDICTED BY IDOCK:   -5.07 KCAL/MOL
REMARK 922        TOTAL FREE ENERGY PREDICTED BY IDOCK:   -8.83 KCAL/MOL
REMARK 923 INTER-LIGAND FREE ENERGY PREDICTED BY IDOCK:   -7.91 KCAL/MOL
REMARK 924 INTRA-LIGAND FREE ENERGY PREDICTED BY IDOCK:   -0.93 KCAL/MOL
REMARK 927      BINDING AFFINITY PREDICTED BY RF-SCORE:    0.00 PKD
ROOT
HETATM    1  C   UNL     1     -12.862  15.835  73.499  1.00  0.00    -0.584 C  
HETATM    2  O   UNL     1     -13.414  14.725  72.797  1.00  0.00    -0.444 OA 
ENDROOT
BRANCH   2   3
HETATM    3  C   UNL     1     -12.808  14.396  71.614  1.00  0.00    -0.343 A  
HETATM    4  C   UNL     1     -12.247  15.384  70.784  1.00  0.00    -0.430 A  
HETATM    5  C   UNL     1     -11.642  15.049  69.574  1.00  0.00    -0.337 A  
HETATM    6  C   UNL     1     -11.579  13.718  69.179  1.00  0.00    -0.363 A  
HETATM    7  C   UNL     1     -12.102  12.727  70.008  1.00  0.00    -0.355 A  
HETATM    8  C   UNL     1     -12.705  13.044  71.234  1.00  0.00    -0.293 A  
BRANCH   8   9
HETATM    9  O   UNL     1     -13.131  11.926  71.905  1.00  0.00    -0.458 OA 
BRANCH   9  10
HETATM   10  C   UNL     1     -13.159  10.682  71.206  1.00  0.00    -0.359 C  
BRANCH  10  11
HETATM   11  C   UNL     1     -13.119   9.516  72.212  1.00  0.00    -0.408 C  
HETATM   12  H   UNL     1     -14.371   8.588  73.457  1.00  0.00     0.000 HD 
HETATM   13  O   UNL     1     -14.396   9.307  72.837  1.00  0.00    -0.461 OA 
BRANCH  11  14
HETATM   14  C   UNL     1     -12.697   8.197  71.516  1.00  0.00    -0.308 C  
BRANCH  14  15
HETATM   15  N   UNL     1     -11.403   7.641  71.963  1.00  0.00    -0.265 NA 
HETATM   16  C   UNL     1     -11.275   6.214  71.632  1.00  0.00    -0.286 C  
HETATM   17  C   UNL     1     -11.218   5.976  70.115  1.00  0.00    -0.342 C  
HETATM   18  N   UNL     1     -10.065   6.615  69.441  1.00  0.00    -0.169 NA 
HETATM   19  C   UNL     1      -9.950   8.026  69.868  1.00  0.00    -0.189 C  
HETATM   20  C   UNL     1     -10.254   8.351  71.359  1.00  0.00    -0.220 C  
BRANCH  18  21
HETATM   21  C   UNL     1      -8.824   5.836  69.681  1.00  0.00    -0.122 C  
BRANCH  21  22
HETATM   22  C   UNL     1      -8.811   4.571  68.789  1.00  0.00    -0.101 C  
HETATM   23  N   UNL     1      -8.423   4.866  67.494  1.00  0.00    -0.105 N  
HETATM   24  O   UNL     1      -9.070   3.458  69.235  1.00  0.00    -0.106 OA 
HETATM   25  H   UNL     1      -8.177   5.838  67.308  1.00  0.00     0.000 HD 
BRANCH  23  26
HETATM   26  C   UNL     1      -8.327   3.983  66.406  1.00  0.00    -0.105 A  
HETATM   27  C   UNL     1      -7.194   3.181  66.157  1.00  0.00    -0.070 A  
HETATM   28  C   UNL     1      -7.215   2.301  65.060  1.00  0.00    -0.057 A  
HETATM   29  C   UNL     1      -5.965   3.149  67.023  1.00  0.00    -0.024 C  
HETATM   30  C   UNL     1      -8.345   2.180  64.257  1.00  0.00    -0.082 A  
HETATM   31  C   UNL     1      -9.475   2.942  64.530  1.00  0.00    -0.146 A  
HETATM   32  C   UNL     1      -9.481   3.846  65.600  1.00  0.00    -0.176 A  
HETATM   33  C   UNL     1     -10.697   4.709  65.814  1.00  0.00    -0.195 C  
ENDBRANCH  23  26
ENDBRANCH  21  22
ENDBRANCH  18  21
ENDBRANCH  14  15
ENDBRANCH  11  14
ENDBRANCH  10  11
ENDBRANCH   9  10
ENDBRANCH   8   9
ENDBRANCH   2   3
TORSDOF 9
ENDMDL
MODEL      113
REMARK 921   NORMALIZED FREE ENERGY PREDICTED BY IDOCK:   -5.00 KCAL/MOL
REMARK 922        TOTAL FREE ENERGY PREDICTED BY IDOCK:   -8.72 KCAL/MOL
REMARK 923 INTER-LIGAND FREE ENERGY PREDICTED BY IDOCK:   -7.71 KCAL/MOL
REMARK 924 INTRA-LIGAND FREE ENERGY PREDICTED BY IDOCK:   -1.01 KCAL/MOL
REMARK 927      BINDING AFFINITY PREDICTED BY RF-SCORE:    0.00 PKD
ROOT
HETATM    1  C   UNL     1     -10.114  20.458  67.467  1.00  0.00    -0.355 C  
HETATM    2  O   UNL     1      -9.117  19.910  68.325  1.00  0.00    -0.319 OA 
ENDROOT
BRANCH   2   3
HETATM    3  C   UNL     1      -8.304  18.954  67.775  1.00  0.00    -0.279 A  
HETATM    4  C   UNL     1      -7.160  19.308  67.037  1.00  0.00    -0.216 A  
HETATM    5  C   UNL     1      -6.342  18.336  66.466  1.00  0.00    -0.225 A  
HETATM    6  C   UNL     1      -6.648  16.991  66.635  1.00  0.00    -0.272 A  
HETATM    7  C   UNL     1      -7.761  16.626  67.392  1.00  0.00    -0.188 A  
HETATM    8  C   UNL     1      -8.589  17.591  67.983  1.00  0.00    -0.250 A  
BRANCH   8   9
HETATM    9  O   UNL     1      -9.611  17.024  68.702  1.00  0.00    -0.257 OA 
BRANCH   9  10
HETATM   10  C   UNL     1     -10.836  16.733  68.031  1.00  0.00    -0.341 C  
BRANCH  10  11
HETATM   11  C   UNL     1     -11.114  15.219  68.085  1.00  0.00    -0.308 C  
HETATM   12  H   UNL     1     -12.278  13.959  69.103  1.00  0.00     0.000 HD 
HETATM   13  O   UNL     1     -12.107  14.893  69.071  1.00  0.00    -0.282 OA 
BRANCH  11  14
HETATM   14  C   UNL     1     -11.605  14.696  66.710  1.00  0.00    -0.360 C  
BRANCH  14  15
HETATM   15  N   UNL     1     -11.927  13.255  66.668  1.00  0.00    -0.393 NA 
HETATM   16  C   UNL     1     -12.221  12.797  65.303  1.00  0.00    -0.483 C  
HETATM   17  C   UNL     1     -10.988  12.876  64.389  1.00  0.00    -0.371 C  
HETATM   18  N   UNL     1      -9.854  12.030  64.823  1.00  0.00    -0.208 NA 
HETATM   19  C   UNL     1      -9.592  12.238  66.264  1.00  0.00    -0.242 C  
HETATM   20  C   UNL     1     -10.823  12.423  67.197  1.00  0.00    -0.245 C  
BRANCH  18  21
HETATM   21  C   UNL     1     -10.104  10.606  64.483  1.00  0.00    -0.353 C  
BRANCH  21  22
HETATM   22  C   UNL     1      -9.072   9.701  65.200  1.00  0.00    -0.228 C  
HETATM   23  N   UNL     1      -9.693   8.715  65.947  1.00  0.00    -0.457 N  
HETATM   24  O   UNL     1      -7.864   9.847  65.049  1.00  0.00    -0.120 OA 
HETATM   25  H   UNL     1     -10.712   8.696  65.909  1.00  0.00     0.000 HD 
BRANCH  23  26
HETATM   26  C   UNL     1      -9.084   7.739  66.753  1.00  0.00    -0.154 A  
HETATM   27  C   UNL     1      -8.478   6.576  66.234  1.00  0.00    -0.129 A  
HETATM   28  C   UNL     1      -7.861   5.680  67.125  1.00  0.00    -0.101 A  
HETATM   29  C   UNL     1      -8.384   6.243  64.770  1.00  0.00    -0.051 C  
HETATM   30  C   UNL     1      -7.801   5.947  68.489  1.00  0.00    -0.102 A  
HETATM   31  C   UNL     1      -8.364   7.115  68.991  1.00  0.00    -0.126 A  
HETATM   32  C   UNL     1      -9.008   8.020  68.136  1.00  0.00    -0.135 A  
HETATM   33  C   UNL     1      -9.672   9.233  68.732  1.00  0.00    -0.162 C  
ENDBRANCH  23  26
ENDBRANCH  21  22
ENDBRANCH  18  21
ENDBRANCH  14  15
ENDBRANCH  11  14
ENDBRANCH  10  11
ENDBRANCH   9  10
ENDBRANCH   8   9
ENDBRANCH   2   3
TORSDOF 9
ENDMDL
MODEL      114
REMARK 921   NORMALIZED FREE ENERGY PREDICTED BY IDOCK:   -5.00 KCAL/MOL
REMARK 922        TOTAL FREE ENERGY PREDICTED BY IDOCK:   -8.72 KCAL/MOL
REMARK 923 INTER-LIGAND FREE ENERGY PREDICTED BY IDOCK:   -7.55 KCAL/MOL
REMARK 924 INTRA-LIGAND FREE ENERGY PREDICTED BY IDOCK:   -1.17 KCAL/MOL
REMARK 927      BINDING AFFINITY PREDICTED BY RF-SCORE:    0.00 PKD
ROOT
HETATM    1  C   UNL     1     -10.818   6.181  67.763  1.00  0.00    -0.325 C  
HETATM    2  O   UNL     1     -10.106   6.229  68.996  1.00  0.00    -0.155 OA 
ENDROOT
BRANCH   2   3
HETATM    3  C   UNL     1     -10.762   6.807  70.051  1.00  0.00    -0.247 A  
HETATM    4  C   UNL     1     -11.499   6.029  70.963  1.00  0.00    -0.236 A  
HETATM    5  C   UNL     1     -12.177   6.619  72.028  1.00  0.00    -0.337 A  
HETATM    6  C   UNL     1     -12.119   7.996  72.206  1.00  0.00    -0.392 A  
HETATM    7  C   UNL     1     -11.364   8.773  71.328  1.00  0.00    -0.357 A  
HETATM    8  C   UNL     1     -10.667   8.196  70.257  1.00  0.00    -0.235 A  
BRANCH   8   9
HETATM    9  O   UNL     1      -9.970   9.129  69.532  1.00  0.00    -0.177 OA 
BRANCH   9  10
HETATM   10  C   UNL     1      -8.616   9.399  69.893  1.00  0.00    -0.191 C  
BRANCH  10  11
HETATM   11  C   UNL     1      -7.698   9.187  68.675  1.00  0.00    -0.092 C  
HETATM   12  H   UNL     1      -7.862   8.590  66.778  1.00  0.00     0.000 HD 
HETATM   13  O   UNL     1      -8.429   8.721  67.530  1.00  0.00    -0.119 OA 
BRANCH  11  14
HETATM   14  C   UNL     1      -6.975  10.503  68.288  1.00  0.00    -0.073 C  
BRANCH  14  15
HETATM   15  N   UNL     1      -7.393  11.694  69.055  1.00  0.00    -0.101 NA 
HETATM   16  C   UNL     1      -6.244  12.407  69.632  1.00  0.00    -0.130 C  
HETATM   17  C   UNL     1      -5.342  13.022  68.550  1.00  0.00    -0.063 C  
HETATM   18  N   UNL     1      -6.014  14.034  67.703  1.00  0.00    -0.324 NA 
HETATM   19  C   UNL     1      -7.313  13.512  67.227  1.00  0.00    -0.012 C  
HETATM   20  C   UNL     1      -8.149  12.655  68.221  1.00  0.00    -0.161 C  
BRANCH  18  21
HETATM   21  C   UNL     1      -6.141  15.322  68.430  1.00  0.00    -0.105 C  
BRANCH  21  22
HETATM   22  C   UNL     1      -6.739  16.402  67.494  1.00  0.00    -0.153 C  
HETATM   23  N   UNL     1      -7.975  16.835  67.942  1.00  0.00    -0.174 N  
HETATM   24  O   UNL     1      -6.129  16.825  66.518  1.00  0.00    -0.292 OA 
HETATM   25  H   UNL     1      -8.308  16.423  68.814  1.00  0.00     0.000 HD 
BRANCH  23  26
HETATM   26  C   UNL     1      -8.823  17.776  67.337  1.00  0.00    -0.240 A  
HETATM   27  C   UNL     1      -9.791  17.436  66.368  1.00  0.00    -0.311 A  
HETATM   28  C   UNL     1     -10.617  18.449  65.852  1.00  0.00    -0.313 A  
HETATM   29  C   UNL     1     -10.053  16.037  65.880  1.00  0.00    -0.378 C  
HETATM   30  C   UNL     1     -10.525  19.758  66.314  1.00  0.00    -0.614 A  
HETATM   31  C   UNL     1      -9.598  20.082  67.298  1.00  0.00    -0.527 A  
HETATM   32  C   UNL     1      -8.742  19.102  67.819  1.00  0.00    -0.336 A  
HETATM   33  C   UNL     1      -7.700  19.511  68.827  1.00  0.00    -0.375 C  
ENDBRANCH  23  26
ENDBRANCH  21  22
ENDBRANCH  18  21
ENDBRANCH  14  15
ENDBRANCH  11  14
ENDBRANCH  10  11
ENDBRANCH   9  10
ENDBRANCH   8   9
ENDBRANCH   2   3
TORSDOF 9
ENDMDL
MODEL      115
REMARK 921   NORMALIZED FREE ENERGY PREDICTED BY IDOCK:   -4.99 KCAL/MOL
REMARK 922        TOTAL FREE ENERGY PREDICTED BY IDOCK:   -8.72 KCAL/MOL
REMARK 923 INTER-LIGAND FREE ENERGY PREDICTED BY IDOCK:   -7.62 KCAL/MOL
REMARK 924 INTRA-LIGAND FREE ENERGY PREDICTED BY IDOCK:   -1.09 KCAL/MOL
REMARK 927      BINDING AFFINITY PREDICTED BY RF-SCORE:    0.00 PKD
ROOT
HETATM    1  C   UNL     1     -10.649  17.430  68.586  1.00  0.00    -0.318 C  
HETATM    2  O   UNL     1     -10.130  16.541  69.571  1.00  0.00    -0.237 OA 
ENDROOT
BRANCH   2   3
HETATM    3  C   UNL     1     -11.037  15.710  70.175  1.00  0.00    -0.336 A  
HETATM    4  C   UNL     1     -11.672  16.075  71.376  1.00  0.00    -0.536 A  
HETATM    5  C   UNL     1     -12.584  15.224  71.995  1.00  0.00    -0.429 A  
HETATM    6  C   UNL     1     -12.886  13.997  71.416  1.00  0.00    -0.434 A  
HETATM    7  C   UNL     1     -12.288  13.638  70.209  1.00  0.00    -0.392 A  
HETATM    8  C   UNL     1     -11.376  14.487  69.566  1.00  0.00    -0.275 A  
BRANCH   8   9
HETATM    9  O   UNL     1     -10.924  13.959  68.383  1.00  0.00    -0.237 OA 
BRANCH   9  10
HETATM   10  C   UNL     1     -11.772  14.031  67.237  1.00  0.00    -0.389 C  
BRANCH  10  11
HETATM   11  C   UNL     1     -11.877  12.644  66.577  1.00  0.00    -0.396 C  
HETATM   12  H   UNL     1     -12.714  11.830  64.959  1.00  0.00     0.000 HD 
HETATM   13  O   UNL     1     -12.650  12.685  65.366  1.00  0.00    -0.641 OA 
BRANCH  11  14
HETATM   14  C   UNL     1     -10.472  12.083  66.237  1.00  0.00    -0.238 C  
BRANCH  14  15
HETATM   15  N   UNL     1     -10.417  10.622  66.027  1.00  0.00    -0.217 NA 
HETATM   16  C   UNL     1      -9.053  10.162  65.724  1.00  0.00    -0.171 C  
HETATM   17  C   UNL     1      -8.101  10.350  66.915  1.00  0.00    -0.118 C  
HETATM   18  N   UNL     1      -8.485   9.590  68.127  1.00  0.00    -0.119 NA 
HETATM   19  C   UNL     1      -9.919   9.798  68.420  1.00  0.00    -0.156 C  
HETATM   20  C   UNL     1     -10.895   9.872  67.210  1.00  0.00    -0.199 C  
BRANCH  18  21
HETATM   21  C   UNL     1      -8.128   8.156  67.977  1.00  0.00    -0.128 C  
BRANCH  21  22
HETATM   22  C   UNL     1      -8.123   7.465  69.363  1.00  0.00    -0.129 C  
HETATM   23  N   UNL     1      -8.591   6.164  69.284  1.00  0.00    -0.119 N  
HETATM   24  O   UNL     1      -7.698   8.025  70.367  1.00  0.00    -0.082 OA 
HETATM   25  H   UNL     1      -8.843   5.832  68.353  1.00  0.00     0.000 HD 
BRANCH  23  26
HETATM   26  C   UNL     1      -8.758   5.249  70.335  1.00  0.00    -0.127 A  
HETATM   27  C   UNL     1      -7.750   4.356  70.752  1.00  0.00    -0.056 A  
HETATM   28  C   UNL     1      -8.007   3.505  71.842  1.00  0.00    -0.063 A  
HETATM   29  C   UNL     1      -6.373   4.283  70.151  1.00  0.00    -0.027 C  
HETATM   30  C   UNL     1      -9.213   3.568  72.534  1.00  0.00    -0.142 A  
HETATM   31  C   UNL     1     -10.189   4.477  72.146  1.00  0.00    -0.256 A  
HETATM   32  C   UNL     1      -9.976   5.324  71.049  1.00  0.00    -0.266 A  
HETATM   33  C   UNL     1     -11.090   6.240  70.613  1.00  0.00    -0.389 C  
ENDBRANCH  23  26
ENDBRANCH  21  22
ENDBRANCH  18  21
ENDBRANCH  14  15
ENDBRANCH  11  14
ENDBRANCH  10  11
ENDBRANCH   9  10
ENDBRANCH   8   9
ENDBRANCH   2   3
TORSDOF 9
ENDMDL
MODEL      116
REMARK 921   NORMALIZED FREE ENERGY PREDICTED BY IDOCK:   -4.98 KCAL/MOL
REMARK 922        TOTAL FREE ENERGY PREDICTED BY IDOCK:   -8.70 KCAL/MOL
REMARK 923 INTER-LIGAND FREE ENERGY PREDICTED BY IDOCK:   -7.75 KCAL/MOL
REMARK 924 INTRA-LIGAND FREE ENERGY PREDICTED BY IDOCK:   -0.94 KCAL/MOL
REMARK 927      BINDING AFFINITY PREDICTED BY RF-SCORE:    0.00 PKD
ROOT
HETATM    1  C   UNL     1     -11.506  15.429  71.473  1.00  0.00    -0.413 C  
HETATM    2  O   UNL     1     -12.380  14.326  71.248  1.00  0.00    -0.331 OA 
ENDROOT
BRANCH   2   3
HETATM    3  C   UNL     1     -12.138  13.582  70.124  1.00  0.00    -0.354 A  
HETATM    4  C   UNL     1     -11.746  14.192  68.918  1.00  0.00    -0.369 A  
HETATM    5  C   UNL     1     -11.513  13.435  67.771  1.00  0.00    -0.351 A  
HETATM    6  C   UNL     1     -11.658  12.054  67.815  1.00  0.00    -0.400 A  
HETATM    7  C   UNL     1     -12.014  11.435  69.012  1.00  0.00    -0.387 A  
HETATM    8  C   UNL     1     -12.241  12.180  70.179  1.00  0.00    -0.231 A  
BRANCH   8   9
HETATM    9  O   UNL     1     -12.556  11.380  71.249  1.00  0.00    -0.394 OA 
BRANCH   9  10
HETATM   10  C   UNL     1     -13.050  10.066  70.994  1.00  0.00    -0.356 C  
BRANCH  10  11
HETATM   11  C   UNL     1     -12.952   9.214  72.274  1.00  0.00    -0.420 C  
HETATM   12  H   UNL     1     -14.176   8.494  73.675  1.00  0.00     0.000 HD 
HETATM   13  O   UNL     1     -14.237   9.019  72.886  1.00  0.00    -0.528 OA 
BRANCH  11  14
HETATM   14  C   UNL     1     -12.344   7.820  71.968  1.00  0.00    -0.294 C  
BRANCH  14  15
HETATM   15  N   UNL     1     -10.959   7.842  71.453  1.00  0.00    -0.233 NA 
HETATM   16  C   UNL     1     -10.168   6.710  71.958  1.00  0.00    -0.188 C  
HETATM   17  C   UNL     1     -10.685   5.363  71.431  1.00  0.00    -0.188 C  
HETATM   18  N   UNL     1     -10.627   5.223  69.958  1.00  0.00    -0.286 NA 
HETATM   19  C   UNL     1     -11.206   6.423  69.314  1.00  0.00    -0.375 C  
HETATM   20  C   UNL     1     -10.916   7.801  69.974  1.00  0.00    -0.214 C  
BRANCH  18  21
HETATM   21  C   UNL     1      -9.238   4.945  69.514  1.00  0.00    -0.119 C  
BRANCH  21  22
HETATM   22  C   UNL     1      -9.100   5.224  67.997  1.00  0.00    -0.110 C  
HETATM   23  N   UNL     1      -8.237   6.277  67.750  1.00  0.00    -0.117 N  
HETATM   24  O   UNL     1      -9.667   4.534  67.155  1.00  0.00    -0.175 OA 
HETATM   25  H   UNL     1      -7.797   6.699  68.567  1.00  0.00     0.000 HD 
BRANCH  23  26
HETATM   26  C   UNL     1      -7.895   6.831  66.505  1.00  0.00    -0.104 A  
HETATM   27  C   UNL     1      -8.553   7.947  65.948  1.00  0.00    -0.171 A  
HETATM   28  C   UNL     1      -8.108   8.448  64.712  1.00  0.00    -0.155 A  
HETATM   29  C   UNL     1      -9.676   8.695  66.614  1.00  0.00    -0.315 C  
HETATM   30  C   UNL     1      -7.010   7.891  64.064  1.00  0.00    -0.063 A  
HETATM   31  C   UNL     1      -6.338   6.817  64.635  1.00  0.00    -0.039 A  
HETATM   32  C   UNL     1      -6.769   6.276  65.855  1.00  0.00    -0.049 A  
HETATM   33  C   UNL     1      -6.062   5.063  66.401  1.00  0.00    -0.030 C  
ENDBRANCH  23  26
ENDBRANCH  21  22
ENDBRANCH  18  21
ENDBRANCH  14  15
ENDBRANCH  11  14
ENDBRANCH  10  11
ENDBRANCH   9  10
ENDBRANCH   8   9
ENDBRANCH   2   3
TORSDOF 9
ENDMDL
MODEL      117
REMARK 921   NORMALIZED FREE ENERGY PREDICTED BY IDOCK:   -4.98 KCAL/MOL
REMARK 922        TOTAL FREE ENERGY PREDICTED BY IDOCK:   -8.69 KCAL/MOL
REMARK 923 INTER-LIGAND FREE ENERGY PREDICTED BY IDOCK:   -8.13 KCAL/MOL
REMARK 924 INTRA-LIGAND FREE ENERGY PREDICTED BY IDOCK:   -0.57 KCAL/MOL
REMARK 927      BINDING AFFINITY PREDICTED BY RF-SCORE:    0.00 PKD
ROOT
HETATM    1  C   UNL     1      -9.498   8.693  71.638  1.00  0.00    -0.269 C  
HETATM    2  O   UNL     1     -10.531   8.924  70.685  1.00  0.00    -0.199 OA 
ENDROOT
BRANCH   2   3
HETATM    3  C   UNL     1     -11.804   8.614  71.087  1.00  0.00    -0.287 A  
HETATM    4  C   UNL     1     -12.781   9.614  71.245  1.00  0.00    -0.443 A  
HETATM    5  C   UNL     1     -14.071   9.299  71.666  1.00  0.00    -0.230 A  
HETATM    6  C   UNL     1     -14.409   7.976  71.925  1.00  0.00    -0.559 A  
HETATM    7  C   UNL     1     -13.460   6.972  71.740  1.00  0.00    -0.307 A  
HETATM    8  C   UNL     1     -12.159   7.269  71.306  1.00  0.00    -0.338 A  
BRANCH   8   9
HETATM    9  O   UNL     1     -11.391   6.141  71.164  1.00  0.00    -0.299 OA 
BRANCH   9  10
HETATM   10  C   UNL     1     -10.870   5.830  69.873  1.00  0.00    -0.347 C  
BRANCH  10  11
HETATM   11  C   UNL     1      -9.336   5.711  69.943  1.00  0.00    -0.147 C  
HETATM   12  H   UNL     1      -7.977   4.535  70.810  1.00  0.00     0.000 HD 
HETATM   13  O   UNL     1      -8.923   4.609  70.766  1.00  0.00    -0.115 OA 
BRANCH  11  14
HETATM   14  C   UNL     1      -8.728   5.517  68.530  1.00  0.00    -0.105 C  
BRANCH  14  15
HETATM   15  N   UNL     1      -9.589   5.958  67.414  1.00  0.00    -0.111 NA 
HETATM   16  C   UNL     1      -9.962   7.375  67.534  1.00  0.00    -0.173 C  
HETATM   17  C   UNL     1      -8.748   8.306  67.389  1.00  0.00    -0.124 C  
HETATM   18  N   UNL     1      -8.065   8.216  66.079  1.00  0.00    -0.106 NA 
HETATM   19  C   UNL     1      -7.824   6.798  65.732  1.00  0.00    -0.102 C  
HETATM   20  C   UNL     1      -8.934   5.772  66.100  1.00  0.00    -0.149 C  
BRANCH  18  21
HETATM   21  C   UNL     1      -8.835   8.942  65.038  1.00  0.00    -0.140 C  
BRANCH  21  22
HETATM   22  C   UNL     1      -9.128  10.388  65.508  1.00  0.00    -0.177 C  
HETATM   23  N   UNL     1     -10.488  10.619  65.628  1.00  0.00    -0.207 N  
HETATM   24  O   UNL     1      -8.230  11.178  65.780  1.00  0.00    -0.119 OA 
HETATM   25  H   UNL     1     -11.098   9.827  65.425  1.00  0.00     0.000 HD 
BRANCH  23  26
HETATM   26  C   UNL     1     -11.125  11.815  65.996  1.00  0.00    -0.312 A  
HETATM   27  C   UNL     1     -11.162  12.296  67.321  1.00  0.00    -0.358 A  
HETATM   28  C   UNL     1     -11.794  13.526  67.577  1.00  0.00    -0.406 A  
HETATM   29  C   UNL     1     -10.513  11.614  68.494  1.00  0.00    -0.236 C  
HETATM   30  C   UNL     1     -12.334  14.286  66.544  1.00  0.00    -0.345 A  
HETATM   31  C   UNL     1     -12.260  13.828  65.234  1.00  0.00    -0.461 A  
HETATM   32  C   UNL     1     -11.658  12.595  64.944  1.00  0.00    -0.376 A  
HETATM   33  C   UNL     1     -11.669  12.099  63.522  1.00  0.00    -0.579 C  
ENDBRANCH  23  26
ENDBRANCH  21  22
ENDBRANCH  18  21
ENDBRANCH  14  15
ENDBRANCH  11  14
ENDBRANCH  10  11
ENDBRANCH   9  10
ENDBRANCH   8   9
ENDBRANCH   2   3
TORSDOF 9
ENDMDL
MODEL      118
REMARK 921   NORMALIZED FREE ENERGY PREDICTED BY IDOCK:   -4.97 KCAL/MOL
REMARK 922        TOTAL FREE ENERGY PREDICTED BY IDOCK:   -8.68 KCAL/MOL
REMARK 923 INTER-LIGAND FREE ENERGY PREDICTED BY IDOCK:   -7.71 KCAL/MOL
REMARK 924 INTRA-LIGAND FREE ENERGY PREDICTED BY IDOCK:   -0.98 KCAL/MOL
REMARK 927      BINDING AFFINITY PREDICTED BY RF-SCORE:    0.00 PKD
ROOT
HETATM    1  C   UNL     1      -8.972   4.961  65.563  1.00  0.00    -0.149 C  
HETATM    2  O   UNL     1     -10.070   5.260  66.421  1.00  0.00    -0.185 OA 
ENDROOT
BRANCH   2   3
HETATM    3  C   UNL     1      -9.884   5.002  67.753  1.00  0.00    -0.154 A  
HETATM    4  C   UNL     1      -9.607   3.701  68.210  1.00  0.00    -0.165 A  
HETATM    5  C   UNL     1      -9.431   3.436  69.567  1.00  0.00    -0.219 A  
HETATM    6  C   UNL     1      -9.518   4.473  70.489  1.00  0.00    -0.246 A  
HETATM    7  C   UNL     1      -9.760   5.772  70.045  1.00  0.00    -0.218 A  
HETATM    8  C   UNL     1      -9.929   6.058  68.682  1.00  0.00    -0.149 A  
BRANCH   8   9
HETATM    9  O   UNL     1     -10.131   7.397  68.457  1.00  0.00    -0.164 OA 
BRANCH   9  10
HETATM   10  C   UNL     1      -8.996   8.224  68.208  1.00  0.00    -0.136 C  
BRANCH  10  11
HETATM   11  C   UNL     1      -9.366   9.330  67.201  1.00  0.00    -0.132 C  
HETATM   12  H   UNL     1     -10.408   9.508  65.509  1.00  0.00     0.000 HD 
HETATM   13  O   UNL     1     -10.180   8.826  66.130  1.00  0.00    -0.233 OA 
BRANCH  11  14
HETATM   14  C   UNL     1     -10.138  10.480  67.898  1.00  0.00    -0.176 C  
BRANCH  14  15
HETATM   15  N   UNL     1     -10.952  11.322  66.998  1.00  0.00    -0.284 NA 
HETATM   16  C   UNL     1     -11.895  12.169  67.742  1.00  0.00    -0.257 C  
HETATM   17  C   UNL     1     -11.174  13.221  68.599  1.00  0.00    -0.274 C  
HETATM   18  N   UNL     1     -10.352  14.179  67.824  1.00  0.00    -0.240 NA 
HETATM   19  C   UNL     1      -9.499  13.447  66.862  1.00  0.00    -0.253 C  
HETATM   20  C   UNL     1     -10.116  12.206  66.156  1.00  0.00    -0.228 C  
BRANCH  18  21
HETATM   21  C   UNL     1     -11.214  15.197  67.172  1.00  0.00    -0.320 C  
BRANCH  21  22
HETATM   22  C   UNL     1     -10.344  16.175  66.344  1.00  0.00    -0.315 C  
HETATM   23  N   UNL     1      -9.512  16.926  67.155  1.00  0.00    -0.233 N  
HETATM   24  O   UNL     1     -10.387  16.204  65.118  1.00  0.00    -0.560 OA 
HETATM   25  H   UNL     1      -9.557  16.727  68.154  1.00  0.00     0.000 HD 
BRANCH  23  26
HETATM   26  C   UNL     1      -8.612  17.931  66.763  1.00  0.00    -0.254 A  
HETATM   27  C   UNL     1      -9.012  19.244  66.437  1.00  0.00    -0.375 A  
HETATM   28  C   UNL     1      -8.026  20.186  66.093  1.00  0.00    -0.256 A  
HETATM   29  C   UNL     1     -10.430  19.741  66.489  1.00  0.00    -0.615 C  
HETATM   30  C   UNL     1      -6.675  19.854  66.117  1.00  0.00    -0.242 A  
HETATM   31  C   UNL     1      -6.282  18.571  66.477  1.00  0.00    -0.200 A  
HETATM   32  C   UNL     1      -7.238  17.599  66.803  1.00  0.00    -0.247 A  
HETATM   33  C   UNL     1      -6.775  16.199  67.111  1.00  0.00    -0.227 C  
ENDBRANCH  23  26
ENDBRANCH  21  22
ENDBRANCH  18  21
ENDBRANCH  14  15
ENDBRANCH  11  14
ENDBRANCH  10  11
ENDBRANCH   9  10
ENDBRANCH   8   9
ENDBRANCH   2   3
TORSDOF 9
ENDMDL
MODEL      119
REMARK 921   NORMALIZED FREE ENERGY PREDICTED BY IDOCK:   -4.97 KCAL/MOL
REMARK 922        TOTAL FREE ENERGY PREDICTED BY IDOCK:   -8.67 KCAL/MOL
REMARK 923 INTER-LIGAND FREE ENERGY PREDICTED BY IDOCK:   -7.76 KCAL/MOL
REMARK 924 INTRA-LIGAND FREE ENERGY PREDICTED BY IDOCK:   -0.91 KCAL/MOL
REMARK 927      BINDING AFFINITY PREDICTED BY RF-SCORE:    0.00 PKD
ROOT
HETATM    1  C   UNL     1     -12.106  13.130  68.888  1.00  0.00    -0.194 C  
HETATM    2  O   UNL     1     -11.814  12.595  67.600  1.00  0.00    -0.357 OA 
ENDROOT
BRANCH   2   3
HETATM    3  C   UNL     1     -11.645  13.506  66.591  1.00  0.00    -0.363 A  
HETATM    4  C   UNL     1     -12.575  13.608  65.540  1.00  0.00    -0.541 A  
HETATM    5  C   UNL     1     -12.395  14.526  64.507  1.00  0.00    -0.434 A  
HETATM    6  C   UNL     1     -11.287  15.365  64.515  1.00  0.00    -0.321 A  
HETATM    7  C   UNL     1     -10.377  15.296  65.568  1.00  0.00    -0.408 A  
HETATM    8  C   UNL     1     -10.547  14.386  66.622  1.00  0.00    -0.282 A  
BRANCH   8   9
HETATM    9  O   UNL     1      -9.557  14.496  67.565  1.00  0.00    -0.206 OA 
BRANCH   9  10
HETATM   10  C   UNL     1      -8.207  14.267  67.164  1.00  0.00    -0.160 C  
BRANCH  10  11
HETATM   11  C   UNL     1      -7.583  13.161  68.036  1.00  0.00    -0.144 C  
HETATM   12  H   UNL     1      -6.732  12.990  69.832  1.00  0.00     0.000 HD 
HETATM   13  O   UNL     1      -7.116  13.672  69.294  1.00  0.00    -0.080 OA 
BRANCH  11  14
HETATM   14  C   UNL     1      -8.609  12.033  68.320  1.00  0.00    -0.174 C  
BRANCH  14  15
HETATM   15  N   UNL     1      -8.125  10.665  68.049  1.00  0.00    -0.110 NA 
HETATM   16  C   UNL     1      -8.247   9.795  69.228  1.00  0.00    -0.132 C  
HETATM   17  C   UNL     1      -9.714   9.546  69.613  1.00  0.00    -0.200 C  
HETATM   18  N   UNL     1     -10.509   8.861  68.568  1.00  0.00    -0.202 NA 
HETATM   19  C   UNL     1     -10.298   9.520  67.260  1.00  0.00    -0.255 C  
HETATM   20  C   UNL     1      -8.862  10.025  66.936  1.00  0.00    -0.131 C  
BRANCH  18  21
HETATM   21  C   UNL     1     -10.195   7.410  68.540  1.00  0.00    -0.183 C  
BRANCH  21  22
HETATM   22  C   UNL     1     -10.817   6.710  69.774  1.00  0.00    -0.286 C  
HETATM   23  N   UNL     1      -9.845   6.149  70.583  1.00  0.00    -0.177 N  
HETATM   24  O   UNL     1     -12.024   6.726  69.990  1.00  0.00    -0.291 OA 
HETATM   25  H   UNL     1      -8.878   6.287  70.288  1.00  0.00     0.000 HD 
BRANCH  23  26
HETATM   26  C   UNL     1     -10.034   5.411  71.763  1.00  0.00    -0.183 A  
HETATM   27  C   UNL     1     -10.411   5.996  72.990  1.00  0.00    -0.224 A  
HETATM   28  C   UNL     1     -10.612   5.162  74.104  1.00  0.00    -0.322 A  
HETATM   29  C   UNL     1     -10.679   7.462  73.188  1.00  0.00    -0.436 C  
HETATM   30  C   UNL     1     -10.490   3.779  73.999  1.00  0.00    -0.262 A  
HETATM   31  C   UNL     1     -10.158   3.203  72.778  1.00  0.00    -0.225 A  
HETATM   32  C   UNL     1      -9.928   4.005  71.652  1.00  0.00    -0.232 A  
HETATM   33  C   UNL     1      -9.493   3.347  70.369  1.00  0.00    -0.245 C  
ENDBRANCH  23  26
ENDBRANCH  21  22
ENDBRANCH  18  21
ENDBRANCH  14  15
ENDBRANCH  11  14
ENDBRANCH  10  11
ENDBRANCH   9  10
ENDBRANCH   8   9
ENDBRANCH   2   3
TORSDOF 9
ENDMDL
MODEL      120
REMARK 921   NORMALIZED FREE ENERGY PREDICTED BY IDOCK:   -4.96 KCAL/MOL
REMARK 922        TOTAL FREE ENERGY PREDICTED BY IDOCK:   -8.67 KCAL/MOL
REMARK 923 INTER-LIGAND FREE ENERGY PREDICTED BY IDOCK:   -7.77 KCAL/MOL
REMARK 924 INTRA-LIGAND FREE ENERGY PREDICTED BY IDOCK:   -0.89 KCAL/MOL
REMARK 927      BINDING AFFINITY PREDICTED BY RF-SCORE:    0.00 PKD
ROOT
HETATM    1  C   UNL     1      -5.806  10.399  70.617  1.00  0.00    -0.106 C  
HETATM    2  O   UNL     1      -7.195  10.116  70.761  1.00  0.00    -0.320 OA 
ENDROOT
BRANCH   2   3
HETATM    3  C   UNL     1      -7.518   8.828  71.098  1.00  0.00    -0.101 A  
HETATM    4  C   UNL     1      -6.918   8.193  72.200  1.00  0.00    -0.090 A  
HETATM    5  C   UNL     1      -7.237   6.878  72.535  1.00  0.00    -0.081 A  
HETATM    6  C   UNL     1      -8.171   6.181  71.779  1.00  0.00    -0.114 A  
HETATM    7  C   UNL     1      -8.797   6.811  70.704  1.00  0.00    -0.151 A  
HETATM    8  C   UNL     1      -8.496   8.137  70.359  1.00  0.00    -0.129 A  
BRANCH   8   9
HETATM    9  O   UNL     1      -9.237   8.574  69.290  1.00  0.00    -0.152 OA 
BRANCH   9  10
HETATM   10  C   UNL     1     -10.658   8.449  69.350  1.00  0.00    -0.197 C  
BRANCH  10  11
HETATM   11  C   UNL     1     -11.305   9.847  69.339  1.00  0.00    -0.095 C  
HETATM   12  H   UNL     1     -11.489  11.407  70.569  1.00  0.00     0.000 HD 
HETATM   13  O   UNL     1     -11.089  10.546  70.576  1.00  0.00    -0.300 OA 
BRANCH  11  14
HETATM   14  C   UNL     1     -10.737  10.713  68.186  1.00  0.00    -0.225 C  
BRANCH  14  15
HETATM   15  N   UNL     1     -11.668  11.725  67.647  1.00  0.00    -0.553 NA 
HETATM   16  C   UNL     1     -11.594  12.991  68.391  1.00  0.00    -0.335 C  
HETATM   17  C   UNL     1     -10.233  13.684  68.218  1.00  0.00    -0.243 C  
HETATM   18  N   UNL     1      -9.915  14.059  66.822  1.00  0.00    -0.262 NA 
HETATM   19  C   UNL     1     -10.163  12.912  65.922  1.00  0.00    -0.290 C  
HETATM   20  C   UNL     1     -11.403  12.021  66.222  1.00  0.00    -0.357 C  
BRANCH  18  21
HETATM   21  C   UNL     1     -10.666  15.277  66.424  1.00  0.00    -0.318 C  
BRANCH  21  22
HETATM   22  C   UNL     1     -10.132  16.505  67.202  1.00  0.00    -0.274 C  
HETATM   23  N   UNL     1      -9.057  17.089  66.555  1.00  0.00    -0.251 N  
HETATM   24  O   UNL     1     -10.665  16.904  68.232  1.00  0.00    -0.351 OA 
HETATM   25  H   UNL     1      -8.782  16.667  65.668  1.00  0.00     0.000 HD 
BRANCH  23  26
HETATM   26  C   UNL     1      -8.300  18.194  66.977  1.00  0.00    -0.240 A  
HETATM   27  C   UNL     1      -8.753  19.526  66.878  1.00  0.00    -0.352 A  
HETATM   28  C   UNL     1      -7.932  20.558  67.365  1.00  0.00    -0.349 A  
HETATM   29  C   UNL     1     -10.096  19.932  66.336  1.00  0.00    -0.615 C  
HETATM   30  C   UNL     1      -6.715  20.280  67.981  1.00  0.00    -0.330 A  
HETATM   31  C   UNL     1      -6.291  18.964  68.114  1.00  0.00    -0.231 A  
HETATM   32  C   UNL     1      -7.072  17.911  67.618  1.00  0.00    -0.202 A  
HETATM   33  C   UNL     1      -6.539  16.505  67.712  1.00  0.00    -0.160 C  
ENDBRANCH  23  26
ENDBRANCH  21  22
ENDBRANCH  18  21
ENDBRANCH  14  15
ENDBRANCH  11  14
ENDBRANCH  10  11
ENDBRANCH   9  10
ENDBRANCH   8   9
ENDBRANCH   2   3
TORSDOF 9
ENDMDL
MODEL      121
REMARK 921   NORMALIZED FREE ENERGY PREDICTED BY IDOCK:   -4.95 KCAL/MOL
REMARK 922        TOTAL FREE ENERGY PREDICTED BY IDOCK:   -8.65 KCAL/MOL
REMARK 923 INTER-LIGAND FREE ENERGY PREDICTED BY IDOCK:   -7.56 KCAL/MOL
REMARK 924 INTRA-LIGAND FREE ENERGY PREDICTED BY IDOCK:   -1.09 KCAL/MOL
REMARK 927      BINDING AFFINITY PREDICTED BY RF-SCORE:    0.00 PKD
ROOT
HETATM    1  C   UNL     1     -10.974   6.579  68.300  1.00  0.00    -0.281 C  
HETATM    2  O   UNL     1     -11.008   7.358  67.107  1.00  0.00    -0.312 OA 
ENDROOT
BRANCH   2   3
HETATM    3  C   UNL     1     -10.148   8.423  67.056  1.00  0.00    -0.284 A  
HETATM    4  C   UNL     1      -8.979   8.378  66.276  1.00  0.00    -0.213 A  
HETATM    5  C   UNL     1      -8.098   9.457  66.235  1.00  0.00    -0.111 A  
HETATM    6  C   UNL     1      -8.380  10.605  66.966  1.00  0.00    -0.126 A  
HETATM    7  C   UNL     1      -9.552  10.675  67.717  1.00  0.00    -0.172 A  
HETATM    8  C   UNL     1     -10.455   9.602  67.761  1.00  0.00    -0.256 A  
BRANCH   8   9
HETATM    9  O   UNL     1     -11.553   9.882  68.536  1.00  0.00     0.018 OA 
BRANCH   9  10
HETATM   10  C   UNL     1     -11.377  10.004  69.947  1.00  0.00    -0.250 C  
BRANCH  10  11
HETATM   11  C   UNL     1     -12.461  10.930  70.530  1.00  0.00    -0.351 C  
HETATM   12  H   UNL     1     -13.565  11.062  72.187  1.00  0.00     0.000 HD 
HETATM   13  O   UNL     1     -12.897  10.491  71.827  1.00  0.00    -0.429 OA 
BRANCH  11  14
HETATM   14  C   UNL     1     -11.939  12.384  70.659  1.00  0.00    -0.109 C  
BRANCH  14  15
HETATM   15  N   UNL     1     -12.583  13.362  69.758  1.00  0.00    -0.041 NA 
HETATM   16  C   UNL     1     -12.784  14.663  70.412  1.00  0.00    -0.316 C  
HETATM   17  C   UNL     1     -11.452  15.357  70.739  1.00  0.00    -0.355 C  
HETATM   18  N   UNL     1     -10.620  15.666  69.553  1.00  0.00    -0.244 NA 
HETATM   19  C   UNL     1     -10.520  14.475  68.682  1.00  0.00    -0.247 C  
HETATM   20  C   UNL     1     -11.791  13.590  68.529  1.00  0.00    -0.362 C  
BRANCH  18  21
HETATM   21  C   UNL     1     -11.149  16.858  68.841  1.00  0.00    -0.128 C  
BRANCH  21  22
HETATM   22  C   UNL     1      -9.989  17.822  68.489  1.00  0.00    -0.370 C  
HETATM   23  N   UNL     1      -9.394  17.483  67.286  1.00  0.00    -0.241 N  
HETATM   24  O   UNL     1      -9.707  18.784  69.196  1.00  0.00    -0.306 OA 
HETATM   25  H   UNL     1      -9.799  16.689  66.792  1.00  0.00     0.000 HD 
BRANCH  23  26
HETATM   26  C   UNL     1      -8.298  18.106  66.668  1.00  0.00    -0.263 A  
HETATM   27  C   UNL     1      -8.378  19.366  66.037  1.00  0.00    -0.230 A  
HETATM   28  C   UNL     1      -7.212  19.919  65.480  1.00  0.00    -0.305 A  
HETATM   29  C   UNL     1      -9.624  20.206  65.965  1.00  0.00    -0.380 C  
HETATM   30  C   UNL     1      -5.986  19.268  65.585  1.00  0.00    -0.219 A  
HETATM   31  C   UNL     1      -5.903  18.047  66.243  1.00  0.00    -0.219 A  
HETATM   32  C   UNL     1      -7.050  17.454  66.789  1.00  0.00    -0.245 A  
HETATM   33  C   UNL     1      -6.931  16.093  67.425  1.00  0.00    -0.215 C  
ENDBRANCH  23  26
ENDBRANCH  21  22
ENDBRANCH  18  21
ENDBRANCH  14  15
ENDBRANCH  11  14
ENDBRANCH  10  11
ENDBRANCH   9  10
ENDBRANCH   8   9
ENDBRANCH   2   3
TORSDOF 9
ENDMDL
MODEL      122
REMARK 921   NORMALIZED FREE ENERGY PREDICTED BY IDOCK:   -4.95 KCAL/MOL
REMARK 922        TOTAL FREE ENERGY PREDICTED BY IDOCK:   -8.65 KCAL/MOL
REMARK 923 INTER-LIGAND FREE ENERGY PREDICTED BY IDOCK:   -7.82 KCAL/MOL
REMARK 924 INTRA-LIGAND FREE ENERGY PREDICTED BY IDOCK:   -0.82 KCAL/MOL
REMARK 927      BINDING AFFINITY PREDICTED BY RF-SCORE:    0.00 PKD
ROOT
HETATM    1  C   UNL     1     -11.501  15.400  69.969  1.00  0.00    -0.316 C  
HETATM    2  O   UNL     1     -10.255  16.064  69.776  1.00  0.00    -0.267 OA 
ENDROOT
BRANCH   2   3
HETATM    3  C   UNL     1     -10.047  16.612  68.538  1.00  0.00    -0.266 A  
HETATM    4  C   UNL     1     -10.083  18.004  68.343  1.00  0.00    -0.392 A  
HETATM    5  C   UNL     1      -9.884  18.560  67.081  1.00  0.00    -0.335 A  
HETATM    6  C   UNL     1      -9.633  17.731  65.994  1.00  0.00    -0.112 A  
HETATM    7  C   UNL     1      -9.562  16.351  66.181  1.00  0.00    -0.356 A  
HETATM    8  C   UNL     1      -9.749  15.775  67.446  1.00  0.00    -0.223 A  
BRANCH   8   9
HETATM    9  O   UNL     1      -9.615  14.410  67.417  1.00  0.00    -0.210 OA 
BRANCH   9  10
HETATM   10  C   UNL     1     -10.055  13.707  66.255  1.00  0.00    -0.299 C  
BRANCH  10  11
HETATM   11  C   UNL     1     -11.244  12.796  66.615  1.00  0.00    -0.301 C  
HETATM   12  H   UNL     1     -12.160  11.189  65.868  1.00  0.00     0.000 HD 
HETATM   13  O   UNL     1     -11.427  11.750  65.647  1.00  0.00    -0.290 OA 
BRANCH  11  14
HETATM   14  C   UNL     1     -11.041  12.141  68.005  1.00  0.00    -0.244 C  
BRANCH  14  15
HETATM   15  N   UNL     1     -11.962  11.028  68.312  1.00  0.00    -0.597 NA 
HETATM   16  C   UNL     1     -11.266   9.734  68.354  1.00  0.00    -0.017 C  
HETATM   17  C   UNL     1     -10.266   9.653  69.519  1.00  0.00    -0.218 C  
HETATM   18  N   UNL     1     -10.882   9.782  70.859  1.00  0.00    -0.328 NA 
HETATM   19  C   UNL     1     -11.796  10.945  70.885  1.00  0.00    -0.258 C  
HETATM   20  C   UNL     1     -12.647  11.216  69.611  1.00  0.00    -0.006 C  
BRANCH  18  21
HETATM   21  C   UNL     1     -11.551   8.515  71.251  1.00  0.00    -0.283 C  
BRANCH  21  22
HETATM   22  C   UNL     1     -10.497   7.394  71.428  1.00  0.00    -0.202 C  
HETATM   23  N   UNL     1     -11.008   6.157  71.077  1.00  0.00    -0.280 N  
HETATM   24  O   UNL     1      -9.349   7.632  71.787  1.00  0.00    -0.142 OA 
HETATM   25  H   UNL     1     -11.968   6.147  70.734  1.00  0.00     0.000 HD 
BRANCH  23  26
HETATM   26  C   UNL     1     -10.358   4.913  71.140  1.00  0.00    -0.152 A  
HETATM   27  C   UNL     1     -10.234   4.163  72.328  1.00  0.00    -0.234 A  
HETATM   28  C   UNL     1      -9.598   2.910  72.274  1.00  0.00    -0.205 A  
HETATM   29  C   UNL     1     -10.793   4.579  73.661  1.00  0.00    -0.371 C  
HETATM   30  C   UNL     1      -9.138   2.388  71.069  1.00  0.00    -0.174 A  
HETATM   31  C   UNL     1      -9.298   3.112  69.894  1.00  0.00    -0.228 A  
HETATM   32  C   UNL     1      -9.907   4.374  69.913  1.00  0.00    -0.290 A  
HETATM   33  C   UNL     1      -9.990   5.159  68.630  1.00  0.00    -0.227 C  
ENDBRANCH  23  26
ENDBRANCH  21  22
ENDBRANCH  18  21
ENDBRANCH  14  15
ENDBRANCH  11  14
ENDBRANCH  10  11
ENDBRANCH   9  10
ENDBRANCH   8   9
ENDBRANCH   2   3
TORSDOF 9
ENDMDL
MODEL      123
REMARK 921   NORMALIZED FREE ENERGY PREDICTED BY IDOCK:   -4.95 KCAL/MOL
REMARK 922        TOTAL FREE ENERGY PREDICTED BY IDOCK:   -8.65 KCAL/MOL
REMARK 923 INTER-LIGAND FREE ENERGY PREDICTED BY IDOCK:   -7.38 KCAL/MOL
REMARK 924 INTRA-LIGAND FREE ENERGY PREDICTED BY IDOCK:   -1.26 KCAL/MOL
REMARK 927      BINDING AFFINITY PREDICTED BY RF-SCORE:    0.00 PKD
ROOT
HETATM    1  C   UNL     1      -8.375   8.144  73.645  1.00  0.00    -0.242 C  
HETATM    2  O   UNL     1      -8.683   7.919  72.273  1.00  0.00    -0.123 OA 
ENDROOT
BRANCH   2   3
HETATM    3  C   UNL     1     -10.011   7.789  71.965  1.00  0.00    -0.179 A  
HETATM    4  C   UNL     1     -10.860   8.909  71.916  1.00  0.00    -0.433 A  
HETATM    5  C   UNL     1     -12.215   8.774  71.615  1.00  0.00    -0.399 A  
HETATM    6  C   UNL     1     -12.739   7.515  71.347  1.00  0.00    -0.382 A  
HETATM    7  C   UNL     1     -11.901   6.401  71.360  1.00  0.00    -0.340 A  
HETATM    8  C   UNL     1     -10.534   6.520  71.649  1.00  0.00    -0.213 A  
BRANCH   8   9
HETATM    9  O   UNL     1      -9.885   5.312  71.586  1.00  0.00    -0.159 OA 
BRANCH   9  10
HETATM   10  C   UNL     1      -9.929   4.581  70.362  1.00  0.00    -0.213 C  
BRANCH  10  11
HETATM   11  C   UNL     1      -8.825   5.084  69.413  1.00  0.00    -0.091 C  
HETATM   12  H   UNL     1      -7.365   4.313  68.293  1.00  0.00     0.000 HD 
HETATM   13  O   UNL     1      -8.045   4.002  68.878  1.00  0.00    -0.070 OA 
BRANCH  11  14
HETATM   14  C   UNL     1      -9.431   5.879  68.227  1.00  0.00    -0.116 C  
BRANCH  14  15
HETATM   15  N   UNL     1      -8.494   6.792  67.542  1.00  0.00    -0.121 NA 
HETATM   16  C   UNL     1      -9.090   7.389  66.338  1.00  0.00    -0.160 C  
HETATM   17  C   UNL     1     -10.261   8.325  66.676  1.00  0.00    -0.263 C  
HETATM   18  N   UNL     1      -9.888   9.487  67.516  1.00  0.00    -0.159 NA 
HETATM   19  C   UNL     1      -9.080   9.036  68.670  1.00  0.00    -0.137 C  
HETATM   20  C   UNL     1      -8.051   7.896  68.423  1.00  0.00    -0.123 C  
BRANCH  18  21
HETATM   21  C   UNL     1      -9.203  10.521  66.700  1.00  0.00    -0.156 C  
BRANCH  21  22
HETATM   22  C   UNL     1      -9.927  11.882  66.854  1.00  0.00    -0.200 C  
HETATM   23  N   UNL     1      -9.704  12.702  65.762  1.00  0.00    -0.393 N  
HETATM   24  O   UNL     1     -10.641  12.132  67.819  1.00  0.00    -0.197 OA 
HETATM   25  H   UNL     1      -9.136  12.309  65.012  1.00  0.00     0.000 HD 
BRANCH  23  26
HETATM   26  C   UNL     1     -10.170  14.013  65.566  1.00  0.00    -0.343 A  
HETATM   27  C   UNL     1      -9.676  15.124  66.281  1.00  0.00    -0.315 A  
HETATM   28  C   UNL     1     -10.184  16.401  65.981  1.00  0.00    -0.373 A  
HETATM   29  C   UNL     1      -8.586  15.057  67.315  1.00  0.00    -0.226 C  
HETATM   30  C   UNL     1     -11.120  16.583  64.968  1.00  0.00    -0.174 A  
HETATM   31  C   UNL     1     -11.574  15.491  64.238  1.00  0.00    -0.198 A  
HETATM   32  C   UNL     1     -11.108  14.200  64.525  1.00  0.00    -0.340 A  
HETATM   33  C   UNL     1     -11.684  13.035  63.764  1.00  0.00    -0.547 C  
ENDBRANCH  23  26
ENDBRANCH  21  22
ENDBRANCH  18  21
ENDBRANCH  14  15
ENDBRANCH  11  14
ENDBRANCH  10  11
ENDBRANCH   9  10
ENDBRANCH   8   9
ENDBRANCH   2   3
TORSDOF 9
ENDMDL
MODEL      124
REMARK 921   NORMALIZED FREE ENERGY PREDICTED BY IDOCK:   -4.94 KCAL/MOL
REMARK 922        TOTAL FREE ENERGY PREDICTED BY IDOCK:   -8.64 KCAL/MOL
REMARK 923 INTER-LIGAND FREE ENERGY PREDICTED BY IDOCK:   -7.10 KCAL/MOL
REMARK 924 INTRA-LIGAND FREE ENERGY PREDICTED BY IDOCK:   -1.54 KCAL/MOL
REMARK 927      BINDING AFFINITY PREDICTED BY RF-SCORE:    0.00 PKD
ROOT
HETATM    1  C   UNL     1     -10.430  16.036  65.533  1.00  0.00    -0.405 C  
HETATM    2  O   UNL     1     -10.070  14.669  65.715  1.00  0.00    -0.304 OA 
ENDROOT
BRANCH   2   3
HETATM    3  C   UNL     1     -10.780  13.755  64.983  1.00  0.00    -0.382 A  
HETATM    4  C   UNL     1     -11.892  14.143  64.214  1.00  0.00    -0.420 A  
HETATM    5  C   UNL     1     -12.622  13.210  63.480  1.00  0.00    -0.214 A  
HETATM    6  C   UNL     1     -12.243  11.873  63.495  1.00  0.00    -0.591 A  
HETATM    7  C   UNL     1     -11.123  11.480  64.227  1.00  0.00    -0.385 A  
HETATM    8  C   UNL     1     -10.370  12.408  64.962  1.00  0.00    -0.293 A  
BRANCH   8   9
HETATM    9  O   UNL     1      -9.299  11.823  65.589  1.00  0.00    -0.221 OA 
BRANCH   9  10
HETATM   10  C   UNL     1      -9.129  10.411  65.470  1.00  0.00    -0.177 C  
BRANCH  10  11
HETATM   11  C   UNL     1      -8.436   9.861  66.730  1.00  0.00    -0.125 C  
HETATM   12  H   UNL     1      -7.811   8.100  67.432  1.00  0.00     0.000 HD 
HETATM   13  O   UNL     1      -8.239   8.440  66.655  1.00  0.00    -0.102 OA 
BRANCH  11  14
HETATM   14  C   UNL     1      -7.053  10.531  66.941  1.00  0.00    -0.101 C  
BRANCH  14  15
HETATM   15  N   UNL     1      -6.806  11.038  68.306  1.00  0.00    -0.066 NA 
HETATM   16  C   UNL     1      -5.736  12.045  68.333  1.00  0.00    -0.049 C  
HETATM   17  C   UNL     1      -6.129  13.327  67.582  1.00  0.00    -0.135 C  
HETATM   18  N   UNL     1      -7.305  14.027  68.146  1.00  0.00    -0.113 NA 
HETATM   19  C   UNL     1      -8.403  13.062  68.377  1.00  0.00    -0.118 C  
HETATM   20  C   UNL     1      -8.017  11.649  68.900  1.00  0.00    -0.026 C  
BRANCH  18  21
HETATM   21  C   UNL     1      -6.928  14.775  69.372  1.00  0.00    -0.167 C  
BRANCH  21  22
HETATM   22  C   UNL     1      -6.946  16.298  69.089  1.00  0.00    -0.206 C  
HETATM   23  N   UNL     1      -7.690  16.596  67.961  1.00  0.00    -0.161 N  
HETATM   24  O   UNL     1      -6.398  17.104  69.833  1.00  0.00    -0.209 OA 
HETATM   25  H   UNL     1      -8.137  15.807  67.494  1.00  0.00     0.000 HD 
BRANCH  23  26
HETATM   26  C   UNL     1      -7.902  17.859  67.383  1.00  0.00    -0.208 A  
HETATM   27  C   UNL     1      -8.972  18.705  67.743  1.00  0.00    -0.301 A  
HETATM   28  C   UNL     1      -9.071  19.967  67.131  1.00  0.00    -0.468 A  
HETATM   29  C   UNL     1      -9.998  18.382  68.793  1.00  0.00    -0.404 C  
HETATM   30  C   UNL     1      -8.112  20.404  66.222  1.00  0.00    -0.112 A  
HETATM   31  C   UNL     1      -7.037  19.583  65.900  1.00  0.00    -0.306 A  
HETATM   32  C   UNL     1      -6.918  18.310  66.473  1.00  0.00    -0.250 A  
HETATM   33  C   UNL     1      -5.781  17.422  66.038  1.00  0.00    -0.086 C  
ENDBRANCH  23  26
ENDBRANCH  21  22
ENDBRANCH  18  21
ENDBRANCH  14  15
ENDBRANCH  11  14
ENDBRANCH  10  11
ENDBRANCH   9  10
ENDBRANCH   8   9
ENDBRANCH   2   3
TORSDOF 9
ENDMDL
MODEL      125
REMARK 921   NORMALIZED FREE ENERGY PREDICTED BY IDOCK:   -4.94 KCAL/MOL
REMARK 922        TOTAL FREE ENERGY PREDICTED BY IDOCK:   -8.64 KCAL/MOL
REMARK 923 INTER-LIGAND FREE ENERGY PREDICTED BY IDOCK:   -7.46 KCAL/MOL
REMARK 924 INTRA-LIGAND FREE ENERGY PREDICTED BY IDOCK:   -1.18 KCAL/MOL
REMARK 927      BINDING AFFINITY PREDICTED BY RF-SCORE:    0.00 PKD
ROOT
HETATM    1  C   UNL     1      -6.122  13.216  69.915  1.00  0.00    -0.128 C  
HETATM    2  O   UNL     1      -6.889  12.361  69.072  1.00  0.00    -0.100 OA 
ENDROOT
BRANCH   2   3
HETATM    3  C   UNL     1      -7.026  11.064  69.490  1.00  0.00    -0.126 A  
HETATM    4  C   UNL     1      -6.274  10.563  70.568  1.00  0.00    -0.108 A  
HETATM    5  C   UNL     1      -6.405   9.239  70.984  1.00  0.00    -0.076 A  
HETATM    6  C   UNL     1      -7.300   8.397  70.335  1.00  0.00    -0.056 A  
HETATM    7  C   UNL     1      -8.074   8.891  69.286  1.00  0.00    -0.109 A  
HETATM    8  C   UNL     1      -7.964  10.223  68.861  1.00  0.00    -0.113 A  
BRANCH   8   9
HETATM    9  O   UNL     1      -8.829  10.512  67.835  1.00  0.00    -0.131 OA 
BRANCH   9  10
HETATM   10  C   UNL     1      -9.943   9.646  67.621  1.00  0.00    -0.174 C  
BRANCH  10  11
HETATM   11  C   UNL     1     -11.216  10.482  67.390  1.00  0.00    -0.173 C  
HETATM   12  H   UNL     1     -12.604  11.406  68.486  1.00  0.00     0.000 HD 
HETATM   13  O   UNL     1     -11.819  10.890  68.628  1.00  0.00    -0.417 OA 
BRANCH  11  14
HETATM   14  C   UNL     1     -10.903  11.753  66.559  1.00  0.00    -0.282 C  
BRANCH  14  15
HETATM   15  N   UNL     1     -11.437  13.012  67.118  1.00  0.00    -0.312 NA 
HETATM   16  C   UNL     1     -10.386  13.819  67.754  1.00  0.00    -0.241 C  
HETATM   17  C   UNL     1      -9.355  14.332  66.736  1.00  0.00    -0.276 C  
HETATM   18  N   UNL     1      -9.919  15.219  65.693  1.00  0.00    -0.351 NA 
HETATM   19  C   UNL     1     -11.135  14.608  65.114  1.00  0.00    -0.377 C  
HETATM   20  C   UNL     1     -12.086  13.848  66.083  1.00  0.00    -0.448 C  
BRANCH  18  21
HETATM   21  C   UNL     1     -10.161  16.578  66.240  1.00  0.00    -0.333 C  
BRANCH  21  22
HETATM   22  C   UNL     1      -8.813  17.308  66.461  1.00  0.00    -0.261 C  
HETATM   23  N   UNL     1      -8.750  17.892  67.714  1.00  0.00    -0.246 N  
HETATM   24  O   UNL     1      -7.921  17.295  65.619  1.00  0.00    -0.437 OA 
HETATM   25  H   UNL     1      -9.559  17.749  68.319  1.00  0.00     0.000 HD 
BRANCH  23  26
HETATM   26  C   UNL     1      -7.703  18.659  68.251  1.00  0.00    -0.298 A  
HETATM   27  C   UNL     1      -6.696  18.122  69.079  1.00  0.00    -0.259 A  
HETATM   28  C   UNL     1      -5.670  18.969  69.533  1.00  0.00    -0.245 A  
HETATM   29  C   UNL     1      -6.597  16.673  69.472  1.00  0.00    -0.212 C  
HETATM   30  C   UNL     1      -5.612  20.303  69.140  1.00  0.00    -0.311 A  
HETATM   31  C   UNL     1      -6.584  20.819  68.292  1.00  0.00    -0.259 A  
HETATM   32  C   UNL     1      -7.635  20.009  67.838  1.00  0.00    -0.325 A  
HETATM   33  C   UNL     1      -8.710  20.628  66.984  1.00  0.00    -0.278 C  
ENDBRANCH  23  26
ENDBRANCH  21  22
ENDBRANCH  18  21
ENDBRANCH  14  15
ENDBRANCH  11  14
ENDBRANCH  10  11
ENDBRANCH   9  10
ENDBRANCH   8   9
ENDBRANCH   2   3
TORSDOF 9
ENDMDL
MODEL      126
REMARK 921   NORMALIZED FREE ENERGY PREDICTED BY IDOCK:   -4.94 KCAL/MOL
REMARK 922        TOTAL FREE ENERGY PREDICTED BY IDOCK:   -8.64 KCAL/MOL
REMARK 923 INTER-LIGAND FREE ENERGY PREDICTED BY IDOCK:   -7.58 KCAL/MOL
REMARK 924 INTRA-LIGAND FREE ENERGY PREDICTED BY IDOCK:   -1.05 KCAL/MOL
REMARK 927      BINDING AFFINITY PREDICTED BY RF-SCORE:    0.00 PKD
ROOT
HETATM    1  C   UNL     1      -6.649  10.767  70.058  1.00  0.00    -0.159 C  
HETATM    2  O   UNL     1      -7.966  10.243  69.915  1.00  0.00    -0.160 OA 
ENDROOT
BRANCH   2   3
HETATM    3  C   UNL     1      -8.065   8.882  69.798  1.00  0.00    -0.109 A  
HETATM    4  C   UNL     1      -8.284   8.069  70.925  1.00  0.00    -0.103 A  
HETATM    5  C   UNL     1      -8.372   6.683  70.807  1.00  0.00    -0.129 A  
HETATM    6  C   UNL     1      -8.254   6.089  69.556  1.00  0.00    -0.115 A  
HETATM    7  C   UNL     1      -8.071   6.886  68.427  1.00  0.00    -0.120 A  
HETATM    8  C   UNL     1      -7.991   8.283  68.526  1.00  0.00    -0.122 A  
BRANCH   8   9
HETATM    9  O   UNL     1      -7.834   8.880  67.300  1.00  0.00    -0.095 OA 
BRANCH   9  10
HETATM   10  C   UNL     1      -8.525   8.326  66.181  1.00  0.00    -0.134 C  
BRANCH  10  11
HETATM   11  C   UNL     1      -9.875   9.043  65.993  1.00  0.00    -0.242 C  
HETATM   12  H   UNL     1     -11.616   9.206  66.954  1.00  0.00     0.000 HD 
HETATM   13  O   UNL     1     -10.783   8.764  67.070  1.00  0.00    -0.262 OA 
BRANCH  11  14
HETATM   14  C   UNL     1      -9.680  10.579  65.908  1.00  0.00    -0.217 C  
BRANCH  14  15
HETATM   15  N   UNL     1     -10.903  11.378  66.133  1.00  0.00    -0.273 NA 
HETATM   16  C   UNL     1     -10.712  12.391  67.181  1.00  0.00    -0.235 C  
HETATM   17  C   UNL     1      -9.698  13.468  66.766  1.00  0.00    -0.271 C  
HETATM   18  N   UNL     1     -10.093  14.247  65.570  1.00  0.00    -0.344 NA 
HETATM   19  C   UNL     1     -10.525  13.331  64.492  1.00  0.00    -0.415 C  
HETATM   20  C   UNL     1     -11.345  12.074  64.904  1.00  0.00    -0.310 C  
BRANCH  18  21
HETATM   21  C   UNL     1     -11.126  15.253  65.920  1.00  0.00    -0.287 C  
BRANCH  21  22
HETATM   22  C   UNL     1     -10.530  16.311  66.881  1.00  0.00    -0.302 C  
HETATM   23  N   UNL     1      -9.546  17.063  66.263  1.00  0.00    -0.273 N  
HETATM   24  O   UNL     1     -10.950  16.461  68.024  1.00  0.00    -0.345 OA 
HETATM   25  H   UNL     1      -9.367  16.850  65.282  1.00  0.00     0.000 HD 
BRANCH  23  26
HETATM   26  C   UNL     1      -8.767  18.085  66.829  1.00  0.00    -0.255 A  
HETATM   27  C   UNL     1      -7.550  17.848  67.502  1.00  0.00    -0.217 A  
HETATM   28  C   UNL     1      -6.827  18.947  67.999  1.00  0.00    -0.251 A  
HETATM   29  C   UNL     1      -6.925  16.492  67.681  1.00  0.00    -0.158 C  
HETATM   30  C   UNL     1      -7.267  20.250  67.794  1.00  0.00    -0.336 A  
HETATM   31  C   UNL     1      -8.445  20.482  67.094  1.00  0.00    -0.357 A  
HETATM   32  C   UNL     1      -9.205  19.411  66.605  1.00  0.00    -0.393 A  
HETATM   33  C   UNL     1     -10.515  19.702  65.921  1.00  0.00    -0.591 C  
ENDBRANCH  23  26
ENDBRANCH  21  22
ENDBRANCH  18  21
ENDBRANCH  14  15
ENDBRANCH  11  14
ENDBRANCH  10  11
ENDBRANCH   9  10
ENDBRANCH   8   9
ENDBRANCH   2   3
TORSDOF 9
ENDMDL
MODEL      127
REMARK 921   NORMALIZED FREE ENERGY PREDICTED BY IDOCK:   -4.93 KCAL/MOL
REMARK 922        TOTAL FREE ENERGY PREDICTED BY IDOCK:   -8.62 KCAL/MOL
REMARK 923 INTER-LIGAND FREE ENERGY PREDICTED BY IDOCK:   -7.76 KCAL/MOL
REMARK 924 INTRA-LIGAND FREE ENERGY PREDICTED BY IDOCK:   -0.86 KCAL/MOL
REMARK 927      BINDING AFFINITY PREDICTED BY RF-SCORE:    0.00 PKD
ROOT
HETATM    1  C   UNL     1     -11.514  15.219  68.656  1.00  0.00    -0.337 C  
HETATM    2  O   UNL     1     -10.897  14.838  69.882  1.00  0.00    -0.232 OA 
ENDROOT
BRANCH   2   3
HETATM    3  C   UNL     1     -11.670  14.950  71.008  1.00  0.00    -0.327 A  
HETATM    4  C   UNL     1     -11.637  16.112  71.800  1.00  0.00    -0.503 A  
HETATM    5  C   UNL     1     -12.414  16.220  72.953  1.00  0.00    -0.498 A  
HETATM    6  C   UNL     1     -13.245  15.170  73.325  1.00  0.00    -0.567 A  
HETATM    7  C   UNL     1     -13.311  14.027  72.530  1.00  0.00    -0.639 A  
HETATM    8  C   UNL     1     -12.545  13.906  71.361  1.00  0.00    -0.361 A  
BRANCH   8   9
HETATM    9  O   UNL     1     -12.775  12.718  70.714  1.00  0.00    -0.244 OA 
BRANCH   9  10
HETATM   10  C   UNL     1     -12.827  11.520  71.488  1.00  0.00    -0.380 C  
BRANCH  10  11
HETATM   11  C   UNL     1     -12.523  10.305  70.592  1.00  0.00    -0.318 C  
HETATM   12  H   UNL     1     -12.135   9.938  68.670  1.00  0.00     0.000 HD 
HETATM   13  O   UNL     1     -12.322  10.688  69.222  1.00  0.00    -0.316 OA 
BRANCH  11  14
HETATM   14  C   UNL     1     -11.253   9.560  71.079  1.00  0.00    -0.362 C  
BRANCH  14  15
HETATM   15  N   UNL     1     -11.490   8.533  72.114  1.00  0.00    -0.356 NA 
HETATM   16  C   UNL     1     -12.171   7.350  71.568  1.00  0.00    -0.337 C  
HETATM   17  C   UNL     1     -11.295   6.592  70.559  1.00  0.00    -0.367 C  
HETATM   18  N   UNL     1     -10.034   6.061  71.127  1.00  0.00    -0.182 NA 
HETATM   19  C   UNL     1      -9.346   7.116  71.902  1.00  0.00    -0.138 C  
HETATM   20  C   UNL     1     -10.230   8.079  72.745  1.00  0.00    -0.319 C  
BRANCH  18  21
HETATM   21  C   UNL     1     -10.297   4.837  71.926  1.00  0.00    -0.172 C  
BRANCH  21  22
HETATM   22  C   UNL     1      -9.491   3.646  71.351  1.00  0.00    -0.157 C  
HETATM   23  N   UNL     1      -8.569   4.064  70.408  1.00  0.00    -0.071 N  
HETATM   24  O   UNL     1      -9.651   2.498  71.754  1.00  0.00    -0.120 OA 
HETATM   25  H   UNL     1      -8.521   5.069  70.239  1.00  0.00     0.000 HD 
BRANCH  23  26
HETATM   26  C   UNL     1      -7.691   3.267  69.656  1.00  0.00    -0.043 A  
HETATM   27  C   UNL     1      -7.999   2.777  68.370  1.00  0.00    -0.060 A  
HETATM   28  C   UNL     1      -7.033   2.018  67.685  1.00  0.00    -0.039 A  
HETATM   29  C   UNL     1      -9.281   3.059  67.635  1.00  0.00    -0.240 C  
HETATM   30  C   UNL     1      -5.776   1.789  68.235  1.00  0.00    -0.019 A  
HETATM   31  C   UNL     1      -5.461   2.307  69.486  1.00  0.00    -0.017 A  
HETATM   32  C   UNL     1      -6.408   3.048  70.207  1.00  0.00    -0.028 A  
HETATM   33  C   UNL     1      -6.053   3.525  71.592  1.00  0.00    -0.014 C  
ENDBRANCH  23  26
ENDBRANCH  21  22
ENDBRANCH  18  21
ENDBRANCH  14  15
ENDBRANCH  11  14
ENDBRANCH  10  11
ENDBRANCH   9  10
ENDBRANCH   8   9
ENDBRANCH   2   3
TORSDOF 9
ENDMDL
MODEL      128
REMARK 921   NORMALIZED FREE ENERGY PREDICTED BY IDOCK:   -4.92 KCAL/MOL
REMARK 922        TOTAL FREE ENERGY PREDICTED BY IDOCK:   -8.61 KCAL/MOL
REMARK 923 INTER-LIGAND FREE ENERGY PREDICTED BY IDOCK:   -7.50 KCAL/MOL
REMARK 924 INTRA-LIGAND FREE ENERGY PREDICTED BY IDOCK:   -1.11 KCAL/MOL
REMARK 927      BINDING AFFINITY PREDICTED BY RF-SCORE:    0.00 PKD
ROOT
HETATM    1  C   UNL     1     -12.838   9.371  71.714  1.00  0.00    -0.399 C  
HETATM    2  O   UNL     1     -12.025   8.363  71.121  1.00  0.00    -0.291 OA 
ENDROOT
BRANCH   2   3
HETATM    3  C   UNL     1     -11.583   7.372  71.957  1.00  0.00    -0.284 A  
HETATM    4  C   UNL     1     -12.355   6.219  72.190  1.00  0.00    -0.193 A  
HETATM    5  C   UNL     1     -11.911   5.218  73.051  1.00  0.00    -0.129 A  
HETATM    6  C   UNL     1     -10.680   5.348  73.684  1.00  0.00    -0.337 A  
HETATM    7  C   UNL     1      -9.892   6.470  73.436  1.00  0.00    -0.200 A  
HETATM    8  C   UNL     1     -10.318   7.483  72.564  1.00  0.00    -0.240 A  
BRANCH   8   9
HETATM    9  O   UNL     1      -9.387   8.484  72.440  1.00  0.00    -0.268 OA 
BRANCH   9  10
HETATM   10  C   UNL     1      -8.277   8.276  71.567  1.00  0.00    -0.132 C  
BRANCH  10  11
HETATM   11  C   UNL     1      -8.099   9.500  70.649  1.00  0.00    -0.113 C  
HETATM   12  H   UNL     1      -6.694  10.855  70.238  1.00  0.00     0.000 HD 
HETATM   13  O   UNL     1      -6.803  10.100  70.804  1.00  0.00    -0.317 OA 
BRANCH  11  14
HETATM   14  C   UNL     1      -8.277   9.107  69.159  1.00  0.00    -0.117 C  
BRANCH  14  15
HETATM   15  N   UNL     1      -9.662   9.191  68.652  1.00  0.00    -0.152 NA 
HETATM   16  C   UNL     1     -10.293  10.476  68.987  1.00  0.00    -0.213 C  
HETATM   17  C   UNL     1      -9.617  11.656  68.271  1.00  0.00    -0.198 C  
HETATM   18  N   UNL     1      -9.683  11.589  66.793  1.00  0.00    -0.196 NA 
HETATM   19  C   UNL     1      -9.274  10.245  66.331  1.00  0.00    -0.158 C  
HETATM   20  C   UNL     1      -9.727   9.025  67.183  1.00  0.00    -0.181 C  
BRANCH  18  21
HETATM   21  C   UNL     1     -11.033  11.978  66.313  1.00  0.00    -0.299 C  
BRANCH  21  22
HETATM   22  C   UNL     1     -11.368  13.416  66.782  1.00  0.00    -0.325 C  
HETATM   23  N   UNL     1     -10.319  14.286  66.542  1.00  0.00    -0.274 N  
HETATM   24  O   UNL     1     -12.462  13.708  67.253  1.00  0.00    -0.232 OA 
HETATM   25  H   UNL     1      -9.501  13.889  66.079  1.00  0.00     0.000 HD 
BRANCH  23  26
HETATM   26  C   UNL     1     -10.249  15.652  66.861  1.00  0.00    -0.281 A  
HETATM   27  C   UNL     1      -9.726  16.136  68.079  1.00  0.00    -0.229 A  
HETATM   28  C   UNL     1      -9.665  17.526  68.283  1.00  0.00    -0.311 A  
HETATM   29  C   UNL     1      -9.162  15.269  69.169  1.00  0.00    -0.234 C  
HETATM   30  C   UNL     1     -10.066  18.418  67.293  1.00  0.00    -0.369 A  
HETATM   31  C   UNL     1     -10.542  17.937  66.079  1.00  0.00    -0.235 A  
HETATM   32  C   UNL     1     -10.639  16.558  65.848  1.00  0.00    -0.279 A  
HETATM   33  C   UNL     1     -11.234  16.079  64.550  1.00  0.00    -0.309 C  
ENDBRANCH  23  26
ENDBRANCH  21  22
ENDBRANCH  18  21
ENDBRANCH  14  15
ENDBRANCH  11  14
ENDBRANCH  10  11
ENDBRANCH   9  10
ENDBRANCH   8   9
ENDBRANCH   2   3
TORSDOF 9
ENDMDL
MODEL      129
REMARK 921   NORMALIZED FREE ENERGY PREDICTED BY IDOCK:   -4.91 KCAL/MOL
REMARK 922        TOTAL FREE ENERGY PREDICTED BY IDOCK:   -8.59 KCAL/MOL
REMARK 923 INTER-LIGAND FREE ENERGY PREDICTED BY IDOCK:   -7.57 KCAL/MOL
REMARK 924 INTRA-LIGAND FREE ENERGY PREDICTED BY IDOCK:   -1.02 KCAL/MOL
REMARK 927      BINDING AFFINITY PREDICTED BY RF-SCORE:    0.00 PKD
ROOT
HETATM    1  C   UNL     1     -10.452   6.471  66.824  1.00  0.00    -0.230 C  
HETATM    2  O   UNL     1      -9.285   5.908  67.416  1.00  0.00    -0.111 OA 
ENDROOT
BRANCH   2   3
HETATM    3  C   UNL     1      -9.233   4.541  67.470  1.00  0.00    -0.137 A  
HETATM    4  C   UNL     1      -9.032   3.773  66.308  1.00  0.00    -0.136 A  
HETATM    5  C   UNL     1      -8.992   2.381  66.362  1.00  0.00    -0.124 A  
HETATM    6  C   UNL     1      -9.143   1.734  67.583  1.00  0.00    -0.181 A  
HETATM    7  C   UNL     1      -9.310   2.485  68.746  1.00  0.00    -0.231 A  
HETATM    8  C   UNL     1      -9.341   3.887  68.711  1.00  0.00    -0.166 A  
BRANCH   8   9
HETATM    9  O   UNL     1      -9.490   4.431  69.962  1.00  0.00    -0.143 OA 
BRANCH   9  10
HETATM   10  C   UNL     1      -9.774   3.558  71.055  1.00  0.00    -0.155 C  
BRANCH  10  11
HETATM   11  C   UNL     1     -10.082   4.384  72.317  1.00  0.00    -0.189 C  
HETATM   12  H   UNL     1      -9.318   4.647  74.142  1.00  0.00     0.000 HD 
HETATM   13  O   UNL     1      -9.128   4.138  73.363  1.00  0.00    -0.103 OA 
BRANCH  11  14
HETATM   14  C   UNL     1     -10.076   5.902  72.003  1.00  0.00    -0.189 C  
BRANCH  14  15
HETATM   15  N   UNL     1     -11.412   6.508  71.822  1.00  0.00    -0.285 NA 
HETATM   16  C   UNL     1     -11.566   7.741  72.608  1.00  0.00    -0.344 C  
HETATM   17  C   UNL     1     -10.636   8.861  72.113  1.00  0.00    -0.253 C  
HETATM   18  N   UNL     1     -10.882   9.283  70.715  1.00  0.00    -0.258 NA 
HETATM   19  C   UNL     1     -10.969   8.095  69.838  1.00  0.00    -0.168 C  
HETATM   20  C   UNL     1     -11.686   6.836  70.405  1.00  0.00    -0.363 C  
BRANCH  18  21
HETATM   21  C   UNL     1     -12.086  10.149  70.635  1.00  0.00    -0.319 C  
BRANCH  21  22
HETATM   22  C   UNL     1     -11.933  11.162  69.474  1.00  0.00    -0.355 C  
HETATM   23  N   UNL     1     -11.196  12.268  69.858  1.00  0.00    -0.485 N  
HETATM   24  O   UNL     1     -12.382  10.939  68.354  1.00  0.00    -0.477 OA 
HETATM   25  H   UNL     1     -10.838  12.262  70.813  1.00  0.00     0.000 HD 
BRANCH  23  26
HETATM   26  C   UNL     1     -10.883  13.399  69.086  1.00  0.00    -0.114 A  
HETATM   27  C   UNL     1      -9.931  13.387  68.045  1.00  0.00    -0.239 A  
HETATM   28  C   UNL     1      -9.720  14.565  67.307  1.00  0.00    -0.232 A  
HETATM   29  C   UNL     1      -9.153  12.174  67.615  1.00  0.00    -0.181 C  
HETATM   30  C   UNL     1     -10.464  15.714  67.558  1.00  0.00    -0.285 A  
HETATM   31  C   UNL     1     -11.430  15.710  68.557  1.00  0.00    -0.380 A  
HETATM   32  C   UNL     1     -11.651  14.561  69.329  1.00  0.00    -0.339 A  
HETATM   33  C   UNL     1     -12.652  14.623  70.453  1.00  0.00    -0.399 C  
ENDBRANCH  23  26
ENDBRANCH  21  22
ENDBRANCH  18  21
ENDBRANCH  14  15
ENDBRANCH  11  14
ENDBRANCH  10  11
ENDBRANCH   9  10
ENDBRANCH   8   9
ENDBRANCH   2   3
TORSDOF 9
ENDMDL
MODEL      130
REMARK 921   NORMALIZED FREE ENERGY PREDICTED BY IDOCK:   -4.91 KCAL/MOL
REMARK 922        TOTAL FREE ENERGY PREDICTED BY IDOCK:   -8.59 KCAL/MOL
REMARK 923 INTER-LIGAND FREE ENERGY PREDICTED BY IDOCK:   -7.72 KCAL/MOL
REMARK 924 INTRA-LIGAND FREE ENERGY PREDICTED BY IDOCK:   -0.87 KCAL/MOL
REMARK 927      BINDING AFFINITY PREDICTED BY RF-SCORE:    0.00 PKD
ROOT
HETATM    1  C   UNL     1      -6.640  20.998  66.919  1.00  0.00    -0.327 C  
HETATM    2  O   UNL     1      -7.174  20.228  67.993  1.00  0.00    -0.290 OA 
ENDROOT
BRANCH   2   3
HETATM    3  C   UNL     1      -6.756  18.926  68.069  1.00  0.00    -0.228 A  
HETATM    4  C   UNL     1      -5.864  18.505  69.073  1.00  0.00    -0.224 A  
HETATM    5  C   UNL     1      -5.429  17.183  69.142  1.00  0.00    -0.153 A  
HETATM    6  C   UNL     1      -5.889  16.256  68.214  1.00  0.00    -0.107 A  
HETATM    7  C   UNL     1      -6.798  16.653  67.235  1.00  0.00    -0.212 A  
HETATM    8  C   UNL     1      -7.255  17.977  67.157  1.00  0.00    -0.194 A  
BRANCH   8   9
HETATM    9  O   UNL     1      -8.160  18.152  66.140  1.00  0.00    -0.416 OA 
BRANCH   9  10
HETATM   10  C   UNL     1      -9.510  17.742  66.354  1.00  0.00    -0.264 C  
BRANCH  10  11
HETATM   11  C   UNL     1     -10.026  18.318  67.687  1.00  0.00    -0.338 C  
HETATM   12  H   UNL     1     -11.139  19.853  68.308  1.00  0.00     0.000 HD 
HETATM   13  O   UNL     1     -10.821  19.498  67.487  1.00  0.00    -0.468 OA 
BRANCH  11  14
HETATM   14  C   UNL     1     -10.887  17.275  68.446  1.00  0.00    -0.273 C  
BRANCH  14  15
HETATM   15  N   UNL     1     -10.139  16.122  68.986  1.00  0.00    -0.233 NA 
HETATM   16  C   UNL     1     -10.682  15.671  70.276  1.00  0.00    -0.338 C  
HETATM   17  C   UNL     1     -12.100  15.095  70.136  1.00  0.00    -0.343 C  
HETATM   18  N   UNL     1     -12.190  13.903  69.262  1.00  0.00    -0.331 NA 
HETATM   19  C   UNL     1     -11.477  14.155  67.991  1.00  0.00    -0.312 C  
HETATM   20  C   UNL     1     -10.152  14.968  68.060  1.00  0.00    -0.223 C  
BRANCH  18  21
HETATM   21  C   UNL     1     -11.693  12.697  69.972  1.00  0.00    -0.215 C  
BRANCH  21  22
HETATM   22  C   UNL     1     -11.520  11.527  68.972  1.00  0.00    -0.291 C  
HETATM   23  N   UNL     1     -10.249  10.986  69.038  1.00  0.00    -0.262 N  
HETATM   24  O   UNL     1     -12.444  11.133  68.268  1.00  0.00    -0.300 OA 
HETATM   25  H   UNL     1      -9.621  11.394  69.730  1.00  0.00     0.000 HD 
BRANCH  23  26
HETATM   26  C   UNL     1      -9.722   9.940  68.262  1.00  0.00    -0.144 A  
HETATM   27  C   UNL     1      -9.922   8.577  68.563  1.00  0.00    -0.201 A  
HETATM   28  C   UNL     1      -9.383   7.607  67.699  1.00  0.00    -0.158 A  
HETATM   29  C   UNL     1     -10.734   8.070  69.723  1.00  0.00    -0.231 C  
HETATM   30  C   UNL     1      -8.704   7.973  66.541  1.00  0.00    -0.161 A  
HETATM   31  C   UNL     1      -8.543   9.317  66.227  1.00  0.00    -0.139 A  
HETATM   32  C   UNL     1      -9.047  10.312  67.077  1.00  0.00    -0.154 A  
HETATM   33  C   UNL     1      -8.784  11.756  66.740  1.00  0.00    -0.192 C  
ENDBRANCH  23  26
ENDBRANCH  21  22
ENDBRANCH  18  21
ENDBRANCH  14  15
ENDBRANCH  11  14
ENDBRANCH  10  11
ENDBRANCH   9  10
ENDBRANCH   8   9
ENDBRANCH   2   3
TORSDOF 9
ENDMDL
MODEL      131
REMARK 921   NORMALIZED FREE ENERGY PREDICTED BY IDOCK:   -4.91 KCAL/MOL
REMARK 922        TOTAL FREE ENERGY PREDICTED BY IDOCK:   -8.59 KCAL/MOL
REMARK 923 INTER-LIGAND FREE ENERGY PREDICTED BY IDOCK:   -7.68 KCAL/MOL
REMARK 924 INTRA-LIGAND FREE ENERGY PREDICTED BY IDOCK:   -0.91 KCAL/MOL
REMARK 927      BINDING AFFINITY PREDICTED BY RF-SCORE:    0.00 PKD
ROOT
HETATM    1  C   UNL     1     -12.376  10.990  69.368  1.00  0.00    -0.153 C  
HETATM    2  O   UNL     1     -11.774  11.750  70.412  1.00  0.00    -0.300 OA 
ENDROOT
BRANCH   2   3
HETATM    3  C   UNL     1     -12.441  12.883  70.797  1.00  0.00    -0.286 A  
HETATM    4  C   UNL     1     -13.355  12.862  71.866  1.00  0.00    -0.530 A  
HETATM    5  C   UNL     1     -14.042  14.013  72.248  1.00  0.00    -0.633 A  
HETATM    6  C   UNL     1     -13.816  15.207  71.574  1.00  0.00    -0.597 A  
HETATM    7  C   UNL     1     -12.888  15.248  70.534  1.00  0.00    -0.421 A  
HETATM    8  C   UNL     1     -12.180  14.102  70.143  1.00  0.00    -0.351 A  
BRANCH   8   9
HETATM    9  O   UNL     1     -11.302  14.362  69.121  1.00  0.00    -0.249 OA 
BRANCH   9  10
HETATM   10  C   UNL     1     -11.830  14.661  67.830  1.00  0.00    -0.329 C  
BRANCH  10  11
HETATM   11  C   UNL     1     -10.710  15.200  66.920  1.00  0.00    -0.308 C  
HETATM   12  H   UNL     1      -8.767  15.635  67.055  1.00  0.00     0.000 HD 
HETATM   13  O   UNL     1      -9.458  15.302  67.616  1.00  0.00    -0.203 OA 
BRANCH  11  14
HETATM   14  C   UNL     1     -10.507  14.283  65.687  1.00  0.00    -0.324 C  
BRANCH  14  15
HETATM   15  N   UNL     1     -11.030  12.910  65.836  1.00  0.00    -0.273 NA 
HETATM   16  C   UNL     1     -11.337  12.294  64.537  1.00  0.00    -0.329 C  
HETATM   17  C   UNL     1     -10.073  12.065  63.693  1.00  0.00    -0.415 C  
HETATM   18  N   UNL     1      -9.087  11.149  64.310  1.00  0.00    -0.097 NA 
HETATM   19  C   UNL     1      -8.851  11.536  65.718  1.00  0.00    -0.058 C  
HETATM   20  C   UNL     1     -10.076  12.025  66.542  1.00  0.00    -0.201 C  
BRANCH  18  21
HETATM   21  C   UNL     1      -9.526   9.737  64.166  1.00  0.00    -0.097 C  
BRANCH  21  22
HETATM   22  C   UNL     1      -8.503   8.793  64.844  1.00  0.00    -0.171 C  
HETATM   23  N   UNL     1      -9.132   7.752  65.504  1.00  0.00    -0.386 N  
HETATM   24  O   UNL     1      -7.293   8.961  64.735  1.00  0.00    -0.093 OA 
HETATM   25  H   UNL     1     -10.149   7.726  65.438  1.00  0.00     0.000 HD 
BRANCH  23  26
HETATM   26  C   UNL     1      -8.533   6.727  66.254  1.00  0.00    -0.131 A  
HETATM   27  C   UNL     1      -8.302   5.430  65.748  1.00  0.00    -0.126 A  
HETATM   28  C   UNL     1      -7.660   4.488  66.570  1.00  0.00    -0.090 A  
HETATM   29  C   UNL     1      -8.641   4.988  64.352  1.00  0.00    -0.135 C  
HETATM   30  C   UNL     1      -7.213   4.829  67.843  1.00  0.00    -0.066 A  
HETATM   31  C   UNL     1      -7.405   6.119  68.323  1.00  0.00    -0.086 A  
HETATM   32  C   UNL     1      -8.062   7.078  67.540  1.00  0.00    -0.113 A  
HETATM   33  C   UNL     1      -8.320   8.441  68.128  1.00  0.00    -0.128 C  
ENDBRANCH  23  26
ENDBRANCH  21  22
ENDBRANCH  18  21
ENDBRANCH  14  15
ENDBRANCH  11  14
ENDBRANCH  10  11
ENDBRANCH   9  10
ENDBRANCH   8   9
ENDBRANCH   2   3
TORSDOF 9
ENDMDL
MODEL      132
REMARK 921   NORMALIZED FREE ENERGY PREDICTED BY IDOCK:   -4.91 KCAL/MOL
REMARK 922        TOTAL FREE ENERGY PREDICTED BY IDOCK:   -8.59 KCAL/MOL
REMARK 923 INTER-LIGAND FREE ENERGY PREDICTED BY IDOCK:   -7.51 KCAL/MOL
REMARK 924 INTRA-LIGAND FREE ENERGY PREDICTED BY IDOCK:   -1.08 KCAL/MOL
REMARK 927      BINDING AFFINITY PREDICTED BY RF-SCORE:    0.00 PKD
ROOT
HETATM    1  C   UNL     1     -10.573  19.452  66.239  1.00  0.00    -0.475 C  
HETATM    2  O   UNL     1     -10.074  19.594  67.566  1.00  0.00    -0.358 OA 
ENDROOT
BRANCH   2   3
HETATM    3  C   UNL     1      -8.711  19.610  67.702  1.00  0.00    -0.321 A  
HETATM    4  C   UNL     1      -7.958  20.741  67.339  1.00  0.00    -0.264 A  
HETATM    5  C   UNL     1      -6.570  20.752  67.465  1.00  0.00    -0.390 A  
HETATM    6  C   UNL     1      -5.914  19.635  67.968  1.00  0.00    -0.234 A  
HETATM    7  C   UNL     1      -6.653  18.520  68.362  1.00  0.00    -0.235 A  
HETATM    8  C   UNL     1      -8.051  18.496  68.253  1.00  0.00    -0.303 A  
BRANCH   8   9
HETATM    9  O   UNL     1      -8.585  17.319  68.716  1.00  0.00    -0.274 OA 
BRANCH   9  10
HETATM   10  C   UNL     1      -8.395  16.135  67.943  1.00  0.00    -0.161 C  
BRANCH  10  11
HETATM   11  C   UNL     1      -9.337  16.149  66.725  1.00  0.00    -0.234 C  
HETATM   12  H   UNL     1      -9.197  16.320  64.742  1.00  0.00     0.000 HD 
HETATM   13  O   UNL     1      -8.616  16.311  65.493  1.00  0.00    -0.101 OA 
BRANCH  11  14
HETATM   14  C   UNL     1     -10.155  14.835  66.640  1.00  0.00    -0.264 C  
BRANCH  14  15
HETATM   15  N   UNL     1      -9.717  13.893  65.590  1.00  0.00    -0.190 NA 
HETATM   16  C   UNL     1      -8.847  12.836  66.129  1.00  0.00     0.249 C  
HETATM   17  C   UNL     1      -9.597  11.909  67.099  1.00  0.00    -0.186 C  
HETATM   18  N   UNL     1     -10.729  11.177  66.488  1.00  0.00    -0.267 NA 
HETATM   19  C   UNL     1     -11.578  12.112  65.717  1.00  0.00    -0.355 C  
HETATM   20  C   UNL     1     -10.861  13.238  64.918  1.00  0.00    -0.345 C  
BRANCH  18  21
HETATM   21  C   UNL     1     -10.234  10.040  65.670  1.00  0.00    -0.188 C  
BRANCH  21  22
HETATM   22  C   UNL     1      -9.712   8.912  66.594  1.00  0.00    -0.237 C  
HETATM   23  N   UNL     1     -10.746   8.285  67.267  1.00  0.00    -0.471 N  
HETATM   24  O   UNL     1      -8.523   8.614  66.647  1.00  0.00    -0.109 OA 
HETATM   25  H   UNL     1     -11.687   8.617  67.054  1.00  0.00     0.000 HD 
BRANCH  23  26
HETATM   26  C   UNL     1     -10.652   7.247  68.207  1.00  0.00    -0.172 A  
HETATM   27  C   UNL     1     -10.293   5.925  67.868  1.00  0.00    -0.262 A  
HETATM   28  C   UNL     1     -10.190   4.968  68.893  1.00  0.00    -0.184 A  
HETATM   29  C   UNL     1      -9.946   5.466  66.479  1.00  0.00    -0.222 C  
HETATM   30  C   UNL     1     -10.389   5.316  70.225  1.00  0.00    -0.350 A  
HETATM   31  C   UNL     1     -10.703   6.628  70.560  1.00  0.00    -0.293 A  
HETATM   32  C   UNL     1     -10.837   7.604  69.563  1.00  0.00    -0.171 A  
HETATM   33  C   UNL     1     -11.255   8.995  69.961  1.00  0.00    -0.141 C  
ENDBRANCH  23  26
ENDBRANCH  21  22
ENDBRANCH  18  21
ENDBRANCH  14  15
ENDBRANCH  11  14
ENDBRANCH  10  11
ENDBRANCH   9  10
ENDBRANCH   8   9
ENDBRANCH   2   3
TORSDOF 9
ENDMDL
MODEL      133
REMARK 921   NORMALIZED FREE ENERGY PREDICTED BY IDOCK:   -4.91 KCAL/MOL
REMARK 922        TOTAL FREE ENERGY PREDICTED BY IDOCK:   -8.58 KCAL/MOL
REMARK 923 INTER-LIGAND FREE ENERGY PREDICTED BY IDOCK:   -7.50 KCAL/MOL
REMARK 924 INTRA-LIGAND FREE ENERGY PREDICTED BY IDOCK:   -1.08 KCAL/MOL
REMARK 927      BINDING AFFINITY PREDICTED BY RF-SCORE:    0.00 PKD
ROOT
HETATM    1  C   UNL     1     -12.135  14.411  69.175  1.00  0.00    -0.281 C  
HETATM    2  O   UNL     1     -11.646  13.596  68.114  1.00  0.00    -0.291 OA 
ENDROOT
BRANCH   2   3
HETATM    3  C   UNL     1     -11.600  14.180  66.875  1.00  0.00    -0.391 A  
HETATM    4  C   UNL     1     -12.569  13.892  65.898  1.00  0.00    -0.498 A  
HETATM    5  C   UNL     1     -12.514  14.476  64.634  1.00  0.00    -0.339 A  
HETATM    6  C   UNL     1     -11.493  15.369  64.331  1.00  0.00    -0.260 A  
HETATM    7  C   UNL     1     -10.545  15.689  65.303  1.00  0.00    -0.448 A  
HETATM    8  C   UNL     1     -10.592  15.118  66.583  1.00  0.00    -0.304 A  
BRANCH   8   9
HETATM    9  O   UNL     1      -9.585  15.583  67.393  1.00  0.00    -0.212 OA 
BRANCH   9  10
HETATM   10  C   UNL     1      -8.271  15.694  66.848  1.00  0.00    -0.253 C  
BRANCH  10  11
HETATM   11  C   UNL     1      -7.321  14.723  67.573  1.00  0.00    -0.201 C  
HETATM   12  H   UNL     1      -6.154  14.719  69.191  1.00  0.00     0.000 HD 
HETATM   13  O   UNL     1      -6.740  15.318  68.744  1.00  0.00    -0.098 OA 
BRANCH  11  14
HETATM   14  C   UNL     1      -8.067  13.433  68.003  1.00  0.00    -0.160 C  
BRANCH  14  15
HETATM   15  N   UNL     1      -7.555  12.185  67.401  1.00  0.00    -0.146 NA 
HETATM   16  C   UNL     1      -7.336  11.139  68.411  1.00  0.00    -0.094 C  
HETATM   17  C   UNL     1      -8.651  10.670  69.052  1.00  0.00    -0.146 C  
HETATM   18  N   UNL     1      -9.611  10.066  68.100  1.00  0.00    -0.138 NA 
HETATM   19  C   UNL     1      -9.757  10.935  66.911  1.00  0.00    -0.181 C  
HETATM   20  C   UNL     1      -8.477  11.642  66.379  1.00  0.00    -0.114 C  
BRANCH  18  21
HETATM   21  C   UNL     1      -9.202   8.681  67.754  1.00  0.00    -0.134 C  
BRANCH  21  22
HETATM   22  C   UNL     1      -8.994   7.853  69.047  1.00  0.00    -0.145 C  
HETATM   23  N   UNL     1     -10.197   7.571  69.669  1.00  0.00    -0.200 N  
HETATM   24  O   UNL     1      -7.883   7.472  69.403  1.00  0.00    -0.115 OA 
HETATM   25  H   UNL     1     -11.037   7.910  69.200  1.00  0.00     0.000 HD 
BRANCH  23  26
HETATM   26  C   UNL     1     -10.397   6.875  70.872  1.00  0.00    -0.198 A  
HETATM   27  C   UNL     1     -10.277   5.474  70.985  1.00  0.00    -0.287 A  
HETATM   28  C   UNL     1     -10.460   4.878  72.245  1.00  0.00    -0.267 A  
HETATM   29  C   UNL     1      -9.903   4.557  69.853  1.00  0.00    -0.298 C  
HETATM   30  C   UNL     1     -10.707   5.649  73.376  1.00  0.00    -0.313 A  
HETATM   31  C   UNL     1     -10.784   7.033  73.269  1.00  0.00    -0.373 A  
HETATM   32  C   UNL     1     -10.631   7.660  72.025  1.00  0.00    -0.264 A  
HETATM   33  C   UNL     1     -10.799   9.154  71.939  1.00  0.00    -0.353 C  
ENDBRANCH  23  26
ENDBRANCH  21  22
ENDBRANCH  18  21
ENDBRANCH  14  15
ENDBRANCH  11  14
ENDBRANCH  10  11
ENDBRANCH   9  10
ENDBRANCH   8   9
ENDBRANCH   2   3
TORSDOF 9
ENDMDL
MODEL      134
REMARK 921   NORMALIZED FREE ENERGY PREDICTED BY IDOCK:   -4.90 KCAL/MOL
REMARK 922        TOTAL FREE ENERGY PREDICTED BY IDOCK:   -8.58 KCAL/MOL
REMARK 923 INTER-LIGAND FREE ENERGY PREDICTED BY IDOCK:   -7.07 KCAL/MOL
REMARK 924 INTRA-LIGAND FREE ENERGY PREDICTED BY IDOCK:   -1.51 KCAL/MOL
REMARK 927      BINDING AFFINITY PREDICTED BY RF-SCORE:    0.00 PKD
ROOT
HETATM    1  C   UNL     1      -6.371   7.896  62.449  1.00  0.00    -0.081 C  
HETATM    2  O   UNL     1      -6.298   8.453  63.758  1.00  0.00    -0.071 OA 
ENDROOT
BRANCH   2   3
HETATM    3  C   UNL     1      -7.478   8.900  64.292  1.00  0.00    -0.106 A  
HETATM    4  C   UNL     1      -8.063  10.104  63.859  1.00  0.00    -0.157 A  
HETATM    5  C   UNL     1      -9.256  10.565  64.411  1.00  0.00    -0.281 A  
HETATM    6  C   UNL     1      -9.891   9.822  65.400  1.00  0.00    -0.365 A  
HETATM    7  C   UNL     1      -9.338   8.611  65.814  1.00  0.00    -0.227 A  
HETATM    8  C   UNL     1      -8.144   8.126  65.261  1.00  0.00    -0.136 A  
BRANCH   8   9
HETATM    9  O   UNL     1      -7.786   6.911  65.788  1.00  0.00    -0.094 OA 
BRANCH   9  10
HETATM   10  C   UNL     1      -8.295   5.727  65.174  1.00  0.00    -0.146 C  
BRANCH  10  11
HETATM   11  C   UNL     1      -8.281   4.567  66.187  1.00  0.00    -0.106 C  
HETATM   12  H   UNL     1      -7.547   2.715  66.313  1.00  0.00     0.000 HD 
HETATM   13  O   UNL     1      -7.556   3.431  65.688  1.00  0.00    -0.076 OA 
BRANCH  11  14
HETATM   14  C   UNL     1      -7.635   5.006  67.526  1.00  0.00    -0.087 C  
BRANCH  14  15
HETATM   15  N   UNL     1      -8.429   4.698  68.734  1.00  0.00    -0.084 NA 
HETATM   16  C   UNL     1      -8.237   5.704  69.789  1.00  0.00    -0.106 C  
HETATM   17  C   UNL     1      -8.790   7.079  69.383  1.00  0.00    -0.136 C  
HETATM   18  N   UNL     1     -10.247   7.095  69.121  1.00  0.00    -0.188 NA 
HETATM   19  C   UNL     1     -10.612   5.975  68.228  1.00  0.00    -0.261 C  
HETATM   20  C   UNL     1      -9.877   4.619  68.441  1.00  0.00    -0.102 C  
BRANCH  18  21
HETATM   21  C   UNL     1     -11.007   7.086  70.397  1.00  0.00    -0.268 C  
BRANCH  21  22
HETATM   22  C   UNL     1     -11.027   8.507  71.012  1.00  0.00    -0.249 C  
HETATM   23  N   UNL     1     -11.882   9.348  70.322  1.00  0.00    -0.466 N  
HETATM   24  O   UNL     1     -10.386   8.788  72.020  1.00  0.00    -0.324 OA 
HETATM   25  H   UNL     1     -12.391   8.931  69.542  1.00  0.00     0.000 HD 
BRANCH  23  26
HETATM   26  C   UNL     1     -12.130  10.708  70.568  1.00  0.00    -0.355 A  
HETATM   27  C   UNL     1     -11.572  11.749  69.797  1.00  0.00    -0.372 A  
HETATM   28  C   UNL     1     -11.916  13.078  70.104  1.00  0.00    -0.374 A  
HETATM   29  C   UNL     1     -10.670  11.543  68.612  1.00  0.00    -0.242 C  
HETATM   30  C   UNL     1     -12.826  13.370  71.116  1.00  0.00    -0.372 A  
HETATM   31  C   UNL     1     -13.404  12.339  71.847  1.00  0.00    -0.431 A  
HETATM   32  C   UNL     1     -13.067  11.004  71.585  1.00  0.00    -0.543 A  
HETATM   33  C   UNL     1     -13.658   9.923  72.452  1.00  0.00    -0.258 C  
ENDBRANCH  23  26
ENDBRANCH  21  22
ENDBRANCH  18  21
ENDBRANCH  14  15
ENDBRANCH  11  14
ENDBRANCH  10  11
ENDBRANCH   9  10
ENDBRANCH   8   9
ENDBRANCH   2   3
TORSDOF 9
ENDMDL
MODEL      135
REMARK 921   NORMALIZED FREE ENERGY PREDICTED BY IDOCK:   -4.89 KCAL/MOL
REMARK 922        TOTAL FREE ENERGY PREDICTED BY IDOCK:   -8.56 KCAL/MOL
REMARK 923 INTER-LIGAND FREE ENERGY PREDICTED BY IDOCK:   -7.24 KCAL/MOL
REMARK 924 INTRA-LIGAND FREE ENERGY PREDICTED BY IDOCK:   -1.31 KCAL/MOL
REMARK 927      BINDING AFFINITY PREDICTED BY RF-SCORE:    0.00 PKD
ROOT
HETATM    1  C   UNL     1      -9.538   5.372  73.775  1.00  0.00    -0.140 C  
HETATM    2  O   UNL     1     -10.763   5.417  73.050  1.00  0.00    -0.217 OA 
ENDROOT
BRANCH   2   3
HETATM    3  C   UNL     1     -10.985   6.547  72.307  1.00  0.00    -0.249 A  
HETATM    4  C   UNL     1     -11.781   7.596  72.800  1.00  0.00    -0.276 A  
HETATM    5  C   UNL     1     -12.018   8.739  72.038  1.00  0.00    -0.446 A  
HETATM    6  C   UNL     1     -11.451   8.856  70.775  1.00  0.00    -0.319 A  
HETATM    7  C   UNL     1     -10.633   7.837  70.289  1.00  0.00    -0.231 A  
HETATM    8  C   UNL     1     -10.375   6.684  71.046  1.00  0.00    -0.207 A  
BRANCH   8   9
HETATM    9  O   UNL     1      -9.530   5.819  70.398  1.00  0.00    -0.160 OA 
BRANCH   9  10
HETATM   10  C   UNL     1     -10.069   4.606  69.874  1.00  0.00    -0.187 C  
BRANCH  10  11
HETATM   11  C   UNL     1      -9.048   3.948  68.927  1.00  0.00    -0.138 C  
HETATM   12  H   UNL     1      -9.028   2.540  67.513  1.00  0.00     0.000 HD 
HETATM   13  O   UNL     1      -9.658   2.946  68.097  1.00  0.00    -0.189 OA 
BRANCH  11  14
HETATM   14  C   UNL     1      -8.384   5.004  68.005  1.00  0.00    -0.100 C  
BRANCH  14  15
HETATM   15  N   UNL     1      -9.166   5.368  66.807  1.00  0.00    -0.124 NA 
HETATM   16  C   UNL     1      -9.894   6.632  66.989  1.00  0.00    -0.160 C  
HETATM   17  C   UNL     1      -8.942   7.831  67.127  1.00  0.00    -0.126 C  
HETATM   18  N   UNL     1      -8.085   8.068  65.943  1.00  0.00    -0.110 NA 
HETATM   19  C   UNL     1      -7.454   6.800  65.516  1.00  0.00    -0.083 C  
HETATM   20  C   UNL     1      -8.312   5.505  65.606  1.00  0.00    -0.133 C  
BRANCH  18  21
HETATM   21  C   UNL     1      -8.863   8.718  64.858  1.00  0.00    -0.074 C  
BRANCH  21  22
HETATM   22  C   UNL     1      -9.125  10.203  65.211  1.00  0.00    -0.195 C  
HETATM   23  N   UNL     1     -10.470  10.444  65.431  1.00  0.00    -0.191 N  
HETATM   24  O   UNL     1      -8.212  11.015  65.324  1.00  0.00    -0.045 OA 
HETATM   25  H   UNL     1     -11.089   9.637  65.361  1.00  0.00     0.000 HD 
BRANCH  23  26
HETATM   26  C   UNL     1     -11.082  11.670  65.738  1.00  0.00    -0.256 A  
HETATM   27  C   UNL     1     -11.751  12.463  64.782  1.00  0.00    -0.425 A  
HETATM   28  C   UNL     1     -12.363  13.657  65.202  1.00  0.00    -0.486 A  
HETATM   29  C   UNL     1     -11.916  12.094  63.334  1.00  0.00    -0.578 C  
HETATM   30  C   UNL     1     -12.358  14.036  66.541  1.00  0.00    -0.442 A  
HETATM   31  C   UNL     1     -11.732  13.232  67.487  1.00  0.00    -0.410 A  
HETATM   32  C   UNL     1     -11.091  12.047  67.101  1.00  0.00    -0.344 A  
HETATM   33  C   UNL     1     -10.358  11.246  68.145  1.00  0.00    -0.205 C  
ENDBRANCH  23  26
ENDBRANCH  21  22
ENDBRANCH  18  21
ENDBRANCH  14  15
ENDBRANCH  11  14
ENDBRANCH  10  11
ENDBRANCH   9  10
ENDBRANCH   8   9
ENDBRANCH   2   3
TORSDOF 9
ENDMDL
MODEL      136
REMARK 921   NORMALIZED FREE ENERGY PREDICTED BY IDOCK:   -4.86 KCAL/MOL
REMARK 922        TOTAL FREE ENERGY PREDICTED BY IDOCK:   -8.51 KCAL/MOL
REMARK 923 INTER-LIGAND FREE ENERGY PREDICTED BY IDOCK:   -7.35 KCAL/MOL
REMARK 924 INTRA-LIGAND FREE ENERGY PREDICTED BY IDOCK:   -1.16 KCAL/MOL
REMARK 927      BINDING AFFINITY PREDICTED BY RF-SCORE:    0.00 PKD
ROOT
HETATM    1  C   UNL     1      -7.513   6.407  70.955  1.00  0.00    -0.088 C  
HETATM    2  O   UNL     1      -8.342   7.359  70.294  1.00  0.00    -0.130 OA 
ENDROOT
BRANCH   2   3
HETATM    3  C   UNL     1      -9.608   7.510  70.796  1.00  0.00    -0.166 A  
HETATM    4  C   UNL     1      -9.897   8.492  71.761  1.00  0.00    -0.339 A  
HETATM    5  C   UNL     1     -11.182   8.636  72.280  1.00  0.00    -0.399 A  
HETATM    6  C   UNL     1     -12.203   7.806  71.833  1.00  0.00    -0.341 A  
HETATM    7  C   UNL     1     -11.937   6.850  70.854  1.00  0.00    -0.430 A  
HETATM    8  C   UNL     1     -10.652   6.699  70.312  1.00  0.00    -0.222 A  
BRANCH   8   9
HETATM    9  O   UNL     1     -10.610   5.723  69.348  1.00  0.00    -0.257 OA 
BRANCH   9  10
HETATM   10  C   UNL     1     -11.014   6.059  68.021  1.00  0.00    -0.245 C  
BRANCH  10  11
HETATM   11  C   UNL     1      -9.881   6.821  67.307  1.00  0.00    -0.145 C  
HETATM   12  H   UNL     1      -8.723   6.591  65.699  1.00  0.00     0.000 HD 
HETATM   13  O   UNL     1      -9.421   6.121  66.139  1.00  0.00    -0.147 OA 
BRANCH  11  14
HETATM   14  C   UNL     1     -10.349   8.234  66.874  1.00  0.00    -0.320 C  
BRANCH  14  15
HETATM   15  N   UNL     1      -9.344   9.026  66.137  1.00  0.00    -0.213 NA 
HETATM   16  C   UNL     1      -9.916  10.263  65.584  1.00  0.00    -0.280 C  
HETATM   17  C   UNL     1     -10.350  11.242  66.687  1.00  0.00    -0.237 C  
HETATM   18  N   UNL     1      -9.246  11.705  67.557  1.00  0.00    -0.169 NA 
HETATM   19  C   UNL     1      -8.443  10.550  68.013  1.00  0.00    -0.120 C  
HETATM   20  C   UNL     1      -8.196   9.402  66.992  1.00  0.00    -0.116 C  
BRANCH  18  21
HETATM   21  C   UNL     1      -8.432  12.735  66.864  1.00  0.00    -0.102 C  
BRANCH  21  22
HETATM   22  C   UNL     1      -8.479  14.067  67.653  1.00  0.00    -0.191 C  
HETATM   23  N   UNL     1      -9.058  15.080  66.908  1.00  0.00    -0.231 N  
HETATM   24  O   UNL     1      -8.087  14.150  68.813  1.00  0.00    -0.139 OA 
HETATM   25  H   UNL     1      -9.392  14.821  65.980  1.00  0.00     0.000 HD 
BRANCH  23  26
HETATM   26  C   UNL     1      -9.240  16.421  67.281  1.00  0.00    -0.215 A  
HETATM   27  C   UNL     1      -8.272  17.424  67.060  1.00  0.00    -0.240 A  
HETATM   28  C   UNL     1      -8.569  18.745  67.437  1.00  0.00    -0.289 A  
HETATM   29  C   UNL     1      -6.948  17.197  66.385  1.00  0.00    -0.296 C  
HETATM   30  C   UNL     1      -9.808  19.079  67.976  1.00  0.00    -0.414 A  
HETATM   31  C   UNL     1     -10.774  18.096  68.154  1.00  0.00    -0.242 A  
HETATM   32  C   UNL     1     -10.505  16.763  67.812  1.00  0.00    -0.335 A  
HETATM   33  C   UNL     1     -11.550  15.716  68.095  1.00  0.00    -0.290 C  
ENDBRANCH  23  26
ENDBRANCH  21  22
ENDBRANCH  18  21
ENDBRANCH  14  15
ENDBRANCH  11  14
ENDBRANCH  10  11
ENDBRANCH   9  10
ENDBRANCH   8   9
ENDBRANCH   2   3
TORSDOF 9
ENDMDL
MODEL      137
REMARK 921   NORMALIZED FREE ENERGY PREDICTED BY IDOCK:   -4.85 KCAL/MOL
REMARK 922        TOTAL FREE ENERGY PREDICTED BY IDOCK:   -8.50 KCAL/MOL
REMARK 923 INTER-LIGAND FREE ENERGY PREDICTED BY IDOCK:   -7.38 KCAL/MOL
REMARK 924 INTRA-LIGAND FREE ENERGY PREDICTED BY IDOCK:   -1.12 KCAL/MOL
REMARK 927      BINDING AFFINITY PREDICTED BY RF-SCORE:    0.00 PKD
ROOT
HETATM    1  C   UNL     1     -11.919   6.229  72.308  1.00  0.00    -0.247 C  
HETATM    2  O   UNL     1     -10.592   6.746  72.264  1.00  0.00    -0.206 OA 
ENDROOT
BRANCH   2   3
HETATM    3  C   UNL     1      -9.596   5.889  72.650  1.00  0.00    -0.152 A  
HETATM    4  C   UNL     1      -9.351   5.624  74.010  1.00  0.00    -0.135 A  
HETATM    5  C   UNL     1      -8.329   4.762  74.403  1.00  0.00    -0.101 A  
HETATM    6  C   UNL     1      -7.542   4.141  73.440  1.00  0.00    -0.077 A  
HETATM    7  C   UNL     1      -7.795   4.371  72.089  1.00  0.00    -0.090 A  
HETATM    8  C   UNL     1      -8.827   5.226  71.675  1.00  0.00    -0.135 A  
BRANCH   8   9
HETATM    9  O   UNL     1      -8.924   5.295  70.308  1.00  0.00    -0.122 OA 
BRANCH   9  10
HETATM   10  C   UNL     1      -7.774   4.971  69.527  1.00  0.00    -0.067 C  
BRANCH  10  11
HETATM   11  C   UNL     1      -7.113   6.263  69.011  1.00  0.00    -0.081 C  
HETATM   12  H   UNL     1      -5.510   6.786  67.944  1.00  0.00     0.000 HD 
HETATM   13  O   UNL     1      -5.918   5.989  68.263  1.00  0.00    -0.018 OA 
BRANCH  11  14
HETATM   14  C   UNL     1      -8.084   7.059  68.101  1.00  0.00    -0.119 C  
BRANCH  14  15
HETATM   15  N   UNL     1      -7.688   8.457  67.836  1.00  0.00    -0.102 NA 
HETATM   16  C   UNL     1      -8.564   9.097  66.844  1.00  0.00    -0.123 C  
HETATM   17  C   UNL     1     -10.000   9.265  67.364  1.00  0.00    -0.199 C  
HETATM   18  N   UNL     1     -10.116  10.123  68.565  1.00  0.00    -0.162 NA 
HETATM   19  C   UNL     1      -9.117   9.713  69.576  1.00  0.00    -0.199 C  
HETATM   20  C   UNL     1      -7.712   9.284  69.063  1.00  0.00    -0.075 C  
BRANCH  18  21
HETATM   21  C   UNL     1     -10.007  11.557  68.195  1.00  0.00    -0.192 C  
BRANCH  21  22
HETATM   22  C   UNL     1     -11.300  12.308  68.599  1.00  0.00    -0.291 C  
HETATM   23  N   UNL     1     -11.219  12.800  69.890  1.00  0.00    -0.483 N  
HETATM   24  O   UNL     1     -12.231  12.466  67.817  1.00  0.00    -0.395 OA 
HETATM   25  H   UNL     1     -10.340  12.635  70.380  1.00  0.00     0.000 HD 
BRANCH  23  26
HETATM   26  C   UNL     1     -12.205  13.501  70.603  1.00  0.00    -0.358 A  
HETATM   27  C   UNL     1     -12.406  14.892  70.483  1.00  0.00    -0.400 A  
HETATM   28  C   UNL     1     -13.448  15.491  71.213  1.00  0.00    -0.560 A  
HETATM   29  C   UNL     1     -11.618  15.792  69.571  1.00  0.00    -0.368 C  
HETATM   30  C   UNL     1     -14.301  14.729  72.006  1.00  0.00    -0.642 A  
HETATM   31  C   UNL     1     -14.125  13.353  72.090  1.00  0.00    -0.441 A  
HETATM   32  C   UNL     1     -13.082  12.725  71.395  1.00  0.00    -0.318 A  
HETATM   33  C   UNL     1     -12.879  11.244  71.575  1.00  0.00    -0.519 C  
ENDBRANCH  23  26
ENDBRANCH  21  22
ENDBRANCH  18  21
ENDBRANCH  14  15
ENDBRANCH  11  14
ENDBRANCH  10  11
ENDBRANCH   9  10
ENDBRANCH   8   9
ENDBRANCH   2   3
TORSDOF 9
ENDMDL
MODEL      138
REMARK 921   NORMALIZED FREE ENERGY PREDICTED BY IDOCK:   -4.84 KCAL/MOL
REMARK 922        TOTAL FREE ENERGY PREDICTED BY IDOCK:   -8.48 KCAL/MOL
REMARK 923 INTER-LIGAND FREE ENERGY PREDICTED BY IDOCK:   -7.06 KCAL/MOL
REMARK 924 INTRA-LIGAND FREE ENERGY PREDICTED BY IDOCK:   -1.42 KCAL/MOL
REMARK 927      BINDING AFFINITY PREDICTED BY RF-SCORE:    0.00 PKD
ROOT
HETATM    1  C   UNL     1      -5.784  13.304  68.716  1.00  0.00    -0.074 C  
HETATM    2  O   UNL     1      -6.524  12.322  67.996  1.00  0.00    -0.063 OA 
ENDROOT
BRANCH   2   3
HETATM    3  C   UNL     1      -6.659  11.102  68.603  1.00  0.00    -0.059 A  
HETATM    4  C   UNL     1      -6.433  10.946  69.983  1.00  0.00    -0.151 A  
HETATM    5  C   UNL     1      -6.557   9.701  70.597  1.00  0.00    -0.114 A  
HETATM    6  C   UNL     1      -6.921   8.593  69.842  1.00  0.00    -0.043 A  
HETATM    7  C   UNL     1      -7.180   8.740  68.480  1.00  0.00    -0.074 A  
HETATM    8  C   UNL     1      -7.070   9.988  67.847  1.00  0.00    -0.085 A  
BRANCH   8   9
HETATM    9  O   UNL     1      -7.390   9.921  66.514  1.00  0.00    -0.096 OA 
BRANCH   9  10
HETATM   10  C   UNL     1      -8.034   8.744  66.027  1.00  0.00    -0.107 C  
BRANCH  10  11
HETATM   11  C   UNL     1      -9.498   9.061  65.668  1.00  0.00    -0.203 C  
HETATM   12  H   UNL     1     -11.284   9.036  66.557  1.00  0.00     0.000 HD 
HETATM   13  O   UNL     1     -10.381   8.841  66.779  1.00  0.00    -0.279 OA 
BRANCH  11  14
HETATM   14  C   UNL     1      -9.651  10.534  65.210  1.00  0.00    -0.249 C  
BRANCH  14  15
HETATM   15  N   UNL     1     -10.876  11.211  65.682  1.00  0.00    -0.189 NA 
HETATM   16  C   UNL     1     -10.599  12.136  66.791  1.00  0.00    -0.226 C  
HETATM   17  C   UNL     1      -9.726  13.322  66.351  1.00  0.00    -0.276 C  
HETATM   18  N   UNL     1     -10.340  14.174  65.307  1.00  0.00    -0.367 NA 
HETATM   19  C   UNL     1     -10.866  13.330  64.212  1.00  0.00    -0.392 C  
HETATM   20  C   UNL     1     -11.536  11.982  64.604  1.00  0.00    -0.308 C  
BRANCH  18  21
HETATM   21  C   UNL     1     -11.373  15.061  65.898  1.00  0.00    -0.273 C  
BRANCH  21  22
HETATM   22  C   UNL     1     -10.706  16.105  66.828  1.00  0.00    -0.235 C  
HETATM   23  N   UNL     1      -9.800  16.893  66.140  1.00  0.00    -0.304 N  
HETATM   24  O   UNL     1     -11.015  16.215  68.010  1.00  0.00    -0.331 OA 
HETATM   25  H   UNL     1      -9.712  16.710  65.140  1.00  0.00     0.000 HD 
BRANCH  23  26
HETATM   26  C   UNL     1      -8.987  17.915  66.657  1.00  0.00    -0.268 A  
HETATM   27  C   UNL     1      -9.412  19.254  66.781  1.00  0.00    -0.386 A  
HETATM   28  C   UNL     1      -8.533  20.193  67.348  1.00  0.00    -0.398 A  
HETATM   29  C   UNL     1     -10.780  19.753  66.404  1.00  0.00    -0.499 C  
HETATM   30  C   UNL     1      -7.283  19.812  67.825  1.00  0.00    -0.311 A  
HETATM   31  C   UNL     1      -6.883  18.484  67.738  1.00  0.00    -0.217 A  
HETATM   32  C   UNL     1      -7.724  17.525  67.158  1.00  0.00    -0.228 A  
HETATM   33  C   UNL     1      -7.221  16.112  67.012  1.00  0.00    -0.256 C  
ENDBRANCH  23  26
ENDBRANCH  21  22
ENDBRANCH  18  21
ENDBRANCH  14  15
ENDBRANCH  11  14
ENDBRANCH  10  11
ENDBRANCH   9  10
ENDBRANCH   8   9
ENDBRANCH   2   3
TORSDOF 9
ENDMDL
MODEL      139
REMARK 921   NORMALIZED FREE ENERGY PREDICTED BY IDOCK:   -4.82 KCAL/MOL
REMARK 922        TOTAL FREE ENERGY PREDICTED BY IDOCK:   -8.45 KCAL/MOL
REMARK 923 INTER-LIGAND FREE ENERGY PREDICTED BY IDOCK:   -7.27 KCAL/MOL
REMARK 924 INTRA-LIGAND FREE ENERGY PREDICTED BY IDOCK:   -1.18 KCAL/MOL
REMARK 927      BINDING AFFINITY PREDICTED BY RF-SCORE:    0.00 PKD
ROOT
HETATM    1  C   UNL     1     -11.336  15.955  68.874  1.00  0.00    -0.377 C  
HETATM    2  O   UNL     1     -11.148  14.892  69.805  1.00  0.00    -0.261 OA 
ENDROOT
BRANCH   2   3
HETATM    3  C   UNL     1     -11.883  14.961  70.958  1.00  0.00    -0.327 A  
HETATM    4  C   UNL     1     -11.955  16.151  71.705  1.00  0.00    -0.560 A  
HETATM    5  C   UNL     1     -12.693  16.217  72.886  1.00  0.00    -0.509 A  
HETATM    6  C   UNL     1     -13.382  15.095  73.332  1.00  0.00    -0.356 A  
HETATM    7  C   UNL     1     -13.345  13.920  72.583  1.00  0.00    -0.640 A  
HETATM    8  C   UNL     1     -12.617  13.839  71.387  1.00  0.00    -0.348 A  
BRANCH   8   9
HETATM    9  O   UNL     1     -12.731  12.607  70.794  1.00  0.00    -0.242 OA 
BRANCH   9  10
HETATM   10  C   UNL     1     -12.822  11.455  71.632  1.00  0.00    -0.391 C  
BRANCH  10  11
HETATM   11  C   UNL     1     -12.156  10.251  70.938  1.00  0.00    -0.368 C  
HETATM   12  H   UNL     1     -12.649   8.399  70.382  1.00  0.00     0.000 HD 
HETATM   13  O   UNL     1     -13.060   9.142  70.810  1.00  0.00    -0.014 OA 
BRANCH  11  14
HETATM   14  C   UNL     1     -11.653  10.634  69.523  1.00  0.00    -0.288 C  
BRANCH  14  15
HETATM   15  N   UNL     1     -10.184  10.700  69.378  1.00  0.00    -0.215 NA 
HETATM   16  C   UNL     1      -9.558   9.378  69.531  1.00  0.00    -0.180 C  
HETATM   17  C   UNL     1      -9.949   8.418  68.397  1.00  0.00    -0.187 C  
HETATM   18  N   UNL     1      -9.534   8.867  67.049  1.00  0.00    -0.157 NA 
HETATM   19  C   UNL     1      -9.919  10.281  66.847  1.00  0.00    -0.208 C  
HETATM   20  C   UNL     1      -9.779  11.243  68.062  1.00  0.00    -0.179 C  
BRANCH  18  21
HETATM   21  C   UNL     1      -8.082   8.631  66.845  1.00  0.00    -0.098 C  
BRANCH  21  22
HETATM   22  C   UNL     1      -7.833   7.145  66.485  1.00  0.00    -0.106 C  
HETATM   23  N   UNL     1      -8.617   6.742  65.418  1.00  0.00    -0.307 N  
HETATM   24  O   UNL     1      -6.995   6.466  67.070  1.00  0.00    -0.067 OA 
HETATM   25  H   UNL     1      -9.215   7.457  65.004  1.00  0.00     0.000 HD 
BRANCH  23  26
HETATM   26  C   UNL     1      -8.685   5.464  64.840  1.00  0.00    -0.096 A  
HETATM   27  C   UNL     1      -7.726   4.976  63.927  1.00  0.00    -0.079 A  
HETATM   28  C   UNL     1      -7.866   3.666  63.435  1.00  0.00    -0.072 A  
HETATM   29  C   UNL     1      -6.510   5.738  63.478  1.00  0.00    -0.032 C  
HETATM   30  C   UNL     1      -8.900   2.841  63.869  1.00  0.00    -0.090 A  
HETATM   31  C   UNL     1      -9.819   3.312  64.799  1.00  0.00    -0.093 A  
HETATM   32  C   UNL     1      -9.724   4.620  65.293  1.00  0.00    -0.149 A  
HETATM   33  C   UNL     1     -10.785   5.117  66.240  1.00  0.00    -0.272 C  
ENDBRANCH  23  26
ENDBRANCH  21  22
ENDBRANCH  18  21
ENDBRANCH  14  15
ENDBRANCH  11  14
ENDBRANCH  10  11
ENDBRANCH   9  10
ENDBRANCH   8   9
ENDBRANCH   2   3
TORSDOF 9
ENDMDL
MODEL      140
REMARK 921   NORMALIZED FREE ENERGY PREDICTED BY IDOCK:   -4.81 KCAL/MOL
REMARK 922        TOTAL FREE ENERGY PREDICTED BY IDOCK:   -8.44 KCAL/MOL
REMARK 923 INTER-LIGAND FREE ENERGY PREDICTED BY IDOCK:   -7.52 KCAL/MOL
REMARK 924 INTRA-LIGAND FREE ENERGY PREDICTED BY IDOCK:   -0.92 KCAL/MOL
REMARK 927      BINDING AFFINITY PREDICTED BY RF-SCORE:    0.00 PKD
ROOT
HETATM    1  C   UNL     1      -6.944  21.058  67.026  1.00  0.00    -0.305 C  
HETATM    2  O   UNL     1      -8.009  20.349  67.651  1.00  0.00    -0.304 OA 
ENDROOT
BRANCH   2   3
HETATM    3  C   UNL     1      -7.695  19.121  68.171  1.00  0.00    -0.293 A  
HETATM    4  C   UNL     1      -6.472  18.900  68.829  1.00  0.00    -0.274 A  
HETATM    5  C   UNL     1      -6.148  17.647  69.346  1.00  0.00    -0.242 A  
HETATM    6  C   UNL     1      -7.049  16.597  69.223  1.00  0.00    -0.212 A  
HETATM    7  C   UNL     1      -8.279  16.811  68.602  1.00  0.00    -0.252 A  
HETATM    8  C   UNL     1      -8.626  18.068  68.086  1.00  0.00    -0.273 A  
BRANCH   8   9
HETATM    9  O   UNL     1      -9.885  18.072  67.540  1.00  0.00    -0.291 OA 
BRANCH   9  10
HETATM   10  C   UNL     1     -10.010  18.035  66.119  1.00  0.00    -0.285 C  
BRANCH  10  11
HETATM   11  C   UNL     1     -11.122  17.046  65.719  1.00  0.00     0.272 C  
HETATM   12  H   UNL     1     -11.757  16.114  64.073  1.00  0.00     0.000 HD 
HETATM   13  O   UNL     1     -11.071  16.723  64.320  1.00  0.00    -1.106 OA 
BRANCH  11  14
HETATM   14  C   UNL     1     -11.010  15.728  66.526  1.00  0.00    -0.165 C  
BRANCH  14  15
HETATM   15  N   UNL     1     -11.383  14.506  65.784  1.00  0.00    -0.332 NA 
HETATM   16  C   UNL     1     -10.223  13.639  65.534  1.00  0.00    -0.302 C  
HETATM   17  C   UNL     1      -9.644  13.059  66.834  1.00  0.00    -0.243 C  
HETATM   18  N   UNL     1     -10.585  12.203  67.591  1.00  0.00    -0.206 NA 
HETATM   19  C   UNL     1     -11.891  12.886  67.724  1.00  0.00    -0.339 C  
HETATM   20  C   UNL     1     -12.399  13.707  66.505  1.00  0.00    -0.361 C  
BRANCH  18  21
HETATM   21  C   UNL     1     -10.697  10.864  66.958  1.00  0.00    -0.271 C  
BRANCH  21  22
HETATM   22  C   UNL     1     -10.414   9.759  68.006  1.00  0.00    -0.226 C  
HETATM   23  N   UNL     1      -9.501   8.833  67.535  1.00  0.00    -0.139 N  
HETATM   24  O   UNL     1     -10.922   9.777  69.123  1.00  0.00    -0.222 OA 
HETATM   25  H   UNL     1      -9.124   9.006  66.603  1.00  0.00     0.000 HD 
BRANCH  23  26
HETATM   26  C   UNL     1      -9.031   7.682  68.189  1.00  0.00    -0.126 A  
HETATM   27  C   UNL     1      -9.715   6.449  68.172  1.00  0.00    -0.122 A  
HETATM   28  C   UNL     1      -9.140   5.347  68.828  1.00  0.00    -0.135 A  
HETATM   29  C   UNL     1     -11.006   6.200  67.441  1.00  0.00    -0.409 C  
HETATM   30  C   UNL     1      -7.897   5.446  69.446  1.00  0.00    -0.089 A  
HETATM   31  C   UNL     1      -7.207   6.652  69.426  1.00  0.00    -0.090 A  
HETATM   32  C   UNL     1      -7.761   7.778  68.802  1.00  0.00    -0.113 A  
HETATM   33  C   UNL     1      -7.017   9.086  68.871  1.00  0.00    -0.065 C  
ENDBRANCH  23  26
ENDBRANCH  21  22
ENDBRANCH  18  21
ENDBRANCH  14  15
ENDBRANCH  11  14
ENDBRANCH  10  11
ENDBRANCH   9  10
ENDBRANCH   8   9
ENDBRANCH   2   3
TORSDOF 9
ENDMDL
MODEL      141
REMARK 921   NORMALIZED FREE ENERGY PREDICTED BY IDOCK:   -4.81 KCAL/MOL
REMARK 922        TOTAL FREE ENERGY PREDICTED BY IDOCK:   -8.43 KCAL/MOL
REMARK 923 INTER-LIGAND FREE ENERGY PREDICTED BY IDOCK:   -6.92 KCAL/MOL
REMARK 924 INTRA-LIGAND FREE ENERGY PREDICTED BY IDOCK:   -1.51 KCAL/MOL
REMARK 927      BINDING AFFINITY PREDICTED BY RF-SCORE:    0.00 PKD
ROOT
HETATM    1  C   UNL     1     -10.156  10.363  69.529  1.00  0.00    -0.219 C  
HETATM    2  O   UNL     1     -11.066  10.319  68.434  1.00  0.00    -0.253 OA 
ENDROOT
BRANCH   2   3
HETATM    3  C   UNL     1     -11.369  11.520  67.851  1.00  0.00    -0.303 A  
HETATM    4  C   UNL     1     -11.783  12.621  68.623  1.00  0.00    -0.364 A  
HETATM    5  C   UNL     1     -12.103  13.839  68.027  1.00  0.00    -0.315 A  
HETATM    6  C   UNL     1     -12.003  13.980  66.648  1.00  0.00    -0.473 A  
HETATM    7  C   UNL     1     -11.562  12.906  65.875  1.00  0.00    -0.423 A  
HETATM    8  C   UNL     1     -11.225  11.676  66.459  1.00  0.00    -0.294 A  
BRANCH   8   9
HETATM    9  O   UNL     1     -10.793  10.764  65.529  1.00  0.00    -0.132 OA 
BRANCH   9  10
HETATM   10  C   UNL     1     -10.337  11.245  64.266  1.00  0.00    -0.340 C  
BRANCH  10  11
HETATM   11  C   UNL     1      -9.153  10.388  63.777  1.00  0.00    -0.247 C  
HETATM   12  H   UNL     1      -7.798  10.426  62.314  1.00  0.00     0.000 HD 
HETATM   13  O   UNL     1      -8.527  10.954  62.615  1.00  0.00    -0.210 OA 
BRANCH  11  14
HETATM   14  C   UNL     1      -8.079  10.242  64.886  1.00  0.00    -0.154 C  
BRANCH  14  15
HETATM   15  N   UNL     1      -7.491   8.893  65.013  1.00  0.00    -0.095 NA 
HETATM   16  C   UNL     1      -6.678   8.761  66.231  1.00  0.00    -0.073 C  
HETATM   17  C   UNL     1      -7.528   8.862  67.507  1.00  0.00    -0.085 C  
HETATM   18  N   UNL     1      -8.559   7.807  67.637  1.00  0.00    -0.123 NA 
HETATM   19  C   UNL     1      -9.319   7.686  66.374  1.00  0.00    -0.172 C  
HETATM   20  C   UNL     1      -8.528   7.836  65.044  1.00  0.00    -0.036 C  
BRANCH  18  21
HETATM   21  C   UNL     1      -7.942   6.525  68.064  1.00  0.00    -0.109 C  
BRANCH  21  22
HETATM   22  C   UNL     1      -8.260   6.256  69.556  1.00  0.00    -0.117 C  
HETATM   23  N   UNL     1      -9.407   5.495  69.702  1.00  0.00    -0.131 N  
HETATM   24  O   UNL     1      -7.525   6.645  70.458  1.00  0.00    -0.083 OA 
HETATM   25  H   UNL     1      -9.863   5.198  68.839  1.00  0.00     0.000 HD 
BRANCH  23  26
HETATM   26  C   UNL     1     -10.016   5.085  70.899  1.00  0.00    -0.216 A  
HETATM   27  C   UNL     1      -9.627   3.930  71.609  1.00  0.00    -0.232 A  
HETATM   28  C   UNL     1     -10.278   3.629  72.819  1.00  0.00    -0.239 A  
HETATM   29  C   UNL     1      -8.510   3.012  71.198  1.00  0.00    -0.095 C  
HETATM   30  C   UNL     1     -11.254   4.472  73.340  1.00  0.00    -0.404 A  
HETATM   31  C   UNL     1     -11.607   5.630  72.658  1.00  0.00    -0.307 A  
HETATM   32  C   UNL     1     -10.996   5.950  71.437  1.00  0.00    -0.327 A  
HETATM   33  C   UNL     1     -11.463   7.173  70.691  1.00  0.00    -0.346 C  
ENDBRANCH  23  26
ENDBRANCH  21  22
ENDBRANCH  18  21
ENDBRANCH  14  15
ENDBRANCH  11  14
ENDBRANCH  10  11
ENDBRANCH   9  10
ENDBRANCH   8   9
ENDBRANCH   2   3
TORSDOF 9
ENDMDL
MODEL      142
REMARK 921   NORMALIZED FREE ENERGY PREDICTED BY IDOCK:   -4.81 KCAL/MOL
REMARK 922        TOTAL FREE ENERGY PREDICTED BY IDOCK:   -8.43 KCAL/MOL
REMARK 923 INTER-LIGAND FREE ENERGY PREDICTED BY IDOCK:   -7.64 KCAL/MOL
REMARK 924 INTRA-LIGAND FREE ENERGY PREDICTED BY IDOCK:   -0.79 KCAL/MOL
REMARK 927      BINDING AFFINITY PREDICTED BY RF-SCORE:    0.00 PKD
ROOT
HETATM    1  C   UNL     1     -12.896  11.164  71.270  1.00  0.00    -0.412 C  
HETATM    2  O   UNL     1     -11.661  11.183  70.560  1.00  0.00    -0.333 OA 
ENDROOT
BRANCH   2   3
HETATM    3  C   UNL     1     -11.673  11.815  69.345  1.00  0.00    -0.341 A  
HETATM    4  C   UNL     1     -11.955  13.190  69.242  1.00  0.00    -0.344 A  
HETATM    5  C   UNL     1     -11.979  13.829  68.004  1.00  0.00    -0.390 A  
HETATM    6  C   UNL     1     -11.709  13.106  66.849  1.00  0.00    -0.441 A  
HETATM    7  C   UNL     1     -11.396  11.751  66.940  1.00  0.00    -0.386 A  
HETATM    8  C   UNL     1     -11.356  11.093  68.179  1.00  0.00    -0.309 A  
BRANCH   8   9
HETATM    9  O   UNL     1     -11.004   9.773  68.051  1.00  0.00    -0.246 OA 
BRANCH   9  10
HETATM   10  C   UNL     1      -9.836   9.312  68.727  1.00  0.00    -0.165 C  
BRANCH  10  11
HETATM   11  C   UNL     1      -8.799   8.818  67.701  1.00  0.00    -0.135 C  
HETATM   12  H   UNL     1      -8.774   8.149  65.821  1.00  0.00     0.000 HD 
HETATM   13  O   UNL     1      -9.413   8.453  66.454  1.00  0.00    -0.196 OA 
BRANCH  11  14
HETATM   14  C   UNL     1      -7.735   9.909  67.417  1.00  0.00    -0.091 C  
BRANCH  14  15
HETATM   15  N   UNL     1      -7.437  10.803  68.555  1.00  0.00    -0.093 NA 
HETATM   16  C   UNL     1      -5.999  11.086  68.670  1.00  0.00    -0.042 C  
HETATM   17  C   UNL     1      -5.473  11.900  67.477  1.00  0.00    -0.086 C  
HETATM   18  N   UNL     1      -6.099  13.233  67.327  1.00  0.00    -0.300 NA 
HETATM   19  C   UNL     1      -7.571  13.113  67.416  1.00  0.00    -0.131 C  
HETATM   20  C   UNL     1      -8.146  12.097  68.445  1.00  0.00    -0.149 C  
BRANCH  18  21
HETATM   21  C   UNL     1      -5.538  14.187  68.318  1.00  0.00    -0.113 C  
BRANCH  21  22
HETATM   22  C   UNL     1      -6.620  15.215  68.735  1.00  0.00    -0.094 C  
HETATM   23  N   UNL     1      -6.817  16.172  67.755  1.00  0.00    -0.132 N  
HETATM   24  O   UNL     1      -7.235  15.117  69.791  1.00  0.00    -0.191 OA 
HETATM   25  H   UNL     1      -6.264  16.065  66.904  1.00  0.00     0.000 HD 
BRANCH  23  26
HETATM   26  C   UNL     1      -7.688  17.272  67.795  1.00  0.00    -0.190 A  
HETATM   27  C   UNL     1      -7.451  18.419  68.582  1.00  0.00    -0.314 A  
HETATM   28  C   UNL     1      -8.368  19.483  68.521  1.00  0.00    -0.372 A  
HETATM   29  C   UNL     1      -6.239  18.622  69.450  1.00  0.00    -0.280 C  
HETATM   30  C   UNL     1      -9.467  19.437  67.669  1.00  0.00    -0.395 A  
HETATM   31  C   UNL     1      -9.676  18.323  66.865  1.00  0.00    -0.317 A  
HETATM   32  C   UNL     1      -8.795  17.234  66.917  1.00  0.00    -0.259 A  
HETATM   33  C   UNL     1      -9.101  16.013  66.088  1.00  0.00    -0.387 C  
ENDBRANCH  23  26
ENDBRANCH  21  22
ENDBRANCH  18  21
ENDBRANCH  14  15
ENDBRANCH  11  14
ENDBRANCH  10  11
ENDBRANCH   9  10
ENDBRANCH   8   9
ENDBRANCH   2   3
TORSDOF 9
ENDMDL
MODEL      143
REMARK 921   NORMALIZED FREE ENERGY PREDICTED BY IDOCK:   -4.78 KCAL/MOL
REMARK 922        TOTAL FREE ENERGY PREDICTED BY IDOCK:   -8.39 KCAL/MOL
REMARK 923 INTER-LIGAND FREE ENERGY PREDICTED BY IDOCK:   -6.98 KCAL/MOL
REMARK 924 INTRA-LIGAND FREE ENERGY PREDICTED BY IDOCK:   -1.41 KCAL/MOL
REMARK 927      BINDING AFFINITY PREDICTED BY RF-SCORE:    0.00 PKD
ROOT
HETATM    1  C   UNL     1      -9.809  13.884  67.644  1.00  0.00    -0.236 C  
HETATM    2  O   UNL     1      -9.900  12.567  67.107  1.00  0.00    -0.205 OA 
ENDROOT
BRANCH   2   3
HETATM    3  C   UNL     1     -10.667  12.425  65.981  1.00  0.00    -0.261 A  
HETATM    4  C   UNL     1     -11.907  13.077  65.858  1.00  0.00    -0.468 A  
HETATM    5  C   UNL     1     -12.692  12.921  64.717  1.00  0.00    -0.442 A  
HETATM    6  C   UNL     1     -12.243  12.119  63.675  1.00  0.00    -0.663 A  
HETATM    7  C   UNL     1     -11.001  11.495  63.771  1.00  0.00    -0.485 A  
HETATM    8  C   UNL     1     -10.192  11.649  64.906  1.00  0.00    -0.270 A  
BRANCH   8   9
HETATM    9  O   UNL     1      -9.004  10.973  64.790  1.00  0.00    -0.175 OA 
BRANCH   9  10
HETATM   10  C   UNL     1      -8.765  10.216  63.604  1.00  0.00    -0.212 C  
BRANCH  10  11
HETATM   11  C   UNL     1      -7.265   9.887  63.488  1.00  0.00    -0.126 C  
HETATM   12  H   UNL     1      -5.734  10.342  62.291  1.00  0.00     0.000 HD 
HETATM   13  O   UNL     1      -6.660  10.544  62.362  1.00  0.00    -0.136 OA 
BRANCH  11  14
HETATM   14  C   UNL     1      -6.501  10.315  64.768  1.00  0.00    -0.105 C  
BRANCH  14  15
HETATM   15  N   UNL     1      -5.693   9.251  65.398  1.00  0.00    -0.056 NA 
HETATM   16  C   UNL     1      -5.427   9.531  66.817  1.00  0.00    -0.046 C  
HETATM   17  C   UNL     1      -6.711   9.501  67.662  1.00  0.00    -0.063 C  
HETATM   18  N   UNL     1      -7.405   8.193  67.669  1.00  0.00    -0.091 NA 
HETATM   19  C   UNL     1      -7.542   7.687  66.286  1.00  0.00    -0.088 C  
HETATM   20  C   UNL     1      -6.352   7.928  65.313  1.00  0.00    -0.041 C  
BRANCH  18  21
HETATM   21  C   UNL     1      -6.707   7.237  68.566  1.00  0.00    -0.057 C  
BRANCH  21  22
HETATM   22  C   UNL     1      -7.682   6.725  69.655  1.00  0.00    -0.110 C  
HETATM   23  N   UNL     1      -8.828   7.497  69.715  1.00  0.00    -0.141 N  
HETATM   24  O   UNL     1      -7.445   5.721  70.319  1.00  0.00    -0.077 OA 
HETATM   25  H   UNL     1      -8.893   8.260  69.041  1.00  0.00     0.000 HD 
BRANCH  23  26
HETATM   26  C   UNL     1      -9.912   7.354  70.596  1.00  0.00    -0.186 A  
HETATM   27  C   UNL     1      -9.890   7.811  71.931  1.00  0.00    -0.217 A  
HETATM   28  C   UNL     1     -11.044   7.653  72.719  1.00  0.00    -0.437 A  
HETATM   29  C   UNL     1      -8.729   8.521  72.570  1.00  0.00    -0.226 C  
HETATM   30  C   UNL     1     -12.207   7.101  72.190  1.00  0.00    -0.256 A  
HETATM   31  C   UNL     1     -12.237   6.690  70.863  1.00  0.00    -0.324 A  
HETATM   32  C   UNL     1     -11.099   6.811  70.054  1.00  0.00    -0.366 A  
HETATM   33  C   UNL     1     -11.150   6.281  68.645  1.00  0.00    -0.409 C  
ENDBRANCH  23  26
ENDBRANCH  21  22
ENDBRANCH  18  21
ENDBRANCH  14  15
ENDBRANCH  11  14
ENDBRANCH  10  11
ENDBRANCH   9  10
ENDBRANCH   8   9
ENDBRANCH   2   3
TORSDOF 9
ENDMDL
MODEL      144
REMARK 921   NORMALIZED FREE ENERGY PREDICTED BY IDOCK:   -4.77 KCAL/MOL
REMARK 922        TOTAL FREE ENERGY PREDICTED BY IDOCK:   -8.38 KCAL/MOL
REMARK 923 INTER-LIGAND FREE ENERGY PREDICTED BY IDOCK:   -7.70 KCAL/MOL
REMARK 924 INTRA-LIGAND FREE ENERGY PREDICTED BY IDOCK:   -0.68 KCAL/MOL
REMARK 927      BINDING AFFINITY PREDICTED BY RF-SCORE:    0.00 PKD
ROOT
HETATM    1  C   UNL     1     -11.384   6.218  69.304  1.00  0.00    -0.341 C  
HETATM    2  O   UNL     1     -10.626   7.353  69.713  1.00  0.00    -0.227 OA 
ENDROOT
BRANCH   2   3
HETATM    3  C   UNL     1     -10.136   7.324  70.992  1.00  0.00    -0.191 A  
HETATM    4  C   UNL     1     -10.972   7.568  72.097  1.00  0.00    -0.293 A  
HETATM    5  C   UNL     1     -10.471   7.551  73.397  1.00  0.00    -0.404 A  
HETATM    6  C   UNL     1      -9.125   7.277  73.614  1.00  0.00    -0.247 A  
HETATM    7  C   UNL     1      -8.294   7.001  72.530  1.00  0.00    -0.118 A  
HETATM    8  C   UNL     1      -8.784   7.003  71.215  1.00  0.00    -0.130 A  
BRANCH   8   9
HETATM    9  O   UNL     1      -7.812   6.683  70.301  1.00  0.00    -0.102 OA 
BRANCH   9  10
HETATM   10  C   UNL     1      -7.488   7.638  69.291  1.00  0.00    -0.094 C  
BRANCH  10  11
HETATM   11  C   UNL     1      -7.209   6.915  67.959  1.00  0.00    -0.091 C  
HETATM   12  H   UNL     1      -8.019   5.457  66.865  1.00  0.00     0.000 HD 
HETATM   13  O   UNL     1      -8.190   5.902  67.686  1.00  0.00    -0.105 OA 
BRANCH  11  14
HETATM   14  C   UNL     1      -7.202   7.917  66.775  1.00  0.00    -0.088 C  
BRANCH  14  15
HETATM   15  N   UNL     1      -8.413   7.893  65.929  1.00  0.00    -0.132 NA 
HETATM   16  C   UNL     1      -9.558   8.536  66.591  1.00  0.00    -0.227 C  
HETATM   17  C   UNL     1      -9.337  10.044  66.792  1.00  0.00    -0.160 C  
HETATM   18  N   UNL     1      -9.163  10.806  65.534  1.00  0.00    -0.194 NA 
HETATM   19  C   UNL     1      -8.176  10.128  64.666  1.00  0.00    -0.165 C  
HETATM   20  C   UNL     1      -8.198   8.573  64.633  1.00  0.00    -0.160 C  
BRANCH  18  21
HETATM   21  C   UNL     1     -10.472  11.014  64.865  1.00  0.00    -0.303 C  
BRANCH  21  22
HETATM   22  C   UNL     1     -11.283  12.100  65.615  1.00  0.00    -0.335 C  
HETATM   23  N   UNL     1     -10.504  12.762  66.549  1.00  0.00    -0.260 N  
HETATM   24  O   UNL     1     -12.454  12.342  65.342  1.00  0.00    -0.637 OA 
HETATM   25  H   UNL     1      -9.526  12.478  66.601  1.00  0.00     0.000 HD 
BRANCH  23  26
HETATM   26  C   UNL     1     -10.904  13.778  67.432  1.00  0.00    -0.277 A  
HETATM   27  C   UNL     1     -10.887  15.148  67.095  1.00  0.00    -0.320 A  
HETATM   28  C   UNL     1     -11.344  16.083  68.040  1.00  0.00    -0.266 A  
HETATM   29  C   UNL     1     -10.467  15.691  65.757  1.00  0.00    -0.383 C  
HETATM   30  C   UNL     1     -11.851  15.674  69.270  1.00  0.00    -0.378 A  
HETATM   31  C   UNL     1     -11.904  14.321  69.583  1.00  0.00    -0.370 A  
HETATM   32  C   UNL     1     -11.435  13.362  68.674  1.00  0.00    -0.345 A  
HETATM   33  C   UNL     1     -11.438  11.912  69.084  1.00  0.00    -0.356 C  
ENDBRANCH  23  26
ENDBRANCH  21  22
ENDBRANCH  18  21
ENDBRANCH  14  15
ENDBRANCH  11  14
ENDBRANCH  10  11
ENDBRANCH   9  10
ENDBRANCH   8   9
ENDBRANCH   2   3
TORSDOF 9
ENDMDL
MODEL      145
REMARK 921   NORMALIZED FREE ENERGY PREDICTED BY IDOCK:   -4.77 KCAL/MOL
REMARK 922        TOTAL FREE ENERGY PREDICTED BY IDOCK:   -8.38 KCAL/MOL
REMARK 923 INTER-LIGAND FREE ENERGY PREDICTED BY IDOCK:   -7.49 KCAL/MOL
REMARK 924 INTRA-LIGAND FREE ENERGY PREDICTED BY IDOCK:   -0.89 KCAL/MOL
REMARK 927      BINDING AFFINITY PREDICTED BY RF-SCORE:    0.00 PKD
ROOT
HETATM    1  C   UNL     1      -6.865   7.185  64.598  1.00  0.00    -0.050 C  
HETATM    2  O   UNL     1      -8.185   6.687  64.404  1.00  0.00    -0.093 OA 
ENDROOT
BRANCH   2   3
HETATM    3  C   UNL     1      -8.609   5.735  65.293  1.00  0.00    -0.129 A  
HETATM    4  C   UNL     1      -8.119   4.417  65.238  1.00  0.00    -0.102 A  
HETATM    5  C   UNL     1      -8.561   3.446  66.134  1.00  0.00    -0.119 A  
HETATM    6  C   UNL     1      -9.492   3.781  67.110  1.00  0.00    -0.234 A  
HETATM    7  C   UNL     1      -9.961   5.091  67.196  1.00  0.00    -0.226 A  
HETATM    8  C   UNL     1      -9.519   6.084  66.309  1.00  0.00    -0.127 A  
BRANCH   8   9
HETATM    9  O   UNL     1     -10.082   7.306  66.580  1.00  0.00    -0.188 OA 
BRANCH   9  10
HETATM   10  C   UNL     1      -9.540   8.083  67.647  1.00  0.00    -0.151 C  
BRANCH  10  11
HETATM   11  C   UNL     1     -10.484   9.256  67.970  1.00  0.00    -0.223 C  
HETATM   12  H   UNL     1     -11.503   9.952  69.538  1.00  0.00     0.000 HD 
HETATM   13  O   UNL     1     -10.920   9.229  69.339  1.00  0.00    -0.212 OA 
BRANCH  11  14
HETATM   14  C   UNL     1      -9.789  10.617  67.709  1.00  0.00    -0.165 C  
BRANCH  14  15
HETATM   15  N   UNL     1     -10.426  11.780  68.361  1.00  0.00    -0.208 NA 
HETATM   16  C   UNL     1      -9.633  13.006  68.193  1.00  0.00    -0.227 C  
HETATM   17  C   UNL     1      -9.569  13.457  66.725  1.00  0.00    -0.262 C  
HETATM   18  N   UNL     1     -10.886  13.787  66.132  1.00  0.00    -0.279 NA 
HETATM   19  C   UNL     1     -11.855  12.709  66.425  1.00  0.00    -0.402 C  
HETATM   20  C   UNL     1     -11.782  12.041  67.829  1.00  0.00    -0.309 C  
BRANCH  18  21
HETATM   21  C   UNL     1     -11.348  15.120  66.596  1.00  0.00    -0.234 C  
BRANCH  21  22
HETATM   22  C   UNL     1     -10.379  16.219  66.095  1.00  0.00    -0.341 C  
HETATM   23  N   UNL     1      -9.767  16.876  67.148  1.00  0.00    -0.247 N  
HETATM   24  O   UNL     1     -10.174  16.409  64.900  1.00  0.00    -0.509 OA 
HETATM   25  H   UNL     1     -10.003  16.546  68.083  1.00  0.00     0.000 HD 
BRANCH  23  26
HETATM   26  C   UNL     1      -8.859  17.946  67.078  1.00  0.00    -0.250 A  
HETATM   27  C   UNL     1      -7.466  17.771  66.945  1.00  0.00    -0.230 A  
HETATM   28  C   UNL     1      -6.647  18.910  66.846  1.00  0.00    -0.199 A  
HETATM   29  C   UNL     1      -6.780  16.436  66.837  1.00  0.00    -0.205 C  
HETATM   30  C   UNL     1      -7.194  20.189  66.830  1.00  0.00    -0.292 A  
HETATM   31  C   UNL     1      -8.570  20.356  66.921  1.00  0.00    -0.330 A  
HETATM   32  C   UNL     1      -9.415  19.245  67.045  1.00  0.00    -0.385 A  
HETATM   33  C   UNL     1     -10.894  19.474  67.220  1.00  0.00    -0.557 C  
ENDBRANCH  23  26
ENDBRANCH  21  22
ENDBRANCH  18  21
ENDBRANCH  14  15
ENDBRANCH  11  14
ENDBRANCH  10  11
ENDBRANCH   9  10
ENDBRANCH   8   9
ENDBRANCH   2   3
TORSDOF 9
ENDMDL
MODEL      146
REMARK 921   NORMALIZED FREE ENERGY PREDICTED BY IDOCK:   -4.77 KCAL/MOL
REMARK 922        TOTAL FREE ENERGY PREDICTED BY IDOCK:   -8.37 KCAL/MOL
REMARK 923 INTER-LIGAND FREE ENERGY PREDICTED BY IDOCK:   -6.86 KCAL/MOL
REMARK 924 INTRA-LIGAND FREE ENERGY PREDICTED BY IDOCK:   -1.52 KCAL/MOL
REMARK 927      BINDING AFFINITY PREDICTED BY RF-SCORE:    0.00 PKD
ROOT
HETATM    1  C   UNL     1      -8.261   5.019  72.950  1.00  0.00    -0.108 C  
HETATM    2  O   UNL     1      -9.172   4.399  72.047  1.00  0.00    -0.122 OA 
ENDROOT
BRANCH   2   3
HETATM    3  C   UNL     1     -10.183   5.191  71.569  1.00  0.00    -0.207 A  
HETATM    4  C   UNL     1     -11.077   5.836  72.443  1.00  0.00    -0.332 A  
HETATM    5  C   UNL     1     -12.113   6.630  71.955  1.00  0.00    -0.353 A  
HETATM    6  C   UNL     1     -12.264   6.802  70.585  1.00  0.00    -0.312 A  
HETATM    7  C   UNL     1     -11.364   6.194  69.710  1.00  0.00    -0.452 A  
HETATM    8  C   UNL     1     -10.309   5.400  70.183  1.00  0.00    -0.290 A  
BRANCH   8   9
HETATM    9  O   UNL     1      -9.528   4.918  69.163  1.00  0.00    -0.119 OA 
BRANCH   9  10
HETATM   10  C   UNL     1     -10.148   4.626  67.911  1.00  0.00    -0.021 C  
BRANCH  10  11
HETATM   11  C   UNL     1      -9.070   4.440  66.826  1.00  0.00    -0.128 C  
HETATM   12  H   UNL     1      -8.981   3.973  64.888  1.00  0.00     0.000 HD 
HETATM   13  O   UNL     1      -9.645   4.088  65.557  1.00  0.00    -0.165 OA 
BRANCH  11  14
HETATM   14  C   UNL     1      -8.239   5.735  66.641  1.00  0.00    -0.106 C  
BRANCH  14  15
HETATM   15  N   UNL     1      -8.921   6.815  65.900  1.00  0.00    -0.117 NA 
HETATM   16  C   UNL     1      -9.680   7.701  66.795  1.00  0.00    -0.222 C  
HETATM   17  C   UNL     1      -8.761   8.492  67.740  1.00  0.00    -0.137 C  
HETATM   18  N   UNL     1      -7.810   9.393  67.051  1.00  0.00    -0.098 NA 
HETATM   19  C   UNL     1      -7.126   8.665  65.959  1.00  0.00    -0.083 C  
HETATM   20  C   UNL     1      -7.970   7.652  65.135  1.00  0.00    -0.130 C  
BRANCH  18  21
HETATM   21  C   UNL     1      -8.501  10.620  66.581  1.00  0.00    -0.137 C  
BRANCH  21  22
HETATM   22  C   UNL     1      -8.942  11.477  67.794  1.00  0.00    -0.160 C  
HETATM   23  N   UNL     1     -10.320  11.568  67.878  1.00  0.00    -0.179 N  
HETATM   24  O   UNL     1      -8.131  11.950  68.584  1.00  0.00    -0.144 OA 
HETATM   25  H   UNL     1     -10.849  11.056  67.172  1.00  0.00     0.000 HD 
BRANCH  23  26
HETATM   26  C   UNL     1     -11.075  12.284  68.821  1.00  0.00    -0.251 A  
HETATM   27  C   UNL     1     -11.449  13.633  68.650  1.00  0.00    -0.342 A  
HETATM   28  C   UNL     1     -12.239  14.247  69.638  1.00  0.00    -0.371 A  
HETATM   29  C   UNL     1     -11.114  14.465  67.442  1.00  0.00    -0.317 C  
HETATM   30  C   UNL     1     -12.690  13.534  70.744  1.00  0.00    -0.316 A  
HETATM   31  C   UNL     1     -12.354  12.193  70.889  1.00  0.00    -0.370 A  
HETATM   32  C   UNL     1     -11.548  11.555  69.936  1.00  0.00    -0.387 A  
HETATM   33  C   UNL     1     -11.142  10.123  70.171  1.00  0.00    -0.378 C  
ENDBRANCH  23  26
ENDBRANCH  21  22
ENDBRANCH  18  21
ENDBRANCH  14  15
ENDBRANCH  11  14
ENDBRANCH  10  11
ENDBRANCH   9  10
ENDBRANCH   8   9
ENDBRANCH   2   3
TORSDOF 9
ENDMDL
MODEL      147
REMARK 921   NORMALIZED FREE ENERGY PREDICTED BY IDOCK:   -4.77 KCAL/MOL
REMARK 922        TOTAL FREE ENERGY PREDICTED BY IDOCK:   -8.37 KCAL/MOL
REMARK 923 INTER-LIGAND FREE ENERGY PREDICTED BY IDOCK:   -7.48 KCAL/MOL
REMARK 924 INTRA-LIGAND FREE ENERGY PREDICTED BY IDOCK:   -0.89 KCAL/MOL
REMARK 927      BINDING AFFINITY PREDICTED BY RF-SCORE:    0.00 PKD
ROOT
HETATM    1  C   UNL     1     -11.546  14.498  68.221  1.00  0.00    -0.329 C  
HETATM    2  O   UNL     1     -11.268  13.683  69.356  1.00  0.00    -0.249 OA 
ENDROOT
BRANCH   2   3
HETATM    3  C   UNL     1     -11.997  13.950  70.485  1.00  0.00    -0.314 A  
HETATM    4  C   UNL     1     -11.976  15.224  71.080  1.00  0.00    -0.395 A  
HETATM    5  C   UNL     1     -12.707  15.491  72.236  1.00  0.00    -0.487 A  
HETATM    6  C   UNL     1     -13.481  14.489  72.809  1.00  0.00    -0.575 A  
HETATM    7  C   UNL     1     -13.535  13.232  72.211  1.00  0.00    -0.679 A  
HETATM    8  C   UNL     1     -12.815  12.949  71.041  1.00  0.00    -0.184 A  
BRANCH   8   9
HETATM    9  O   UNL     1     -13.025  11.665  70.603  1.00  0.00    -0.094 OA 
BRANCH   9  10
HETATM   10  C   UNL     1     -12.094  10.654  70.988  1.00  0.00    -0.368 C  
BRANCH  10  11
HETATM   11  C   UNL     1     -12.779   9.643  71.925  1.00  0.00    -0.411 C  
HETATM   12  H   UNL     1     -14.384   8.456  71.911  1.00  0.00     0.000 HD 
HETATM   13  O   UNL     1     -13.961   9.080  71.333  1.00  0.00    -0.356 OA 
BRANCH  11  14
HETATM   14  C   UNL     1     -11.818   8.482  72.288  1.00  0.00    -0.383 C  
BRANCH  14  15
HETATM   15  N   UNL     1     -12.047   7.225  71.545  1.00  0.00    -0.312 NA 
HETATM   16  C   UNL     1     -11.246   7.162  70.314  1.00  0.00    -0.276 C  
HETATM   17  C   UNL     1      -9.739   7.091  70.608  1.00  0.00    -0.172 C  
HETATM   18  N   UNL     1      -9.325   5.895  71.377  1.00  0.00    -0.149 NA 
HETATM   19  C   UNL     1     -10.211   5.718  72.549  1.00  0.00    -0.188 C  
HETATM   20  C   UNL     1     -11.723   6.032  72.358  1.00  0.00    -0.271 C  
BRANCH  18  21
HETATM   21  C   UNL     1      -9.283   4.698  70.499  1.00  0.00    -0.132 C  
BRANCH  21  22
HETATM   22  C   UNL     1      -8.401   4.983  69.258  1.00  0.00    -0.082 C  
HETATM   23  N   UNL     1      -9.149   4.993  68.094  1.00  0.00    -0.111 N  
HETATM   24  O   UNL     1      -7.201   5.217  69.354  1.00  0.00    -0.058 OA 
HETATM   25  H   UNL     1     -10.152   4.845  68.203  1.00  0.00     0.000 HD 
BRANCH  23  26
HETATM   26  C   UNL     1      -8.688   5.184  66.781  1.00  0.00    -0.108 A  
HETATM   27  C   UNL     1      -8.340   4.121  65.921  1.00  0.00    -0.109 A  
HETATM   28  C   UNL     1      -7.926   4.419  64.611  1.00  0.00    -0.090 A  
HETATM   29  C   UNL     1      -8.438   2.664  66.283  1.00  0.00    -0.098 C  
HETATM   30  C   UNL     1      -7.902   5.730  64.145  1.00  0.00    -0.118 A  
HETATM   31  C   UNL     1      -8.284   6.771  64.982  1.00  0.00    -0.096 A  
HETATM   32  C   UNL     1      -8.680   6.513  66.302  1.00  0.00    -0.148 A  
HETATM   33  C   UNL     1      -9.011   7.677  67.200  1.00  0.00    -0.137 C  
ENDBRANCH  23  26
ENDBRANCH  21  22
ENDBRANCH  18  21
ENDBRANCH  14  15
ENDBRANCH  11  14
ENDBRANCH  10  11
ENDBRANCH   9  10
ENDBRANCH   8   9
ENDBRANCH   2   3
TORSDOF 9
ENDMDL
MODEL      148
REMARK 921   NORMALIZED FREE ENERGY PREDICTED BY IDOCK:   -4.77 KCAL/MOL
REMARK 922        TOTAL FREE ENERGY PREDICTED BY IDOCK:   -8.37 KCAL/MOL
REMARK 923 INTER-LIGAND FREE ENERGY PREDICTED BY IDOCK:   -7.47 KCAL/MOL
REMARK 924 INTRA-LIGAND FREE ENERGY PREDICTED BY IDOCK:   -0.91 KCAL/MOL
REMARK 927      BINDING AFFINITY PREDICTED BY RF-SCORE:    0.00 PKD
ROOT
HETATM    1  C   UNL     1      -6.112  18.313  67.892  1.00  0.00    -0.175 C  
HETATM    2  O   UNL     1      -7.317  17.553  67.878  1.00  0.00    -0.194 OA 
ENDROOT
BRANCH   2   3
HETATM    3  C   UNL     1      -8.473  18.256  67.665  1.00  0.00    -0.255 A  
HETATM    4  C   UNL     1      -8.799  19.376  68.450  1.00  0.00    -0.397 A  
HETATM    5  C   UNL     1      -9.982  20.082  68.241  1.00  0.00    -0.508 A  
HETATM    6  C   UNL     1     -10.853  19.686  67.233  1.00  0.00    -0.519 A  
HETATM    7  C   UNL     1     -10.525  18.597  66.427  1.00  0.00    -0.463 A  
HETATM    8  C   UNL     1      -9.334  17.881  66.616  1.00  0.00    -0.286 A  
BRANCH   8   9
HETATM    9  O   UNL     1      -9.191  16.866  65.704  1.00  0.00    -0.512 OA 
BRANCH   9  10
HETATM   10  C   UNL     1     -10.088  15.758  65.773  1.00  0.00    -0.371 C  
BRANCH  10  11
HETATM   11  C   UNL     1      -9.305  14.470  66.087  1.00  0.00    -0.209 C  
HETATM   12  H   UNL     1      -7.636  13.944  67.047  1.00  0.00     0.000 HD 
HETATM   13  O   UNL     1      -8.120  14.739  66.853  1.00  0.00    -0.182 OA 
BRANCH  11  14
HETATM   14  C   UNL     1     -10.180  13.467  66.882  1.00  0.00    -0.252 C  
BRANCH  14  15
HETATM   15  N   UNL     1      -9.430  12.518  67.729  1.00  0.00    -0.190 NA 
HETATM   16  C   UNL     1     -10.283  11.912  68.763  1.00  0.00    -0.143 C  
HETATM   17  C   UNL     1     -11.371  11.011  68.158  1.00  0.00    -0.307 C  
HETATM   18  N   UNL     1     -10.849   9.858  67.390  1.00  0.00    -0.269 NA 
HETATM   19  C   UNL     1      -9.803  10.311  66.448  1.00  0.00    -0.217 C  
HETATM   20  C   UNL     1      -8.829  11.421  66.938  1.00  0.00    -0.173 C  
BRANCH  18  21
HETATM   21  C   UNL     1     -10.376   8.791  68.308  1.00  0.00    -0.207 C  
BRANCH  21  22
HETATM   22  C   UNL     1     -10.336   7.433  67.565  1.00  0.00    -0.251 C  
HETATM   23  N   UNL     1      -9.081   6.853  67.631  1.00  0.00    -0.119 N  
HETATM   24  O   UNL     1     -11.335   6.947  67.044  1.00  0.00    -0.304 OA 
HETATM   25  H   UNL     1      -8.377   7.364  68.165  1.00  0.00     0.000 HD 
BRANCH  23  26
HETATM   26  C   UNL     1      -8.663   5.645  67.050  1.00  0.00    -0.108 A  
HETATM   27  C   UNL     1      -8.884   4.384  67.642  1.00  0.00    -0.121 A  
HETATM   28  C   UNL     1      -8.459   3.232  66.958  1.00  0.00    -0.104 A  
HETATM   29  C   UNL     1      -9.606   4.168  68.944  1.00  0.00    -0.222 C  
HETATM   30  C   UNL     1      -7.874   3.317  65.698  1.00  0.00    -0.085 A  
HETATM   31  C   UNL     1      -7.695   4.559  65.100  1.00  0.00    -0.085 A  
HETATM   32  C   UNL     1      -8.085   5.731  65.763  1.00  0.00    -0.116 A  
HETATM   33  C   UNL     1      -7.801   7.060  65.113  1.00  0.00    -0.124 C  
ENDBRANCH  23  26
ENDBRANCH  21  22
ENDBRANCH  18  21
ENDBRANCH  14  15
ENDBRANCH  11  14
ENDBRANCH  10  11
ENDBRANCH   9  10
ENDBRANCH   8   9
ENDBRANCH   2   3
TORSDOF 9
ENDMDL
MODEL      149
REMARK 921   NORMALIZED FREE ENERGY PREDICTED BY IDOCK:   -4.76 KCAL/MOL
REMARK 922        TOTAL FREE ENERGY PREDICTED BY IDOCK:   -8.35 KCAL/MOL
REMARK 923 INTER-LIGAND FREE ENERGY PREDICTED BY IDOCK:   -7.46 KCAL/MOL
REMARK 924 INTRA-LIGAND FREE ENERGY PREDICTED BY IDOCK:   -0.89 KCAL/MOL
REMARK 927      BINDING AFFINITY PREDICTED BY RF-SCORE:    0.00 PKD
ROOT
HETATM    1  C   UNL     1      -6.389  18.236  68.527  1.00  0.00    -0.213 C  
HETATM    2  O   UNL     1      -7.638  17.553  68.470  1.00  0.00    -0.246 OA 
ENDROOT
BRANCH   2   3
HETATM    3  C   UNL     1      -8.684  18.251  67.927  1.00  0.00    -0.265 A  
HETATM    4  C   UNL     1      -9.183  19.412  68.545  1.00  0.00    -0.429 A  
HETATM    5  C   UNL     1     -10.256  20.114  67.999  1.00  0.00    -0.493 A  
HETATM    6  C   UNL     1     -10.841  19.671  66.819  1.00  0.00    -0.489 A  
HETATM    7  C   UNL     1     -10.335  18.540  66.180  1.00  0.00    -0.457 A  
HETATM    8  C   UNL     1      -9.248  17.828  66.709  1.00  0.00    -0.273 A  
BRANCH   8   9
HETATM    9  O   UNL     1      -8.892  16.766  65.917  1.00  0.00    -0.499 OA 
BRANCH   9  10
HETATM   10  C   UNL     1      -9.841  15.719  65.715  1.00  0.00    -0.348 C  
BRANCH  10  11
HETATM   11  C   UNL     1      -9.313  14.410  66.331  1.00  0.00    -0.258 C  
HETATM   12  H   UNL     1      -7.879  13.836  67.594  1.00  0.00     0.000 HD 
HETATM   13  O   UNL     1      -8.205  14.644  67.214  1.00  0.00    -0.190 OA 
BRANCH  11  14
HETATM   14  C   UNL     1     -10.426  13.683  67.129  1.00  0.00    -0.264 C  
BRANCH  14  15
HETATM   15  N   UNL     1     -10.099  13.401  68.541  1.00  0.00    -0.230 NA 
HETATM   16  C   UNL     1     -11.301  13.372  69.388  1.00  0.00    -0.226 C  
HETATM   17  C   UNL     1     -12.229  12.199  69.033  1.00  0.00    -0.002 C  
HETATM   18  N   UNL     1     -11.619  10.863  69.216  1.00  0.00    -0.292 NA 
HETATM   19  C   UNL     1     -10.281  10.829  68.586  1.00  0.00    -0.185 C  
HETATM   20  C   UNL     1      -9.401  12.106  68.703  1.00  0.00    -0.025 C  
BRANCH  18  21
HETATM   21  C   UNL     1     -11.587  10.496  70.655  1.00  0.00    -0.352 C  
BRANCH  21  22
HETATM   22  C   UNL     1     -10.950   9.096  70.831  1.00  0.00    -0.282 C  
HETATM   23  N   UNL     1      -9.819   9.148  71.626  1.00  0.00    -0.286 N  
HETATM   24  O   UNL     1     -11.455   8.087  70.348  1.00  0.00    -0.241 OA 
HETATM   25  H   UNL     1      -9.575  10.064  72.003  1.00  0.00     0.000 HD 
BRANCH  23  26
HETATM   26  C   UNL     1      -8.967   8.088  71.975  1.00  0.00    -0.156 A  
HETATM   27  C   UNL     1      -9.204   7.233  73.072  1.00  0.00    -0.190 A  
HETATM   28  C   UNL     1      -8.308   6.176  73.313  1.00  0.00    -0.117 A  
HETATM   29  C   UNL     1     -10.395   7.329  73.986  1.00  0.00    -0.142 C  
HETATM   30  C   UNL     1      -7.232   5.938  72.464  1.00  0.00    -0.086 A  
HETATM   31  C   UNL     1      -7.025   6.757  71.360  1.00  0.00    -0.070 A  
HETATM   32  C   UNL     1      -7.884   7.835  71.103  1.00  0.00    -0.089 A  
HETATM   33  C   UNL     1      -7.578   8.745  69.942  1.00  0.00    -0.065 C  
ENDBRANCH  23  26
ENDBRANCH  21  22
ENDBRANCH  18  21
ENDBRANCH  14  15
ENDBRANCH  11  14
ENDBRANCH  10  11
ENDBRANCH   9  10
ENDBRANCH   8   9
ENDBRANCH   2   3
TORSDOF 9
ENDMDL
MODEL      150
REMARK 921   NORMALIZED FREE ENERGY PREDICTED BY IDOCK:   -4.75 KCAL/MOL
REMARK 922        TOTAL FREE ENERGY PREDICTED BY IDOCK:   -8.34 KCAL/MOL
REMARK 923 INTER-LIGAND FREE ENERGY PREDICTED BY IDOCK:   -7.92 KCAL/MOL
REMARK 924 INTRA-LIGAND FREE ENERGY PREDICTED BY IDOCK:   -0.42 KCAL/MOL
REMARK 927      BINDING AFFINITY PREDICTED BY RF-SCORE:    0.00 PKD
ROOT
HETATM    1  C   UNL     1      -9.518   8.735  71.762  1.00  0.00    -0.293 C  
HETATM    2  O   UNL     1     -10.585   8.948  70.843  1.00  0.00    -0.204 OA 
ENDROOT
BRANCH   2   3
HETATM    3  C   UNL     1     -11.837   8.605  71.279  1.00  0.00    -0.295 A  
HETATM    4  C   UNL     1     -12.711   9.568  71.815  1.00  0.00    -0.492 A  
HETATM    5  C   UNL     1     -13.980   9.215  72.271  1.00  0.00    -0.489 A  
HETATM    6  C   UNL     1     -14.400   7.893  72.186  1.00  0.00    -0.417 A  
HETATM    7  C   UNL     1     -13.556   6.935  71.627  1.00  0.00    -0.275 A  
HETATM    8  C   UNL     1     -12.280   7.274  71.153  1.00  0.00    -0.340 A  
BRANCH   8   9
HETATM    9  O   UNL     1     -11.622   6.194  70.620  1.00  0.00    -0.321 OA 
BRANCH   9  10
HETATM   10  C   UNL     1     -11.045   6.322  69.322  1.00  0.00    -0.393 C  
BRANCH  10  11
HETATM   11  C   UNL     1      -9.524   6.092  69.401  1.00  0.00    -0.134 C  
HETATM   12  H   UNL     1      -8.266   4.573  69.707  1.00  0.00     0.000 HD 
HETATM   13  O   UNL     1      -9.204   4.715  69.658  1.00  0.00    -0.105 OA 
BRANCH  11  14
HETATM   14  C   UNL     1      -8.828   6.514  68.081  1.00  0.00    -0.115 C  
BRANCH  14  15
HETATM   15  N   UNL     1      -9.626   7.402  67.211  1.00  0.00    -0.143 NA 
HETATM   16  C   UNL     1      -9.871   8.709  67.838  1.00  0.00    -0.173 C  
HETATM   17  C   UNL     1      -8.576   9.516  68.019  1.00  0.00    -0.120 C  
HETATM   18  N   UNL     1      -7.880   9.841  66.753  1.00  0.00    -0.102 NA 
HETATM   19  C   UNL     1      -7.762   8.627  65.916  1.00  0.00    -0.101 C  
HETATM   20  C   UNL     1      -8.966   7.642  65.908  1.00  0.00    -0.103 C  
BRANCH  18  21
HETATM   21  C   UNL     1      -8.564  10.959  66.054  1.00  0.00    -0.177 C  
BRANCH  21  22
HETATM   22  C   UNL     1      -8.805  12.130  67.038  1.00  0.00    -0.203 C  
HETATM   23  N   UNL     1     -10.070  12.671  66.885  1.00  0.00    -0.227 N  
HETATM   24  O   UNL     1      -7.966  12.464  67.868  1.00  0.00    -0.131 OA 
HETATM   25  H   UNL     1     -10.668  12.227  66.188  1.00  0.00     0.000 HD 
BRANCH  23  26
HETATM   26  C   UNL     1     -10.625  13.759  67.576  1.00  0.00    -0.244 A  
HETATM   27  C   UNL     1     -10.589  15.084  67.092  1.00  0.00    -0.295 A  
HETATM   28  C   UNL     1     -11.210  16.096  67.845  1.00  0.00    -0.245 A  
HETATM   29  C   UNL     1      -9.981  15.496  65.780  1.00  0.00    -0.391 C  
HETATM   30  C   UNL     1     -11.891  15.803  69.022  1.00  0.00    -0.367 A  
HETATM   31  C   UNL     1     -11.960  14.491  69.475  1.00  0.00    -0.363 A  
HETATM   32  C   UNL     1     -11.332  13.459  68.763  1.00  0.00    -0.332 A  
HETATM   33  C   UNL     1     -11.364  12.063  69.329  1.00  0.00    -0.330 C  
ENDBRANCH  23  26
ENDBRANCH  21  22
ENDBRANCH  18  21
ENDBRANCH  14  15
ENDBRANCH  11  14
ENDBRANCH  10  11
ENDBRANCH   9  10
ENDBRANCH   8   9
ENDBRANCH   2   3
TORSDOF 9
ENDMDL
MODEL      151
REMARK 921   NORMALIZED FREE ENERGY PREDICTED BY IDOCK:   -4.74 KCAL/MOL
REMARK 922        TOTAL FREE ENERGY PREDICTED BY IDOCK:   -8.33 KCAL/MOL
REMARK 923 INTER-LIGAND FREE ENERGY PREDICTED BY IDOCK:   -7.26 KCAL/MOL
REMARK 924 INTRA-LIGAND FREE ENERGY PREDICTED BY IDOCK:   -1.07 KCAL/MOL
REMARK 927      BINDING AFFINITY PREDICTED BY RF-SCORE:    0.00 PKD
ROOT
HETATM    1  C   UNL     1     -10.086   4.251  66.374  1.00  0.00    -0.152 C  
HETATM    2  O   UNL     1     -10.229   5.667  66.450  1.00  0.00    -0.190 OA 
ENDROOT
BRANCH   2   3
HETATM    3  C   UNL     1      -9.076   6.383  66.637  1.00  0.00    -0.146 A  
HETATM    4  C   UNL     1      -7.859   5.739  66.923  1.00  0.00    -0.101 A  
HETATM    5  C   UNL     1      -6.689   6.469  67.126  1.00  0.00    -0.060 A  
HETATM    6  C   UNL     1      -6.716   7.855  67.035  1.00  0.00    -0.068 A  
HETATM    7  C   UNL     1      -7.910   8.503  66.720  1.00  0.00    -0.091 A  
HETATM    8  C   UNL     1      -9.094   7.784  66.501  1.00  0.00    -0.170 A  
BRANCH   8   9
HETATM    9  O   UNL     1     -10.146   8.605  66.181  1.00  0.00    -0.250 OA 
BRANCH   9  10
HETATM   10  C   UNL     1     -10.045   9.993  66.495  1.00  0.00    -0.232 C  
BRANCH  10  11
HETATM   11  C   UNL     1     -10.956  10.325  67.692  1.00  0.00    -0.294 C  
HETATM   12  H   UNL     1     -10.895  10.201  69.683  1.00  0.00     0.000 HD 
HETATM   13  O   UNL     1     -10.333   9.997  68.944  1.00  0.00    -0.182 OA 
BRANCH  11  14
HETATM   14  C   UNL     1     -11.321  11.832  67.711  1.00  0.00    -0.289 C  
BRANCH  14  15
HETATM   15  N   UNL     1     -10.382  12.712  66.985  1.00  0.00    -0.232 NA 
HETATM   16  C   UNL     1     -11.087  13.686  66.138  1.00  0.00    -0.295 C  
HETATM   17  C   UNL     1     -11.895  14.695  66.968  1.00  0.00    -0.337 C  
HETATM   18  N   UNL     1     -11.076  15.526  67.881  1.00  0.00    -0.313 NA 
HETATM   19  C   UNL     1     -10.150  14.667  68.650  1.00  0.00    -0.238 C  
HETATM   20  C   UNL     1      -9.501  13.465  67.905  1.00  0.00    -0.216 C  
BRANCH  18  21
HETATM   21  C   UNL     1     -10.378  16.597  67.126  1.00  0.00    -0.300 C  
BRANCH  21  22
HETATM   22  C   UNL     1      -9.621  17.528  68.106  1.00  0.00    -0.294 C  
HETATM   23  N   UNL     1      -8.269  17.578  67.817  1.00  0.00    -0.215 N  
HETATM   24  O   UNL     1     -10.203  18.162  68.979  1.00  0.00    -0.381 OA 
HETATM   25  H   UNL     1      -7.960  17.037  67.009  1.00  0.00     0.000 HD 
BRANCH  23  26
HETATM   26  C   UNL     1      -7.272  18.287  68.507  1.00  0.00    -0.283 A  
HETATM   27  C   UNL     1      -7.082  19.679  68.379  1.00  0.00    -0.344 A  
HETATM   28  C   UNL     1      -6.078  20.298  69.144  1.00  0.00    -0.370 A  
HETATM   29  C   UNL     1      -7.925  20.578  67.518  1.00  0.00    -0.306 C  
HETATM   30  C   UNL     1      -5.311  19.570  70.049  1.00  0.00    -0.230 A  
HETATM   31  C   UNL     1      -5.529  18.206  70.203  1.00  0.00    -0.249 A  
HETATM   32  C   UNL     1      -6.505  17.551  69.439  1.00  0.00    -0.230 A  
HETATM   33  C   UNL     1      -6.654  16.059  69.579  1.00  0.00    -0.201 C  
ENDBRANCH  23  26
ENDBRANCH  21  22
ENDBRANCH  18  21
ENDBRANCH  14  15
ENDBRANCH  11  14
ENDBRANCH  10  11
ENDBRANCH   9  10
ENDBRANCH   8   9
ENDBRANCH   2   3
TORSDOF 9
ENDMDL
MODEL      152
REMARK 921   NORMALIZED FREE ENERGY PREDICTED BY IDOCK:   -4.74 KCAL/MOL
REMARK 922        TOTAL FREE ENERGY PREDICTED BY IDOCK:   -8.33 KCAL/MOL
REMARK 923 INTER-LIGAND FREE ENERGY PREDICTED BY IDOCK:   -7.32 KCAL/MOL
REMARK 924 INTRA-LIGAND FREE ENERGY PREDICTED BY IDOCK:   -1.00 KCAL/MOL
REMARK 927      BINDING AFFINITY PREDICTED BY RF-SCORE:    0.00 PKD
ROOT
HETATM    1  C   UNL     1      -8.544   7.645  73.678  1.00  0.00    -0.213 C  
HETATM    2  O   UNL     1      -9.205   8.459  72.713  1.00  0.00    -0.260 OA 
ENDROOT
BRANCH   2   3
HETATM    3  C   UNL     1     -10.443   8.034  72.309  1.00  0.00    -0.279 A  
HETATM    4  C   UNL     1     -10.988   6.826  72.782  1.00  0.00    -0.303 A  
HETATM    5  C   UNL     1     -12.241   6.388  72.361  1.00  0.00    -0.115 A  
HETATM    6  C   UNL     1     -12.977   7.158  71.467  1.00  0.00    -0.431 A  
HETATM    7  C   UNL     1     -12.462   8.372  71.017  1.00  0.00    -0.101 A  
HETATM    8  C   UNL     1     -11.206   8.834  71.439  1.00  0.00    -0.292 A  
BRANCH   8   9
HETATM    9  O   UNL     1     -10.898  10.058  70.899  1.00  0.00    -0.319 OA 
BRANCH   9  10
HETATM   10  C   UNL     1     -11.359  10.357  69.583  1.00  0.00    -0.272 C  
BRANCH  10  11
HETATM   11  C   UNL     1     -10.298   9.935  68.549  1.00  0.00    -0.196 C  
HETATM   12  H   UNL     1     -10.147   9.747  66.569  1.00  0.00     0.000 HD 
HETATM   13  O   UNL     1     -10.801  10.007  67.206  1.00  0.00    -0.270 OA 
BRANCH  11  14
HETATM   14  C   UNL     1      -9.040  10.837  68.646  1.00  0.00    -0.173 C  
BRANCH  14  15
HETATM   15  N   UNL     1      -8.746  11.631  67.435  1.00  0.00    -0.150 NA 
HETATM   16  C   UNL     1      -9.137  13.039  67.594  1.00  0.00    -0.198 C  
HETATM   17  C   UNL     1      -8.295  13.757  68.661  1.00  0.00    -0.067 C  
HETATM   18  N   UNL     1      -6.847  13.810  68.358  1.00  0.00    -0.090 NA 
HETATM   19  C   UNL     1      -6.364  12.469  67.962  1.00  0.00    -0.087 C  
HETATM   20  C   UNL     1      -7.308  11.597  67.085  1.00  0.00    -0.143 C  
BRANCH  18  21
HETATM   21  C   UNL     1      -6.566  14.849  67.334  1.00  0.00    -0.007 C  
BRANCH  21  22
HETATM   22  C   UNL     1      -7.181  16.201  67.771  1.00  0.00    -0.138 C  
HETATM   23  N   UNL     1      -8.046  16.699  66.812  1.00  0.00    -0.217 N  
HETATM   24  O   UNL     1      -6.941  16.702  68.865  1.00  0.00    -0.175 OA 
HETATM   25  H   UNL     1      -8.183  16.119  65.985  1.00  0.00     0.000 HD 
BRANCH  23  26
HETATM   26  C   UNL     1      -8.757  17.910  66.846  1.00  0.00    -0.246 A  
HETATM   27  C   UNL     1      -8.225  19.133  66.386  1.00  0.00    -0.323 A  
HETATM   28  C   UNL     1      -9.035  20.282  66.429  1.00  0.00    -0.290 A  
HETATM   29  C   UNL     1      -6.856  19.295  65.786  1.00  0.00    -0.306 C  
HETATM   30  C   UNL     1     -10.354  20.216  66.869  1.00  0.00    -0.503 A  
HETATM   31  C   UNL     1     -10.887  19.002  67.284  1.00  0.00    -0.494 A  
HETATM   32  C   UNL     1     -10.102  17.841  67.277  1.00  0.00    -0.337 A  
HETATM   33  C   UNL     1     -10.694  16.561  67.808  1.00  0.00    -0.329 C  
ENDBRANCH  23  26
ENDBRANCH  21  22
ENDBRANCH  18  21
ENDBRANCH  14  15
ENDBRANCH  11  14
ENDBRANCH  10  11
ENDBRANCH   9  10
ENDBRANCH   8   9
ENDBRANCH   2   3
TORSDOF 9
ENDMDL
MODEL      153
REMARK 921   NORMALIZED FREE ENERGY PREDICTED BY IDOCK:   -4.73 KCAL/MOL
REMARK 922        TOTAL FREE ENERGY PREDICTED BY IDOCK:   -8.31 KCAL/MOL
REMARK 923 INTER-LIGAND FREE ENERGY PREDICTED BY IDOCK:   -7.02 KCAL/MOL
REMARK 924 INTRA-LIGAND FREE ENERGY PREDICTED BY IDOCK:   -1.29 KCAL/MOL
REMARK 927      BINDING AFFINITY PREDICTED BY RF-SCORE:    0.00 PKD
ROOT
HETATM    1  C   UNL     1     -10.352  15.795  65.475  1.00  0.00    -0.404 C  
HETATM    2  O   UNL     1      -9.957  14.426  65.457  1.00  0.00    -0.339 OA 
ENDROOT
BRANCH   2   3
HETATM    3  C   UNL     1     -10.767  13.572  64.756  1.00  0.00    -0.401 A  
HETATM    4  C   UNL     1     -11.917  14.038  64.094  1.00  0.00    -0.439 A  
HETATM    5  C   UNL     1     -12.747  13.167  63.393  1.00  0.00     0.009 A  
HETATM    6  C   UNL     1     -12.433  11.814  63.332  1.00  0.00    -0.490 A  
HETATM    7  C   UNL     1     -11.278  11.345  63.956  1.00  0.00    -0.350 A  
HETATM    8  C   UNL     1     -10.425  12.210  64.657  1.00  0.00    -0.299 A  
BRANCH   8   9
HETATM    9  O   UNL     1      -9.336  11.555  65.174  1.00  0.00    -0.201 OA 
BRANCH   9  10
HETATM   10  C   UNL     1      -9.216  10.151  64.947  1.00  0.00    -0.232 C  
BRANCH  10  11
HETATM   11  C   UNL     1      -8.923   9.430  66.276  1.00  0.00    -0.156 C  
HETATM   12  H   UNL     1      -9.281   7.654  67.112  1.00  0.00     0.000 HD 
HETATM   13  O   UNL     1      -9.462   8.099  66.292  1.00  0.00    -0.208 OA 
BRANCH  11  14
HETATM   14  C   UNL     1      -7.396   9.340  66.534  1.00  0.00    -0.092 C  
BRANCH  14  15
HETATM   15  N   UNL     1      -6.973   9.690  67.905  1.00  0.00    -0.078 NA 
HETATM   16  C   UNL     1      -5.782  10.552  67.908  1.00  0.00    -0.043 C  
HETATM   17  C   UNL     1      -6.067  11.934  67.298  1.00  0.00    -0.141 C  
HETATM   18  N   UNL     1      -7.091  12.719  68.024  1.00  0.00    -0.097 NA 
HETATM   19  C   UNL     1      -8.281  11.880  68.282  1.00  0.00    -0.157 C  
HETATM   20  C   UNL     1      -8.040  10.389  68.655  1.00  0.00    -0.118 C  
BRANCH  18  21
HETATM   21  C   UNL     1      -6.519  13.305  69.262  1.00  0.00    -0.107 C  
BRANCH  21  22
HETATM   22  C   UNL     1      -6.820  14.823  69.318  1.00  0.00    -0.144 C  
HETATM   23  N   UNL     1      -7.892  15.159  68.510  1.00  0.00    -0.129 N  
HETATM   24  O   UNL     1      -6.191  15.584  70.046  1.00  0.00    -0.157 OA 
HETATM   25  H   UNL     1      -8.346  14.388  68.021  1.00  0.00     0.000 HD 
BRANCH  23  26
HETATM   26  C   UNL     1      -8.427  16.437  68.284  1.00  0.00    -0.195 A  
HETATM   27  C   UNL     1      -7.858  17.368  67.390  1.00  0.00    -0.212 A  
HETATM   28  C   UNL     1      -8.495  18.608  67.208  1.00  0.00    -0.275 A  
HETATM   29  C   UNL     1      -6.634  17.109  66.555  1.00  0.00    -0.277 C  
HETATM   30  C   UNL     1      -9.690  18.905  67.855  1.00  0.00    -0.376 A  
HETATM   31  C   UNL     1     -10.270  17.970  68.704  1.00  0.00    -0.385 A  
HETATM   32  C   UNL     1      -9.651  16.732  68.928  1.00  0.00    -0.249 A  
HETATM   33  C   UNL     1     -10.271  15.779  69.916  1.00  0.00    -0.277 C  
ENDBRANCH  23  26
ENDBRANCH  21  22
ENDBRANCH  18  21
ENDBRANCH  14  15
ENDBRANCH  11  14
ENDBRANCH  10  11
ENDBRANCH   9  10
ENDBRANCH   8   9
ENDBRANCH   2   3
TORSDOF 9
ENDMDL
MODEL      154
REMARK 921   NORMALIZED FREE ENERGY PREDICTED BY IDOCK:   -4.72 KCAL/MOL
REMARK 922        TOTAL FREE ENERGY PREDICTED BY IDOCK:   -8.29 KCAL/MOL
REMARK 923 INTER-LIGAND FREE ENERGY PREDICTED BY IDOCK:   -7.17 KCAL/MOL
REMARK 924 INTRA-LIGAND FREE ENERGY PREDICTED BY IDOCK:   -1.12 KCAL/MOL
REMARK 927      BINDING AFFINITY PREDICTED BY RF-SCORE:    0.00 PKD
ROOT
HETATM    1  C   UNL     1     -12.165  14.177  69.483  1.00  0.00    -0.305 C  
HETATM    2  O   UNL     1     -11.668  13.300  68.476  1.00  0.00    -0.310 OA 
ENDROOT
BRANCH   2   3
HETATM    3  C   UNL     1     -11.425  13.861  67.251  1.00  0.00    -0.344 A  
HETATM    4  C   UNL     1     -12.400  13.845  66.237  1.00  0.00    -0.489 A  
HETATM    5  C   UNL     1     -12.147  14.405  64.986  1.00  0.00    -0.417 A  
HETATM    6  C   UNL     1     -10.917  15.001  64.733  1.00  0.00    -0.389 A  
HETATM    7  C   UNL     1      -9.955  15.053  65.740  1.00  0.00    -0.376 A  
HETATM    8  C   UNL     1     -10.196  14.504  67.009  1.00  0.00    -0.262 A  
BRANCH   8   9
HETATM    9  O   UNL     1      -9.134  14.682  67.859  1.00  0.00    -0.180 OA 
BRANCH   9  10
HETATM   10  C   UNL     1      -7.815  14.501  67.346  1.00  0.00    -0.199 C  
BRANCH  10  11
HETATM   11  C   UNL     1      -7.490  12.998  67.257  1.00  0.00    -0.074 C  
HETATM   12  H   UNL     1      -5.876  11.834  67.115  1.00  0.00     0.000 HD 
HETATM   13  O   UNL     1      -6.076  12.761  67.170  1.00  0.00    -0.289 OA 
BRANCH  11  14
HETATM   14  C   UNL     1      -8.035  12.238  68.494  1.00  0.00    -0.107 C  
BRANCH  14  15
HETATM   15  N   UNL     1      -8.986  11.149  68.189  1.00  0.00    -0.152 NA 
HETATM   16  C   UNL     1      -8.348  10.058  67.438  1.00  0.00    -0.118 C  
HETATM   17  C   UNL     1      -7.282   9.329  68.271  1.00  0.00    -0.077 C  
HETATM   18  N   UNL     1      -7.805   8.677  69.493  1.00  0.00    -0.093 NA 
HETATM   19  C   UNL     1      -8.661   9.623  70.242  1.00  0.00    -0.208 C  
HETATM   20  C   UNL     1      -9.578  10.569  69.415  1.00  0.00    -0.148 C  
BRANCH  18  21
HETATM   21  C   UNL     1      -8.505   7.413  69.151  1.00  0.00    -0.133 C  
BRANCH  21  22
HETATM   22  C   UNL     1      -8.570   6.490  70.394  1.00  0.00    -0.146 C  
HETATM   23  N   UNL     1      -9.728   5.734  70.406  1.00  0.00    -0.171 N  
HETATM   24  O   UNL     1      -7.655   6.434  71.210  1.00  0.00    -0.091 OA 
HETATM   25  H   UNL     1     -10.355   5.857  69.611  1.00  0.00     0.000 HD 
BRANCH  23  26
HETATM   26  C   UNL     1     -10.143   4.818  71.386  1.00  0.00    -0.189 A  
HETATM   27  C   UNL     1      -9.812   3.447  71.354  1.00  0.00    -0.204 A  
HETATM   28  C   UNL     1     -10.246   2.621  72.406  1.00  0.00    -0.215 A  
HETATM   29  C   UNL     1      -8.964   2.800  70.294  1.00  0.00    -0.165 C  
HETATM   30  C   UNL     1     -10.947   3.143  73.488  1.00  0.00    -0.323 A  
HETATM   31  C   UNL     1     -11.237   4.502  73.537  1.00  0.00    -0.388 A  
HETATM   32  C   UNL     1     -10.841   5.351  72.494  1.00  0.00    -0.304 A  
HETATM   33  C   UNL     1     -11.242   6.802  72.549  1.00  0.00    -0.305 C  
ENDBRANCH  23  26
ENDBRANCH  21  22
ENDBRANCH  18  21
ENDBRANCH  14  15
ENDBRANCH  11  14
ENDBRANCH  10  11
ENDBRANCH   9  10
ENDBRANCH   8   9
ENDBRANCH   2   3
TORSDOF 9
ENDMDL
MODEL      155
REMARK 921   NORMALIZED FREE ENERGY PREDICTED BY IDOCK:   -4.70 KCAL/MOL
REMARK 922        TOTAL FREE ENERGY PREDICTED BY IDOCK:   -8.27 KCAL/MOL
REMARK 923 INTER-LIGAND FREE ENERGY PREDICTED BY IDOCK:   -7.33 KCAL/MOL
REMARK 924 INTRA-LIGAND FREE ENERGY PREDICTED BY IDOCK:   -0.95 KCAL/MOL
REMARK 927      BINDING AFFINITY PREDICTED BY RF-SCORE:    0.00 PKD
ROOT
HETATM    1  C   UNL     1      -7.559  15.893  66.782  1.00  0.00    -0.180 C  
HETATM    2  O   UNL     1      -8.891  16.310  66.495  1.00  0.00    -0.226 OA 
ENDROOT
BRANCH   2   3
HETATM    3  C   UNL     1      -9.837  16.004  67.437  1.00  0.00    -0.236 A  
HETATM    4  C   UNL     1      -9.774  16.546  68.734  1.00  0.00    -0.251 A  
HETATM    5  C   UNL     1     -10.730  16.224  69.695  1.00  0.00    -0.338 A  
HETATM    6  C   UNL     1     -11.771  15.363  69.371  1.00  0.00    -0.369 A  
HETATM    7  C   UNL     1     -11.863  14.846  68.080  1.00  0.00    -0.296 A  
HETATM    8  C   UNL     1     -10.916  15.168  67.096  1.00  0.00    -0.326 A  
BRANCH   8   9
HETATM    9  O   UNL     1     -11.201  14.576  65.891  1.00  0.00    -0.321 OA 
BRANCH   9  10
HETATM   10  C   UNL     1     -12.320  13.693  65.815  1.00  0.00    -0.482 C  
BRANCH  10  11
HETATM   11  C   UNL     1     -11.867  12.322  65.279  1.00  0.00    -0.355 C  
HETATM   12  H   UNL     1     -11.297  11.521  63.543  1.00  0.00     0.000 HD 
HETATM   13  O   UNL     1     -11.576  12.367  63.873  1.00  0.00    -0.365 OA 
BRANCH  11  14
HETATM   14  C   UNL     1     -10.600  11.826  66.022  1.00  0.00    -0.260 C  
BRANCH  14  15
HETATM   15  N   UNL     1     -10.710  11.797  67.495  1.00  0.00    -0.213 NA 
HETATM   16  C   UNL     1     -11.430  10.606  67.968  1.00  0.00    -0.212 C  
HETATM   17  C   UNL     1     -10.656   9.310  67.679  1.00  0.00    -0.261 C  
HETATM   18  N   UNL     1      -9.336   9.229  68.344  1.00  0.00    -0.138 NA 
HETATM   19  C   UNL     1      -8.582  10.482  68.123  1.00  0.00    -0.123 C  
HETATM   20  C   UNL     1      -9.384  11.816  68.152  1.00  0.00    -0.190 C  
BRANCH  18  21
HETATM   21  C   UNL     1      -9.495   8.898  69.782  1.00  0.00    -0.170 C  
BRANCH  21  22
HETATM   22  C   UNL     1      -8.856   7.519  70.082  1.00  0.00    -0.147 C  
HETATM   23  N   UNL     1      -9.802   6.509  70.078  1.00  0.00    -0.165 N  
HETATM   24  O   UNL     1      -7.647   7.383  70.242  1.00  0.00    -0.085 OA 
HETATM   25  H   UNL     1     -10.758   6.788  69.860  1.00  0.00     0.000 HD 
BRANCH  23  26
HETATM   26  C   UNL     1      -9.599   5.144  70.341  1.00  0.00    -0.187 A  
HETATM   27  C   UNL     1      -9.629   4.592  71.639  1.00  0.00    -0.221 A  
HETATM   28  C   UNL     1      -9.452   3.206  71.789  1.00  0.00    -0.216 A  
HETATM   29  C   UNL     1      -9.902   5.377  72.892  1.00  0.00    -0.180 C  
HETATM   30  C   UNL     1      -9.296   2.376  70.682  1.00  0.00    -0.209 A  
HETATM   31  C   UNL     1      -9.308   2.918  69.402  1.00  0.00    -0.196 A  
HETATM   32  C   UNL     1      -9.458   4.299  69.216  1.00  0.00    -0.254 A  
HETATM   33  C   UNL     1      -9.386   4.854  67.817  1.00  0.00    -0.154 C  
ENDBRANCH  23  26
ENDBRANCH  21  22
ENDBRANCH  18  21
ENDBRANCH  14  15
ENDBRANCH  11  14
ENDBRANCH  10  11
ENDBRANCH   9  10
ENDBRANCH   8   9
ENDBRANCH   2   3
TORSDOF 9
ENDMDL
MODEL      156
REMARK 921   NORMALIZED FREE ENERGY PREDICTED BY IDOCK:   -4.69 KCAL/MOL
REMARK 922        TOTAL FREE ENERGY PREDICTED BY IDOCK:   -8.25 KCAL/MOL
REMARK 923 INTER-LIGAND FREE ENERGY PREDICTED BY IDOCK:   -7.95 KCAL/MOL
REMARK 924 INTRA-LIGAND FREE ENERGY PREDICTED BY IDOCK:   -0.31 KCAL/MOL
REMARK 927      BINDING AFFINITY PREDICTED BY RF-SCORE:    0.00 PKD
ROOT
HETATM    1  C   UNL     1     -11.614  16.278  69.082  1.00  0.00    -0.213 C  
HETATM    2  O   UNL     1     -10.318  15.768  69.381  1.00  0.00    -0.224 OA 
ENDROOT
BRANCH   2   3
HETATM    3  C   UNL     1      -9.320  16.101  68.503  1.00  0.00    -0.209 A  
HETATM    4  C   UNL     1      -8.759  17.391  68.494  1.00  0.00    -0.277 A  
HETATM    5  C   UNL     1      -7.753  17.732  67.592  1.00  0.00    -0.212 A  
HETATM    6  C   UNL     1      -7.282  16.784  66.692  1.00  0.00    -0.289 A  
HETATM    7  C   UNL     1      -7.807  15.492  66.714  1.00  0.00    -0.162 A  
HETATM    8  C   UNL     1      -8.812  15.128  67.622  1.00  0.00    -0.173 A  
BRANCH   8   9
HETATM    9  O   UNL     1      -9.170  13.809  67.494  1.00  0.00    -0.199 OA 
BRANCH   9  10
HETATM   10  C   UNL     1     -10.104  13.453  66.476  1.00  0.00    -0.280 C  
BRANCH  10  11
HETATM   11  C   UNL     1     -11.471  13.134  67.110  1.00  0.00    -0.334 C  
HETATM   12  H   UNL     1     -13.120  12.111  66.646  1.00  0.00     0.000 HD 
HETATM   13  O   UNL     1     -12.277  12.308  66.255  1.00  0.00    -0.628 OA 
BRANCH  11  14
HETATM   14  C   UNL     1     -11.297  12.404  68.467  1.00  0.00    -0.293 C  
BRANCH  14  15
HETATM   15  N   UNL     1     -12.036  11.132  68.592  1.00  0.00    -0.575 NA 
HETATM   16  C   UNL     1     -11.144   9.967  68.503  1.00  0.00    -0.129 C  
HETATM   17  C   UNL     1     -10.173   9.891  69.692  1.00  0.00    -0.237 C  
HETATM   18  N   UNL     1     -10.834   9.748  71.009  1.00  0.00    -0.334 NA 
HETATM   19  C   UNL     1     -11.921  10.742  71.139  1.00  0.00    -0.258 C  
HETATM   20  C   UNL     1     -12.774  11.041  69.872  1.00  0.00    -0.038 C  
BRANCH  18  21
HETATM   21  C   UNL     1     -11.301   8.353  71.210  1.00  0.00    -0.266 C  
BRANCH  21  22
HETATM   22  C   UNL     1     -10.318   7.364  70.536  1.00  0.00    -0.214 C  
HETATM   23  N   UNL     1     -10.990   6.385  69.824  1.00  0.00    -0.318 N  
HETATM   24  O   UNL     1      -9.102   7.505  70.609  1.00  0.00    -0.154 OA 
HETATM   25  H   UNL     1     -12.007   6.455  69.813  1.00  0.00     0.000 HD 
BRANCH  23  26
HETATM   26  C   UNL     1     -10.434   5.307  69.116  1.00  0.00    -0.157 A  
HETATM   27  C   UNL     1     -10.373   5.256  67.707  1.00  0.00    -0.196 A  
HETATM   28  C   UNL     1      -9.761   4.147  67.096  1.00  0.00    -0.224 A  
HETATM   29  C   UNL     1     -10.867   6.343  66.792  1.00  0.00    -0.361 C  
HETATM   30  C   UNL     1      -9.180   3.137  67.857  1.00  0.00    -0.243 A  
HETATM   31  C   UNL     1      -9.206   3.211  69.244  1.00  0.00    -0.218 A  
HETATM   32  C   UNL     1      -9.829   4.290  69.887  1.00  0.00    -0.267 A  
HETATM   33  C   UNL     1      -9.903   4.292  71.392  1.00  0.00    -0.260 C  
ENDBRANCH  23  26
ENDBRANCH  21  22
ENDBRANCH  18  21
ENDBRANCH  14  15
ENDBRANCH  11  14
ENDBRANCH  10  11
ENDBRANCH   9  10
ENDBRANCH   8   9
ENDBRANCH   2   3
TORSDOF 9
ENDMDL
MODEL      157
REMARK 921   NORMALIZED FREE ENERGY PREDICTED BY IDOCK:   -4.69 KCAL/MOL
REMARK 922        TOTAL FREE ENERGY PREDICTED BY IDOCK:   -8.25 KCAL/MOL
REMARK 923 INTER-LIGAND FREE ENERGY PREDICTED BY IDOCK:   -6.94 KCAL/MOL
REMARK 924 INTRA-LIGAND FREE ENERGY PREDICTED BY IDOCK:   -1.31 KCAL/MOL
REMARK 927      BINDING AFFINITY PREDICTED BY RF-SCORE:    0.00 PKD
ROOT
HETATM    1  C   UNL     1     -13.857  13.102  72.372  1.00  0.00    -0.483 C  
HETATM    2  O   UNL     1     -12.689  12.445  71.887  1.00  0.00    -0.217 OA 
ENDROOT
BRANCH   2   3
HETATM    3  C   UNL     1     -12.395  12.633  70.562  1.00  0.00    -0.268 A  
HETATM    4  C   UNL     1     -12.283  13.924  70.017  1.00  0.00    -0.408 A  
HETATM    5  C   UNL     1     -11.998  14.114  68.667  1.00  0.00    -0.373 A  
HETATM    6  C   UNL     1     -11.807  13.012  67.841  1.00  0.00    -0.389 A  
HETATM    7  C   UNL     1     -11.883  11.727  68.376  1.00  0.00    -0.347 A  
HETATM    8  C   UNL     1     -12.159  11.518  69.736  1.00  0.00    -0.306 A  
BRANCH   8   9
HETATM    9  O   UNL     1     -12.165  10.185  70.062  1.00  0.00    -0.174 OA 
BRANCH   9  10
HETATM   10  C   UNL     1     -11.223   9.717  71.027  1.00  0.00    -0.381 C  
BRANCH  10  11
HETATM   11  C   UNL     1     -10.682   8.339  70.602  1.00  0.00    -0.220 C  
HETATM   12  H   UNL     1     -11.245   6.428  70.703  1.00  0.00     0.000 HD 
HETATM   13  O   UNL     1     -11.578   7.278  70.966  1.00  0.00    -0.279 OA 
BRANCH  11  14
HETATM   14  C   UNL     1     -10.455   8.280  69.069  1.00  0.00    -0.197 C  
BRANCH  14  15
HETATM   15  N   UNL     1      -9.042   8.179  68.650  1.00  0.00    -0.144 NA 
HETATM   16  C   UNL     1      -8.825   8.748  67.312  1.00  0.00    -0.132 C  
HETATM   17  C   UNL     1      -9.059  10.267  67.285  1.00  0.00    -0.138 C  
HETATM   18  N   UNL     1      -8.151  11.038  68.165  1.00  0.00    -0.116 NA 
HETATM   19  C   UNL     1      -8.110  10.424  69.510  1.00  0.00    -0.136 C  
HETATM   20  C   UNL     1      -8.133   8.870  69.590  1.00  0.00    -0.104 C  
BRANCH  18  21
HETATM   21  C   UNL     1      -6.806  11.162  67.547  1.00  0.00    -0.086 C  
BRANCH  21  22
HETATM   22  C   UNL     1      -6.337  12.638  67.593  1.00  0.00    -0.147 C  
HETATM   23  N   UNL     1      -7.219  13.430  68.307  1.00  0.00    -0.099 N  
HETATM   24  O   UNL     1      -5.279  12.999  67.088  1.00  0.00    -0.340 OA 
HETATM   25  H   UNL     1      -8.020  12.952  68.720  1.00  0.00     0.000 HD 
BRANCH  23  26
HETATM   26  C   UNL     1      -7.139  14.814  68.531  1.00  0.00    -0.110 A  
HETATM   27  C   UNL     1      -6.322  15.391  69.526  1.00  0.00    -0.147 A  
HETATM   28  C   UNL     1      -6.285  16.792  69.642  1.00  0.00    -0.228 A  
HETATM   29  C   UNL     1      -5.425  14.614  70.450  1.00  0.00    -0.126 C  
HETATM   30  C   UNL     1      -6.999  17.606  68.767  1.00  0.00    -0.245 A  
HETATM   31  C   UNL     1      -7.770  17.034  67.762  1.00  0.00    -0.181 A  
HETATM   32  C   UNL     1      -7.849  15.641  67.631  1.00  0.00    -0.173 A  
HETATM   33  C   UNL     1      -8.758  15.061  66.579  1.00  0.00    -0.244 C  
ENDBRANCH  23  26
ENDBRANCH  21  22
ENDBRANCH  18  21
ENDBRANCH  14  15
ENDBRANCH  11  14
ENDBRANCH  10  11
ENDBRANCH   9  10
ENDBRANCH   8   9
ENDBRANCH   2   3
TORSDOF 9
ENDMDL
MODEL      158
REMARK 921   NORMALIZED FREE ENERGY PREDICTED BY IDOCK:   -4.69 KCAL/MOL
REMARK 922        TOTAL FREE ENERGY PREDICTED BY IDOCK:   -8.24 KCAL/MOL
REMARK 923 INTER-LIGAND FREE ENERGY PREDICTED BY IDOCK:   -7.17 KCAL/MOL
REMARK 924 INTRA-LIGAND FREE ENERGY PREDICTED BY IDOCK:   -1.07 KCAL/MOL
REMARK 927      BINDING AFFINITY PREDICTED BY RF-SCORE:    0.00 PKD
ROOT
HETATM    1  C   UNL     1     -11.751   5.979  72.326  1.00  0.00    -0.284 C  
HETATM    2  O   UNL     1     -10.443   6.533  72.220  1.00  0.00    -0.197 OA 
ENDROOT
BRANCH   2   3
HETATM    3  C   UNL     1      -9.406   5.705  72.559  1.00  0.00    -0.142 A  
HETATM    4  C   UNL     1      -9.090   5.448  73.905  1.00  0.00    -0.122 A  
HETATM    5  C   UNL     1      -8.026   4.616  74.249  1.00  0.00    -0.100 A  
HETATM    6  C   UNL     1      -7.269   4.016  73.250  1.00  0.00    -0.068 A  
HETATM    7  C   UNL     1      -7.593   4.236  71.912  1.00  0.00    -0.071 A  
HETATM    8  C   UNL     1      -8.666   5.062  71.548  1.00  0.00    -0.131 A  
BRANCH   8   9
HETATM    9  O   UNL     1      -8.830   5.126  70.187  1.00  0.00    -0.111 OA 
BRANCH   9  10
HETATM   10  C   UNL     1      -7.696   4.894  69.353  1.00  0.00    -0.067 C  
BRANCH  10  11
HETATM   11  C   UNL     1      -7.142   6.235  68.838  1.00  0.00    -0.082 C  
HETATM   12  H   UNL     1      -5.602   6.886  67.749  1.00  0.00     0.000 HD 
HETATM   13  O   UNL     1      -5.943   6.058  68.067  1.00  0.00    -0.012 OA 
BRANCH  11  14
HETATM   14  C   UNL     1      -8.186   6.963  67.951  1.00  0.00    -0.114 C  
BRANCH  14  15
HETATM   15  N   UNL     1      -7.822   8.340  67.559  1.00  0.00    -0.105 NA 
HETATM   16  C   UNL     1      -8.797   8.920  66.624  1.00  0.00    -0.129 C  
HETATM   17  C   UNL     1     -10.173   9.126  67.278  1.00  0.00    -0.254 C  
HETATM   18  N   UNL     1     -10.167  10.058  68.428  1.00  0.00    -0.165 NA 
HETATM   19  C   UNL     1      -9.068   9.709  69.355  1.00  0.00    -0.188 C  
HETATM   20  C   UNL     1      -7.723   9.242  68.728  1.00  0.00    -0.083 C  
BRANCH  18  21
HETATM   21  C   UNL     1     -10.100  11.466  67.959  1.00  0.00    -0.180 C  
BRANCH  21  22
HETATM   22  C   UNL     1     -11.322  12.258  68.484  1.00  0.00    -0.286 C  
HETATM   23  N   UNL     1     -11.114  12.719  69.772  1.00  0.00    -0.463 N  
HETATM   24  O   UNL     1     -12.309  12.469  67.787  1.00  0.00    -0.266 OA 
HETATM   25  H   UNL     1     -10.204  12.510  70.184  1.00  0.00     0.000 HD 
BRANCH  23  26
HETATM   26  C   UNL     1     -12.007  13.443  70.578  1.00  0.00    -0.255 A  
HETATM   27  C   UNL     1     -12.874  12.835  71.511  1.00  0.00    -0.369 A  
HETATM   28  C   UNL     1     -13.704  13.654  72.297  1.00  0.00    -0.687 A  
HETATM   29  C   UNL     1     -12.938  11.356  71.778  1.00  0.00    -0.519 C  
HETATM   30  C   UNL     1     -13.645  15.041  72.201  1.00  0.00    -0.530 A  
HETATM   31  C   UNL     1     -12.761  15.637  71.310  1.00  0.00    -0.537 A  
HETATM   32  C   UNL     1     -11.936  14.852  70.493  1.00  0.00    -0.365 A  
HETATM   33  C   UNL     1     -11.049  15.536  69.486  1.00  0.00    -0.286 C  
ENDBRANCH  23  26
ENDBRANCH  21  22
ENDBRANCH  18  21
ENDBRANCH  14  15
ENDBRANCH  11  14
ENDBRANCH  10  11
ENDBRANCH   9  10
ENDBRANCH   8   9
ENDBRANCH   2   3
TORSDOF 9
ENDMDL
MODEL      159
REMARK 921   NORMALIZED FREE ENERGY PREDICTED BY IDOCK:   -4.66 KCAL/MOL
REMARK 922        TOTAL FREE ENERGY PREDICTED BY IDOCK:   -8.21 KCAL/MOL
REMARK 923 INTER-LIGAND FREE ENERGY PREDICTED BY IDOCK:   -7.30 KCAL/MOL
REMARK 924 INTRA-LIGAND FREE ENERGY PREDICTED BY IDOCK:   -0.91 KCAL/MOL
REMARK 927      BINDING AFFINITY PREDICTED BY RF-SCORE:    0.00 PKD
ROOT
HETATM    1  C   UNL     1     -10.975  13.433  68.198  1.00  0.00    -0.255 C  
HETATM    2  O   UNL     1     -11.389  12.346  67.376  1.00  0.00    -0.280 OA 
ENDROOT
BRANCH   2   3
HETATM    3  C   UNL     1     -11.621  12.639  66.058  1.00  0.00    -0.393 A  
HETATM    4  C   UNL     1     -12.285  13.820  65.681  1.00  0.00    -0.484 A  
HETATM    5  C   UNL     1     -12.532  14.111  64.341  1.00  0.00    -0.325 A  
HETATM    6  C   UNL     1     -12.109  13.229  63.354  1.00  0.00    -0.508 A  
HETATM    7  C   UNL     1     -11.421  12.070  63.713  1.00  0.00    -0.547 A  
HETATM    8  C   UNL     1     -11.153  11.767  65.056  1.00  0.00    -0.284 A  
BRANCH   8   9
HETATM    9  O   UNL     1     -10.447  10.599  65.191  1.00  0.00    -0.280 OA 
BRANCH   9  10
HETATM   10  C   UNL     1      -9.497  10.258  64.183  1.00  0.00    -0.301 C  
BRANCH  10  11
HETATM   11  C   UNL     1      -8.074  10.294  64.772  1.00  0.00    -0.151 C  
HETATM   12  H   UNL     1      -7.163  10.976  66.411  1.00  0.00     0.000 HD 
HETATM   13  O   UNL     1      -8.041  10.954  66.048  1.00  0.00    -0.159 OA 
BRANCH  11  14
HETATM   14  C   UNL     1      -7.511   8.860  64.952  1.00  0.00    -0.098 C  
BRANCH  14  15
HETATM   15  N   UNL     1      -8.502   7.847  65.366  1.00  0.00    -0.139 NA 
HETATM   16  C   UNL     1      -8.057   6.482  65.050  1.00  0.00    -0.127 C  
HETATM   17  C   UNL     1      -6.821   6.073  65.867  1.00  0.00    -0.057 C  
HETATM   18  N   UNL     1      -7.037   6.059  67.332  1.00  0.00    -0.072 NA 
HETATM   19  C   UNL     1      -7.694   7.315  67.757  1.00  0.00    -0.112 C  
HETATM   20  C   UNL     1      -8.784   7.907  66.818  1.00  0.00    -0.134 C  
BRANCH  18  21
HETATM   21  C   UNL     1      -7.793   4.847  67.736  1.00  0.00    -0.094 C  
BRANCH  21  22
HETATM   22  C   UNL     1      -8.097   4.895  69.254  1.00  0.00    -0.078 C  
HETATM   23  N   UNL     1      -9.440   4.684  69.510  1.00  0.00    -0.149 N  
HETATM   24  O   UNL     1      -7.212   5.050  70.089  1.00  0.00    -0.055 OA 
HETATM   25  H   UNL     1     -10.031   4.503  68.699  1.00  0.00     0.000 HD 
BRANCH  23  26
HETATM   26  C   UNL     1     -10.085   4.689  70.758  1.00  0.00    -0.194 A  
HETATM   27  C   UNL     1      -9.947   3.653  71.705  1.00  0.00    -0.210 A  
HETATM   28  C   UNL     1     -10.606   3.774  72.941  1.00  0.00    -0.229 A  
HETATM   29  C   UNL     1      -9.085   2.436  71.518  1.00  0.00    -0.159 C  
HETATM   30  C   UNL     1     -11.345   4.911  73.254  1.00  0.00    -0.408 A  
HETATM   31  C   UNL     1     -11.446   5.948  72.334  1.00  0.00    -0.358 A  
HETATM   32  C   UNL     1     -10.822   5.851  71.083  1.00  0.00    -0.334 A  
HETATM   33  C   UNL     1     -11.021   6.962  70.085  1.00  0.00    -0.322 C  
ENDBRANCH  23  26
ENDBRANCH  21  22
ENDBRANCH  18  21
ENDBRANCH  14  15
ENDBRANCH  11  14
ENDBRANCH  10  11
ENDBRANCH   9  10
ENDBRANCH   8   9
ENDBRANCH   2   3
TORSDOF 9
ENDMDL
MODEL      160
REMARK 921   NORMALIZED FREE ENERGY PREDICTED BY IDOCK:   -4.66 KCAL/MOL
REMARK 922        TOTAL FREE ENERGY PREDICTED BY IDOCK:   -8.21 KCAL/MOL
REMARK 923 INTER-LIGAND FREE ENERGY PREDICTED BY IDOCK:   -7.23 KCAL/MOL
REMARK 924 INTRA-LIGAND FREE ENERGY PREDICTED BY IDOCK:   -0.98 KCAL/MOL
REMARK 927      BINDING AFFINITY PREDICTED BY RF-SCORE:    0.00 PKD
ROOT
HETATM    1  C   UNL     1     -10.773  18.450  65.762  1.00  0.00    -0.131 C  
HETATM    2  O   UNL     1     -10.606  19.022  67.056  1.00  0.00    -0.421 OA 
ENDROOT
BRANCH   2   3
HETATM    3  C   UNL     1      -9.318  19.279  67.443  1.00  0.00    -0.307 A  
HETATM    4  C   UNL     1      -8.644  20.434  67.007  1.00  0.00    -0.370 A  
HETATM    5  C   UNL     1      -7.328  20.688  67.390  1.00  0.00    -0.384 A  
HETATM    6  C   UNL     1      -6.669  19.795  68.226  1.00  0.00    -0.315 A  
HETATM    7  C   UNL     1      -7.337  18.663  68.692  1.00  0.00    -0.329 A  
HETATM    8  C   UNL     1      -8.665  18.397  68.325  1.00  0.00    -0.302 A  
BRANCH   8   9
HETATM    9  O   UNL     1      -9.142  17.251  68.909  1.00  0.00    -0.252 OA 
BRANCH   9  10
HETATM   10  C   UNL     1      -8.657  15.994  68.437  1.00  0.00    -0.185 C  
BRANCH  10  11
HETATM   11  C   UNL     1      -9.561  15.478  67.302  1.00  0.00    -0.213 C  
HETATM   12  H   UNL     1      -9.492  15.297  65.316  1.00  0.00     0.000 HD 
HETATM   13  O   UNL     1      -8.934  15.616  66.016  1.00  0.00    -0.334 OA 
BRANCH  11  14
HETATM   14  C   UNL     1      -9.917  13.984  67.511  1.00  0.00    -0.236 C  
BRANCH  14  15
HETATM   15  N   UNL     1      -9.343  13.058  66.514  1.00  0.00    -0.242 NA 
HETATM   16  C   UNL     1      -8.564  11.984  67.146  1.00  0.00    -0.182 C  
HETATM   17  C   UNL     1      -9.448  11.045  67.983  1.00  0.00    -0.166 C  
HETATM   18  N   UNL     1     -10.489  10.335  67.204  1.00  0.00    -0.241 NA 
HETATM   19  C   UNL     1     -11.215  11.293  66.343  1.00  0.00    -0.121 C  
HETATM   20  C   UNL     1     -10.386  12.428  65.675  1.00  0.00    -0.258 C  
BRANCH  18  21
HETATM   21  C   UNL     1      -9.892   9.210  66.441  1.00  0.00    -0.280 C  
BRANCH  21  22
HETATM   22  C   UNL     1     -10.308   7.860  67.076  1.00  0.00    -0.341 C  
HETATM   23  N   UNL     1      -9.448   7.491  68.095  1.00  0.00    -0.143 N  
HETATM   24  O   UNL     1     -11.316   7.258  66.720  1.00  0.00     0.113 OA 
HETATM   25  H   UNL     1      -8.694   8.145  68.307  1.00  0.00     0.000 HD 
BRANCH  23  26
HETATM   26  C   UNL     1      -9.491   6.321  68.870  1.00  0.00    -0.127 A  
HETATM   27  C   UNL     1     -10.261   6.200  70.047  1.00  0.00    -0.250 A  
HETATM   28  C   UNL     1     -10.264   4.971  70.729  1.00  0.00    -0.299 A  
HETATM   29  C   UNL     1     -11.142   7.284  70.604  1.00  0.00    -0.287 C  
HETATM   30  C   UNL     1      -9.564   3.873  70.239  1.00  0.00    -0.271 A  
HETATM   31  C   UNL     1      -8.840   3.984  69.058  1.00  0.00    -0.146 A  
HETATM   32  C   UNL     1      -8.794   5.201  68.363  1.00  0.00    -0.108 A  
HETATM   33  C   UNL     1      -7.934   5.300  67.130  1.00  0.00    -0.101 C  
ENDBRANCH  23  26
ENDBRANCH  21  22
ENDBRANCH  18  21
ENDBRANCH  14  15
ENDBRANCH  11  14
ENDBRANCH  10  11
ENDBRANCH   9  10
ENDBRANCH   8   9
ENDBRANCH   2   3
TORSDOF 9
ENDMDL
MODEL      161
REMARK 921   NORMALIZED FREE ENERGY PREDICTED BY IDOCK:   -4.65 KCAL/MOL
REMARK 922        TOTAL FREE ENERGY PREDICTED BY IDOCK:   -8.19 KCAL/MOL
REMARK 923 INTER-LIGAND FREE ENERGY PREDICTED BY IDOCK:   -7.77 KCAL/MOL
REMARK 924 INTRA-LIGAND FREE ENERGY PREDICTED BY IDOCK:   -0.42 KCAL/MOL
REMARK 927      BINDING AFFINITY PREDICTED BY RF-SCORE:    0.00 PKD
ROOT
HETATM    1  C   UNL     1     -13.394  10.448  71.088  1.00  0.00    -0.211 C  
HETATM    2  O   UNL     1     -12.563  11.402  71.744  1.00  0.00    -0.275 OA 
ENDROOT
BRANCH   2   3
HETATM    3  C   UNL     1     -12.877  12.720  71.538  1.00  0.00    -0.270 A  
HETATM    4  C   UNL     1     -13.742  13.407  72.408  1.00  0.00    -0.698 A  
HETATM    5  C   UNL     1     -14.070  14.743  72.191  1.00  0.00    -0.604 A  
HETATM    6  C   UNL     1     -13.528  15.419  71.103  1.00  0.00    -0.565 A  
HETATM    7  C   UNL     1     -12.643  14.758  70.252  1.00  0.00    -0.365 A  
HETATM    8  C   UNL     1     -12.293  13.416  70.462  1.00  0.00    -0.329 A  
BRANCH   8   9
HETATM    9  O   UNL     1     -11.394  12.964  69.529  1.00  0.00    -0.230 OA 
BRANCH   9  10
HETATM   10  C   UNL     1     -11.556  13.378  68.173  1.00  0.00    -0.341 C  
BRANCH  10  11
HETATM   11  C   UNL     1     -10.219  13.912  67.627  1.00  0.00    -0.242 C  
HETATM   12  H   UNL     1      -8.605  14.859  68.319  1.00  0.00     0.000 HD 
HETATM   13  O   UNL     1      -9.430  14.529  68.656  1.00  0.00    -0.204 OA 
BRANCH  11  14
HETATM   14  C   UNL     1      -9.383  12.770  66.992  1.00  0.00    -0.229 C  
BRANCH  14  15
HETATM   15  N   UNL     1     -10.172  11.694  66.359  1.00  0.00    -0.215 NA 
HETATM   16  C   UNL     1      -9.381  10.937  65.378  1.00  0.00    -0.208 C  
HETATM   17  C   UNL     1      -8.240  10.150  66.040  1.00  0.00    -0.131 C  
HETATM   18  N   UNL     1      -8.690   9.130  67.015  1.00  0.00    -0.123 NA 
HETATM   19  C   UNL     1      -9.677   9.721  67.944  1.00  0.00    -0.144 C  
HETATM   20  C   UNL     1     -10.700  10.734  67.354  1.00  0.00    -0.268 C  
BRANCH  18  21
HETATM   21  C   UNL     1      -9.207   7.929  66.312  1.00  0.00    -0.178 C  
BRANCH  21  22
HETATM   22  C   UNL     1      -9.821   6.941  67.335  1.00  0.00    -0.144 C  
HETATM   23  N   UNL     1      -8.856   6.409  68.171  1.00  0.00    -0.115 N  
HETATM   24  O   UNL     1     -11.029   6.730  67.390  1.00  0.00    -0.318 OA 
HETATM   25  H   UNL     1      -7.903   6.744  68.030  1.00  0.00     0.000 HD 
BRANCH  23  26
HETATM   26  C   UNL     1      -9.034   5.461  69.192  1.00  0.00    -0.104 A  
HETATM   27  C   UNL     1      -9.109   4.072  68.954  1.00  0.00    -0.191 A  
HETATM   28  C   UNL     1      -9.251   3.204  70.051  1.00  0.00    -0.221 A  
HETATM   29  C   UNL     1      -8.986   3.431  67.599  1.00  0.00    -0.174 C  
HETATM   30  C   UNL     1      -9.270   3.690  71.355  1.00  0.00    -0.196 A  
HETATM   31  C   UNL     1      -9.155   5.056  71.588  1.00  0.00    -0.166 A  
HETATM   32  C   UNL     1      -9.036   5.952  70.517  1.00  0.00    -0.158 A  
HETATM   33  C   UNL     1      -8.993   7.430  70.809  1.00  0.00    -0.151 C  
ENDBRANCH  23  26
ENDBRANCH  21  22
ENDBRANCH  18  21
ENDBRANCH  14  15
ENDBRANCH  11  14
ENDBRANCH  10  11
ENDBRANCH   9  10
ENDBRANCH   8   9
ENDBRANCH   2   3
TORSDOF 9
ENDMDL
MODEL      162
REMARK 921   NORMALIZED FREE ENERGY PREDICTED BY IDOCK:   -4.63 KCAL/MOL
REMARK 922        TOTAL FREE ENERGY PREDICTED BY IDOCK:   -8.16 KCAL/MOL
REMARK 923 INTER-LIGAND FREE ENERGY PREDICTED BY IDOCK:   -8.02 KCAL/MOL
REMARK 924 INTRA-LIGAND FREE ENERGY PREDICTED BY IDOCK:   -0.14 KCAL/MOL
REMARK 927      BINDING AFFINITY PREDICTED BY RF-SCORE:    0.00 PKD
ROOT
HETATM    1  C   UNL     1      -6.278  18.468  68.846  1.00  0.00    -0.225 C  
HETATM    2  O   UNL     1      -7.495  17.732  68.771  1.00  0.00    -0.265 OA 
ENDROOT
BRANCH   2   3
HETATM    3  C   UNL     1      -8.551  18.368  68.173  1.00  0.00    -0.284 A  
HETATM    4  C   UNL     1      -9.162  19.484  68.771  1.00  0.00    -0.394 A  
HETATM    5  C   UNL     1     -10.244  20.123  68.168  1.00  0.00    -0.479 A  
HETATM    6  C   UNL     1     -10.726  19.660  66.949  1.00  0.00    -0.570 A  
HETATM    7  C   UNL     1     -10.108  18.574  66.330  1.00  0.00    -0.430 A  
HETATM    8  C   UNL     1      -9.011  17.927  66.917  1.00  0.00    -0.257 A  
BRANCH   8   9
HETATM    9  O   UNL     1      -8.537  16.902  66.137  1.00  0.00    -0.381 OA 
BRANCH   9  10
HETATM   10  C   UNL     1      -9.420  15.827  65.817  1.00  0.00    -0.299 C  
BRANCH  10  11
HETATM   11  C   UNL     1      -8.980  14.552  66.560  1.00  0.00    -0.180 C  
HETATM   12  H   UNL     1      -7.982  14.071  68.220  1.00  0.00     0.000 HD 
HETATM   13  O   UNL     1      -8.254  14.857  67.761  1.00  0.00    -0.138 OA 
BRANCH  11  14
HETATM   14  C   UNL     1     -10.205  13.681  66.941  1.00  0.00    -0.261 C  
BRANCH  14  15
HETATM   15  N   UNL     1     -10.140  13.063  68.281  1.00  0.00    -0.236 NA 
HETATM   16  C   UNL     1     -11.360  12.306  68.597  1.00  0.00    -0.291 C  
HETATM   17  C   UNL     1     -11.530  11.079  67.686  1.00  0.00    -0.224 C  
HETATM   18  N   UNL     1     -10.440  10.083  67.797  1.00  0.00    -0.216 NA 
HETATM   19  C   UNL     1      -9.128  10.760  67.714  1.00  0.00    -0.151 C  
HETATM   20  C   UNL     1      -8.989  12.143  68.414  1.00  0.00    -0.146 C  
BRANCH  18  21
HETATM   21  C   UNL     1     -10.595   9.276  69.034  1.00  0.00    -0.205 C  
BRANCH  21  22
HETATM   22  C   UNL     1      -9.774   7.968  68.919  1.00  0.00    -0.159 C  
HETATM   23  N   UNL     1     -10.592   6.852  68.924  1.00  0.00    -0.211 N  
HETATM   24  O   UNL     1      -8.554   7.976  68.788  1.00  0.00    -0.127 OA 
HETATM   25  H   UNL     1     -11.595   7.029  68.973  1.00  0.00     0.000 HD 
BRANCH  23  26
HETATM   26  C   UNL     1     -10.202   5.504  68.869  1.00  0.00    -0.214 A  
HETATM   27  C   UNL     1      -9.912   4.830  67.664  1.00  0.00    -0.178 A  
HETATM   28  C   UNL     1      -9.492   3.489  67.723  1.00  0.00    -0.230 A  
HETATM   29  C   UNL     1      -9.959   5.463  66.301  1.00  0.00    -0.199 C  
HETATM   30  C   UNL     1      -9.316   2.843  68.942  1.00  0.00    -0.226 A  
HETATM   31  C   UNL     1      -9.563   3.523  70.129  1.00  0.00    -0.225 A  
HETATM   32  C   UNL     1     -10.006   4.853  70.109  1.00  0.00    -0.325 A  
HETATM   33  C   UNL     1     -10.337   5.527  71.414  1.00  0.00    -0.291 C  
ENDBRANCH  23  26
ENDBRANCH  21  22
ENDBRANCH  18  21
ENDBRANCH  14  15
ENDBRANCH  11  14
ENDBRANCH  10  11
ENDBRANCH   9  10
ENDBRANCH   8   9
ENDBRANCH   2   3
TORSDOF 9
ENDMDL
MODEL      163
REMARK 921   NORMALIZED FREE ENERGY PREDICTED BY IDOCK:   -4.62 KCAL/MOL
REMARK 922        TOTAL FREE ENERGY PREDICTED BY IDOCK:   -8.14 KCAL/MOL
REMARK 923 INTER-LIGAND FREE ENERGY PREDICTED BY IDOCK:   -7.35 KCAL/MOL
REMARK 924 INTRA-LIGAND FREE ENERGY PREDICTED BY IDOCK:   -0.79 KCAL/MOL
REMARK 927      BINDING AFFINITY PREDICTED BY RF-SCORE:    0.00 PKD
ROOT
HETATM    1  C   UNL     1      -9.436  16.569  68.064  1.00  0.00    -0.222 C  
HETATM    2  O   UNL     1      -9.369  15.790  69.255  1.00  0.00    -0.232 OA 
ENDROOT
BRANCH   2   3
HETATM    3  C   UNL     1     -10.560  15.308  69.730  1.00  0.00    -0.282 A  
HETATM    4  C   UNL     1     -11.371  16.080  70.581  1.00  0.00    -0.424 A  
HETATM    5  C   UNL     1     -12.576  15.583  71.074  1.00  0.00    -0.513 A  
HETATM    6  C   UNL     1     -12.995  14.308  70.713  1.00  0.00    -0.368 A  
HETATM    7  C   UNL     1     -12.217  13.546  69.843  1.00  0.00    -0.356 A  
HETATM    8  C   UNL     1     -11.006  14.034  69.329  1.00  0.00    -0.206 A  
BRANCH   8   9
HETATM    9  O   UNL     1     -10.410  13.140  68.476  1.00  0.00    -0.247 OA 
BRANCH   9  10
HETATM   10  C   UNL     1     -10.508  13.371  67.071  1.00  0.00    -0.257 C  
BRANCH  10  11
HETATM   11  C   UNL     1     -10.992  12.090  66.365  1.00  0.00    -0.296 C  
HETATM   12  H   UNL     1     -12.125  11.597  64.798  1.00  0.00     0.000 HD 
HETATM   13  O   UNL     1     -11.827  12.387  65.234  1.00  0.00    -0.379 OA 
BRANCH  11  14
HETATM   14  C   UNL     1      -9.792  11.240  65.873  1.00  0.00    -0.232 C  
BRANCH  14  15
HETATM   15  N   UNL     1     -10.107   9.829  65.572  1.00  0.00    -0.263 NA 
HETATM   16  C   UNL     1      -8.904   9.061  65.220  1.00  0.00    -0.193 C  
HETATM   17  C   UNL     1      -7.935   8.927  66.406  1.00  0.00    -0.103 C  
HETATM   18  N   UNL     1      -8.499   8.213  67.574  1.00  0.00    -0.126 NA 
HETATM   19  C   UNL     1      -9.835   8.756  67.902  1.00  0.00    -0.169 C  
HETATM   20  C   UNL     1     -10.760   9.150  66.714  1.00  0.00    -0.038 C  
BRANCH  18  21
HETATM   21  C   UNL     1      -8.516   6.748  67.331  1.00  0.00    -0.121 C  
BRANCH  21  22
HETATM   22  C   UNL     1      -9.524   6.064  68.288  1.00  0.00    -0.115 C  
HETATM   23  N   UNL     1      -9.126   6.173  69.608  1.00  0.00    -0.136 N  
HETATM   24  O   UNL     1     -10.561   5.551  67.880  1.00  0.00    -0.205 OA 
HETATM   25  H   UNL     1      -8.266   6.693  69.778  1.00  0.00     0.000 HD 
BRANCH  23  26
HETATM   26  C   UNL     1      -9.768   5.649  70.742  1.00  0.00    -0.177 A  
HETATM   27  C   UNL     1     -10.888   6.257  71.348  1.00  0.00    -0.312 A  
HETATM   28  C   UNL     1     -11.480   5.630  72.458  1.00  0.00    -0.335 A  
HETATM   29  C   UNL     1     -11.547   7.515  70.852  1.00  0.00    -0.309 C  
HETATM   30  C   UNL     1     -11.010   4.409  72.931  1.00  0.00    -0.231 A  
HETATM   31  C   UNL     1      -9.932   3.792  72.306  1.00  0.00    -0.239 A  
HETATM   32  C   UNL     1      -9.301   4.400  71.212  1.00  0.00    -0.210 A  
HETATM   33  C   UNL     1      -8.088   3.737  70.614  1.00  0.00    -0.060 C  
ENDBRANCH  23  26
ENDBRANCH  21  22
ENDBRANCH  18  21
ENDBRANCH  14  15
ENDBRANCH  11  14
ENDBRANCH  10  11
ENDBRANCH   9  10
ENDBRANCH   8   9
ENDBRANCH   2   3
TORSDOF 9
ENDMDL
MODEL      164
REMARK 921   NORMALIZED FREE ENERGY PREDICTED BY IDOCK:   -4.61 KCAL/MOL
REMARK 922        TOTAL FREE ENERGY PREDICTED BY IDOCK:   -8.14 KCAL/MOL
REMARK 923 INTER-LIGAND FREE ENERGY PREDICTED BY IDOCK:   -7.59 KCAL/MOL
REMARK 924 INTRA-LIGAND FREE ENERGY PREDICTED BY IDOCK:   -0.55 KCAL/MOL
REMARK 927      BINDING AFFINITY PREDICTED BY RF-SCORE:    0.00 PKD
ROOT
HETATM    1  C   UNL     1     -13.130  10.429  70.668  1.00  0.00    -0.224 C  
HETATM    2  O   UNL     1     -12.479  11.330  71.559  1.00  0.00    -0.312 OA 
ENDROOT
BRANCH   2   3
HETATM    3  C   UNL     1     -12.850  12.645  71.467  1.00  0.00    -0.268 A  
HETATM    4  C   UNL     1     -13.698  13.231  72.424  1.00  0.00    -0.678 A  
HETATM    5  C   UNL     1     -14.086  14.566  72.321  1.00  0.00    -0.594 A  
HETATM    6  C   UNL     1     -13.620  15.340  71.265  1.00  0.00    -0.584 A  
HETATM    7  C   UNL     1     -12.753  14.780  70.329  1.00  0.00    -0.324 A  
HETATM    8  C   UNL     1     -12.344  13.442  70.422  1.00  0.00    -0.312 A  
BRANCH   8   9
HETATM    9  O   UNL     1     -11.473  13.096  69.419  1.00  0.00    -0.269 OA 
BRANCH   9  10
HETATM   10  C   UNL     1     -11.948  13.106  68.073  1.00  0.00    -0.304 C  
BRANCH  10  11
HETATM   11  C   UNL     1     -11.105  14.081  67.229  1.00  0.00    -0.302 C  
HETATM   12  H   UNL     1      -9.254  14.827  67.230  1.00  0.00     0.000 HD 
HETATM   13  O   UNL     1      -9.774  14.226  67.751  1.00  0.00    -0.215 OA 
BRANCH  11  14
HETATM   14  C   UNL     1     -11.001  13.596  65.760  1.00  0.00    -0.278 C  
BRANCH  14  15
HETATM   15  N   UNL     1     -11.372  12.184  65.540  1.00  0.00    -0.339 NA 
HETATM   16  C   UNL     1     -11.422  11.846  64.110  1.00  0.00    -0.370 C  
HETATM   17  C   UNL     1     -10.036  11.919  63.450  1.00  0.00    -0.438 C  
HETATM   18  N   UNL     1      -9.043  10.978  64.015  1.00  0.00    -0.148 NA 
HETATM   19  C   UNL     1      -9.049  11.065  65.492  1.00  0.00    -0.207 C  
HETATM   20  C   UNL     1     -10.426  11.252  66.193  1.00  0.00    -0.254 C  
BRANCH  18  21
HETATM   21  C   UNL     1      -9.286   9.601  63.517  1.00  0.00    -0.098 C  
BRANCH  21  22
HETATM   22  C   UNL     1      -8.039   8.718  63.771  1.00  0.00    -0.165 C  
HETATM   23  N   UNL     1      -8.356   7.589  64.506  1.00  0.00    -0.356 N  
HETATM   24  O   UNL     1      -6.938   9.001  63.310  1.00  0.00    -0.090 OA 
HETATM   25  H   UNL     1      -9.339   7.474  64.753  1.00  0.00     0.000 HD 
BRANCH  23  26
HETATM   26  C   UNL     1      -7.482   6.584  64.951  1.00  0.00    -0.086 A  
HETATM   27  C   UNL     1      -6.886   6.587  66.230  1.00  0.00    -0.057 A  
HETATM   28  C   UNL     1      -6.056   5.511  66.592  1.00  0.00    -0.030 A  
HETATM   29  C   UNL     1      -7.122   7.639  67.278  1.00  0.00    -0.085 C  
HETATM   30  C   UNL     1      -5.857   4.435  65.732  1.00  0.00    -0.022 A  
HETATM   31  C   UNL     1      -6.478   4.417  64.489  1.00  0.00    -0.039 A  
HETATM   32  C   UNL     1      -7.294   5.483  64.085  1.00  0.00    -0.058 A  
HETATM   33  C   UNL     1      -7.885   5.459  62.700  1.00  0.00    -0.085 C  
ENDBRANCH  23  26
ENDBRANCH  21  22
ENDBRANCH  18  21
ENDBRANCH  14  15
ENDBRANCH  11  14
ENDBRANCH  10  11
ENDBRANCH   9  10
ENDBRANCH   8   9
ENDBRANCH   2   3
TORSDOF 9
ENDMDL
MODEL      165
REMARK 921   NORMALIZED FREE ENERGY PREDICTED BY IDOCK:   -4.60 KCAL/MOL
REMARK 922        TOTAL FREE ENERGY PREDICTED BY IDOCK:   -8.11 KCAL/MOL
REMARK 923 INTER-LIGAND FREE ENERGY PREDICTED BY IDOCK:   -7.51 KCAL/MOL
REMARK 924 INTRA-LIGAND FREE ENERGY PREDICTED BY IDOCK:   -0.60 KCAL/MOL
REMARK 927      BINDING AFFINITY PREDICTED BY RF-SCORE:    0.00 PKD
ROOT
HETATM    1  C   UNL     1     -11.936  14.766  67.235  1.00  0.00    -0.211 C  
HETATM    2  O   UNL     1     -12.143  13.380  66.977  1.00  0.00    -0.381 OA 
ENDROOT
BRANCH   2   3
HETATM    3  C   UNL     1     -11.737  12.926  65.750  1.00  0.00    -0.390 A  
HETATM    4  C   UNL     1     -12.670  12.513  64.782  1.00  0.00    -0.415 A  
HETATM    5  C   UNL     1     -12.256  12.038  63.539  1.00  0.00    -0.653 A  
HETATM    6  C   UNL     1     -10.900  11.980  63.240  1.00  0.00    -0.400 A  
HETATM    7  C   UNL     1      -9.967  12.417  64.179  1.00  0.00    -0.244 A  
HETATM    8  C   UNL     1     -10.367  12.908  65.431  1.00  0.00    -0.296 A  
BRANCH   8   9
HETATM    9  O   UNL     1      -9.298  13.308  66.194  1.00  0.00    -0.190 OA 
BRANCH   9  10
HETATM   10  C   UNL     1      -8.909  12.493  67.299  1.00  0.00    -0.195 C  
BRANCH  10  11
HETATM   11  C   UNL     1      -8.302  11.174  66.787  1.00  0.00    -0.152 C  
HETATM   12  H   UNL     1      -6.564  10.199  66.896  1.00  0.00     0.000 HD 
HETATM   13  O   UNL     1      -6.939  11.013  67.212  1.00  0.00    -0.084 OA 
BRANCH  11  14
HETATM   14  C   UNL     1      -9.115   9.954  67.293  1.00  0.00    -0.135 C  
BRANCH  14  15
HETATM   15  N   UNL     1      -8.589   9.316  68.516  1.00  0.00    -0.127 NA 
HETATM   16  C   UNL     1      -8.984  10.046  69.730  1.00  0.00    -0.185 C  
HETATM   17  C   UNL     1     -10.501   9.994  69.968  1.00  0.00    -0.287 C  
HETATM   18  N   UNL     1     -11.039   8.630  70.170  1.00  0.00    -0.230 NA 
HETATM   19  C   UNL     1     -10.529   7.726  69.116  1.00  0.00    -0.211 C  
HETATM   20  C   UNL     1      -9.055   7.918  68.658  1.00  0.00    -0.136 C  
BRANCH  18  21
HETATM   21  C   UNL     1     -10.735   8.146  71.541  1.00  0.00    -0.233 C  
BRANCH  21  22
HETATM   22  C   UNL     1     -11.110   6.649  71.669  1.00  0.00    -0.250 C  
HETATM   23  N   UNL     1      -9.993   5.862  71.887  1.00  0.00    -0.169 N  
HETATM   24  O   UNL     1     -12.275   6.266  71.630  1.00  0.00    -0.279 OA 
HETATM   25  H   UNL     1      -9.103   6.354  71.959  1.00  0.00     0.000 HD 
BRANCH  23  26
HETATM   26  C   UNL     1      -9.943   4.465  72.019  1.00  0.00    -0.185 A  
HETATM   27  C   UNL     1      -9.567   3.600  70.970  1.00  0.00    -0.246 A  
HETATM   28  C   UNL     1      -9.512   2.218  71.218  1.00  0.00    -0.213 A  
HETATM   29  C   UNL     1      -9.155   4.056  69.597  1.00  0.00    -0.186 C  
HETATM   30  C   UNL     1      -9.774   1.703  72.484  1.00  0.00    -0.152 A  
HETATM   31  C   UNL     1     -10.104   2.561  73.527  1.00  0.00    -0.179 A  
HETATM   32  C   UNL     1     -10.192   3.943  73.310  1.00  0.00    -0.217 A  
HETATM   33  C   UNL     1     -10.629   4.830  74.447  1.00  0.00    -0.283 C  
ENDBRANCH  23  26
ENDBRANCH  21  22
ENDBRANCH  18  21
ENDBRANCH  14  15
ENDBRANCH  11  14
ENDBRANCH  10  11
ENDBRANCH   9  10
ENDBRANCH   8   9
ENDBRANCH   2   3
TORSDOF 9
ENDMDL
MODEL      166
REMARK 921   NORMALIZED FREE ENERGY PREDICTED BY IDOCK:   -4.59 KCAL/MOL
REMARK 922        TOTAL FREE ENERGY PREDICTED BY IDOCK:   -8.10 KCAL/MOL
REMARK 923 INTER-LIGAND FREE ENERGY PREDICTED BY IDOCK:   -6.66 KCAL/MOL
REMARK 924 INTRA-LIGAND FREE ENERGY PREDICTED BY IDOCK:   -1.44 KCAL/MOL
REMARK 927      BINDING AFFINITY PREDICTED BY RF-SCORE:    0.00 PKD
ROOT
HETATM    1  C   UNL     1     -12.053  14.370  66.091  1.00  0.00    -0.357 C  
HETATM    2  O   UNL     1     -12.197  13.241  66.948  1.00  0.00    -0.350 OA 
ENDROOT
BRANCH   2   3
HETATM    3  C   UNL     1     -11.404  12.161  66.666  1.00  0.00    -0.350 A  
HETATM    4  C   UNL     1     -10.557  12.154  65.543  1.00  0.00    -0.314 A  
HETATM    5  C   UNL     1      -9.760  11.050  65.249  1.00  0.00    -0.286 A  
HETATM    6  C   UNL     1      -9.788   9.937  66.081  1.00  0.00    -0.324 A  
HETATM    7  C   UNL     1     -10.599   9.945  67.215  1.00  0.00    -0.316 A  
HETATM    8  C   UNL     1     -11.400  11.052  67.533  1.00  0.00    -0.257 A  
BRANCH   8   9
HETATM    9  O   UNL     1     -12.099  10.867  68.698  1.00  0.00    -0.527 OA 
BRANCH   9  10
HETATM   10  C   UNL     1     -11.512  11.307  69.922  1.00  0.00    -0.293 C  
BRANCH  10  11
HETATM   11  C   UNL     1     -11.776  10.270  71.031  1.00  0.00    -0.370 C  
HETATM   12  H   UNL     1     -13.074   9.987  72.519  1.00  0.00     0.000 HD 
HETATM   13  O   UNL     1     -12.911  10.626  71.835  1.00  0.00    -0.458 OA 
BRANCH  11  14
HETATM   14  C   UNL     1     -12.029   8.864  70.428  1.00  0.00     0.115 C  
BRANCH  14  15
HETATM   15  N   UNL     1     -11.175   7.789  70.971  1.00  0.00    -0.262 NA 
HETATM   16  C   UNL     1     -11.481   6.485  70.363  1.00  0.00    -0.404 C  
HETATM   17  C   UNL     1     -11.130   6.448  68.868  1.00  0.00    -0.348 C  
HETATM   18  N   UNL     1      -9.695   6.663  68.573  1.00  0.00    -0.130 NA 
HETATM   19  C   UNL     1      -9.199   7.843  69.314  1.00  0.00    -0.148 C  
HETATM   20  C   UNL     1      -9.736   8.061  70.758  1.00  0.00    -0.165 C  
BRANCH  18  21
HETATM   21  C   UNL     1      -8.914   5.432  68.860  1.00  0.00    -0.117 C  
BRANCH  21  22
HETATM   22  C   UNL     1      -8.134   4.994  67.596  1.00  0.00    -0.098 C  
HETATM   23  N   UNL     1      -8.751   5.436  66.439  1.00  0.00    -0.118 N  
HETATM   24  O   UNL     1      -7.075   4.379  67.667  1.00  0.00    -0.062 OA 
HETATM   25  H   UNL     1      -9.595   5.996  66.564  1.00  0.00     0.000 HD 
BRANCH  23  26
HETATM   26  C   UNL     1      -8.353   5.203  65.113  1.00  0.00    -0.141 A  
HETATM   27  C   UNL     1      -8.750   4.069  64.373  1.00  0.00    -0.125 A  
HETATM   28  C   UNL     1      -8.325   3.950  63.037  1.00  0.00    -0.086 A  
HETATM   29  C   UNL     1      -9.658   2.988  64.891  1.00  0.00    -0.099 C  
HETATM   30  C   UNL     1      -7.568   4.948  62.431  1.00  0.00    -0.055 A  
HETATM   31  C   UNL     1      -7.213   6.083  63.151  1.00  0.00    -0.055 A  
HETATM   32  C   UNL     1      -7.598   6.224  64.491  1.00  0.00    -0.099 A  
HETATM   33  C   UNL     1      -7.126   7.432  65.258  1.00  0.00    -0.064 C  
ENDBRANCH  23  26
ENDBRANCH  21  22
ENDBRANCH  18  21
ENDBRANCH  14  15
ENDBRANCH  11  14
ENDBRANCH  10  11
ENDBRANCH   9  10
ENDBRANCH   8   9
ENDBRANCH   2   3
TORSDOF 9
ENDMDL
MODEL      167
REMARK 921   NORMALIZED FREE ENERGY PREDICTED BY IDOCK:   -4.59 KCAL/MOL
REMARK 922        TOTAL FREE ENERGY PREDICTED BY IDOCK:   -8.10 KCAL/MOL
REMARK 923 INTER-LIGAND FREE ENERGY PREDICTED BY IDOCK:   -7.09 KCAL/MOL
REMARK 924 INTRA-LIGAND FREE ENERGY PREDICTED BY IDOCK:   -1.00 KCAL/MOL
REMARK 927      BINDING AFFINITY PREDICTED BY RF-SCORE:    0.00 PKD
ROOT
HETATM    1  C   UNL     1      -9.175   4.509  65.002  1.00  0.00    -0.157 C  
HETATM    2  O   UNL     1      -8.050   5.364  64.821  1.00  0.00    -0.110 OA 
ENDROOT
BRANCH   2   3
HETATM    3  C   UNL     1      -7.368   5.714  65.956  1.00  0.00    -0.077 A  
HETATM    4  C   UNL     1      -7.793   5.278  67.224  1.00  0.00    -0.100 A  
HETATM    5  C   UNL     1      -7.106   5.645  68.380  1.00  0.00    -0.070 A  
HETATM    6  C   UNL     1      -5.974   6.446  68.284  1.00  0.00    -0.017 A  
HETATM    7  C   UNL     1      -5.524   6.858  67.030  1.00  0.00    -0.017 A  
HETATM    8  C   UNL     1      -6.197   6.488  65.856  1.00  0.00    -0.038 A  
BRANCH   8   9
HETATM    9  O   UNL     1      -5.578   6.975  64.732  1.00  0.00    -0.031 OA 
BRANCH   9  10
HETATM   10  C   UNL     1      -6.298   7.884  63.900  1.00  0.00    -0.062 C  
BRANCH  10  11
HETATM   11  C   UNL     1      -5.919   9.333  64.259  1.00  0.00    -0.072 C  
HETATM   12  H   UNL     1      -5.099  10.918  63.366  1.00  0.00     0.000 HD 
HETATM   13  O   UNL     1      -5.332  10.024  63.144  1.00  0.00    -0.089 OA 
BRANCH  11  14
HETATM   14  C   UNL     1      -7.163  10.133  64.726  1.00  0.00    -0.130 C  
BRANCH  14  15
HETATM   15  N   UNL     1      -8.077   9.398  65.623  1.00  0.00    -0.109 NA 
HETATM   16  C   UNL     1      -7.877   9.764  67.033  1.00  0.00    -0.102 C  
HETATM   17  C   UNL     1      -8.263  11.226  67.310  1.00  0.00    -0.140 C  
HETATM   18  N   UNL     1      -9.686  11.540  67.047  1.00  0.00    -0.183 NA 
HETATM   19  C   UNL     1     -10.081  11.018  65.720  1.00  0.00    -0.252 C  
HETATM   20  C   UNL     1      -9.498   9.642  65.289  1.00  0.00    -0.275 C  
BRANCH  18  21
HETATM   21  C   UNL     1     -10.544  11.031  68.146  1.00  0.00    -0.191 C  
BRANCH  21  22
HETATM   22  C   UNL     1     -11.584  12.106  68.548  1.00  0.00    -0.315 C  
HETATM   23  N   UNL     1     -11.432  12.492  69.868  1.00  0.00    -0.515 N  
HETATM   24  O   UNL     1     -12.388  12.565  67.743  1.00  0.00    -0.266 OA 
HETATM   25  H   UNL     1     -10.666  12.055  70.379  1.00  0.00     0.000 HD 
BRANCH  23  26
HETATM   26  C   UNL     1     -12.210  13.415  70.585  1.00  0.00    -0.350 A  
HETATM   27  C   UNL     1     -12.167  14.806  70.357  1.00  0.00    -0.395 A  
HETATM   28  C   UNL     1     -13.016  15.641  71.105  1.00  0.00    -0.539 A  
HETATM   29  C   UNL     1     -11.313  15.473  69.314  1.00  0.00    -0.330 C  
HETATM   30  C   UNL     1     -13.920  15.113  72.022  1.00  0.00    -0.629 A  
HETATM   31  C   UNL     1     -13.988  13.738  72.215  1.00  0.00    -0.672 A  
HETATM   32  C   UNL     1     -13.140  12.877  71.504  1.00  0.00    -0.390 A  
HETATM   33  C   UNL     1     -13.192  11.401  71.800  1.00  0.00    -0.472 C  
ENDBRANCH  23  26
ENDBRANCH  21  22
ENDBRANCH  18  21
ENDBRANCH  14  15
ENDBRANCH  11  14
ENDBRANCH  10  11
ENDBRANCH   9  10
ENDBRANCH   8   9
ENDBRANCH   2   3
TORSDOF 9
ENDMDL
MODEL      168
REMARK 921   NORMALIZED FREE ENERGY PREDICTED BY IDOCK:   -4.54 KCAL/MOL
REMARK 922        TOTAL FREE ENERGY PREDICTED BY IDOCK:   -8.03 KCAL/MOL
REMARK 923 INTER-LIGAND FREE ENERGY PREDICTED BY IDOCK:   -6.88 KCAL/MOL
REMARK 924 INTRA-LIGAND FREE ENERGY PREDICTED BY IDOCK:   -1.15 KCAL/MOL
REMARK 927      BINDING AFFINITY PREDICTED BY RF-SCORE:    0.00 PKD
ROOT
HETATM    1  C   UNL     1      -7.368   6.063  68.138  1.00  0.00    -0.085 C  
HETATM    2  O   UNL     1      -7.706   5.936  69.516  1.00  0.00    -0.092 OA 
ENDROOT
BRANCH   2   3
HETATM    3  C   UNL     1      -8.234   4.732  69.901  1.00  0.00    -0.068 A  
HETATM    4  C   UNL     1      -7.774   3.525  69.344  1.00  0.00    -0.051 A  
HETATM    5  C   UNL     1      -8.321   2.301  69.727  1.00  0.00    -0.076 A  
HETATM    6  C   UNL     1      -9.329   2.265  70.682  1.00  0.00    -0.205 A  
HETATM    7  C   UNL     1      -9.771   3.452  71.265  1.00  0.00    -0.227 A  
HETATM    8  C   UNL     1      -9.224   4.691  70.900  1.00  0.00    -0.141 A  
BRANCH   8   9
HETATM    9  O   UNL     1      -9.779   5.729  71.607  1.00  0.00    -0.159 OA 
BRANCH   9  10
HETATM   10  C   UNL     1     -11.156   5.644  71.971  1.00  0.00    -0.230 C  
BRANCH  10  11
HETATM   11  C   UNL     1     -11.741   7.060  72.133  1.00  0.00    -0.283 C  
HETATM   12  H   UNL     1     -11.538   8.618  73.364  1.00  0.00     0.000 HD 
HETATM   13  O   UNL     1     -11.177   7.745  73.264  1.00  0.00    -0.350 OA 
BRANCH  11  14
HETATM   14  C   UNL     1     -11.481   7.917  70.867  1.00  0.00    -0.281 C  
BRANCH  14  15
HETATM   15  N   UNL     1     -10.895   9.248  71.123  1.00  0.00    -0.308 NA 
HETATM   16  C   UNL     1      -9.490   9.322  70.695  1.00  0.00    -0.272 C  
HETATM   17  C   UNL     1      -9.343   9.195  69.171  1.00  0.00    -0.152 C  
HETATM   18  N   UNL     1     -10.018  10.266  68.403  1.00  0.00    -0.153 NA 
HETATM   19  C   UNL     1     -11.400  10.446  68.896  1.00  0.00    -0.219 C  
HETATM   20  C   UNL     1     -11.636  10.325  70.429  1.00  0.00    -0.328 C  
BRANCH  18  21
HETATM   21  C   UNL     1      -9.222  11.519  68.447  1.00  0.00    -0.190 C  
BRANCH  21  22
HETATM   22  C   UNL     1      -9.361  12.282  67.106  1.00  0.00    -0.196 C  
HETATM   23  N   UNL     1     -10.273  13.319  67.203  1.00  0.00    -0.244 N  
HETATM   24  O   UNL     1      -8.684  11.997  66.124  1.00  0.00    -0.100 OA 
HETATM   25  H   UNL     1     -10.699  13.459  68.119  1.00  0.00     0.000 HD 
BRANCH  23  26
HETATM   26  C   UNL     1     -10.679  14.200  66.188  1.00  0.00    -0.297 A  
HETATM   27  C   UNL     1     -11.630  13.860  65.203  1.00  0.00    -0.340 A  
HETATM   28  C   UNL     1     -11.996  14.830  64.253  1.00  0.00    -0.387 A  
HETATM   29  C   UNL     1     -12.342  12.538  65.126  1.00  0.00    -0.496 C  
HETATM   30  C   UNL     1     -11.473  16.119  64.302  1.00  0.00    -0.099 A  
HETATM   31  C   UNL     1     -10.566  16.462  65.298  1.00  0.00    -0.320 A  
HETATM   32  C   UNL     1     -10.161  15.514  66.248  1.00  0.00    -0.312 A  
HETATM   33  C   UNL     1      -9.118  15.904  67.262  1.00  0.00    -0.218 C  
ENDBRANCH  23  26
ENDBRANCH  21  22
ENDBRANCH  18  21
ENDBRANCH  14  15
ENDBRANCH  11  14
ENDBRANCH  10  11
ENDBRANCH   9  10
ENDBRANCH   8   9
ENDBRANCH   2   3
TORSDOF 9
ENDMDL
MODEL      169
REMARK 921   NORMALIZED FREE ENERGY PREDICTED BY IDOCK:   -4.52 KCAL/MOL
REMARK 922        TOTAL FREE ENERGY PREDICTED BY IDOCK:   -7.99 KCAL/MOL
REMARK 923 INTER-LIGAND FREE ENERGY PREDICTED BY IDOCK:   -7.15 KCAL/MOL
REMARK 924 INTRA-LIGAND FREE ENERGY PREDICTED BY IDOCK:   -0.84 KCAL/MOL
REMARK 927      BINDING AFFINITY PREDICTED BY RF-SCORE:    0.00 PKD
ROOT
HETATM    1  C   UNL     1     -11.028   6.230  67.031  1.00  0.00    -0.364 C  
HETATM    2  O   UNL     1     -10.498   7.321  67.778  1.00  0.00    -0.201 OA 
ENDROOT
BRANCH   2   3
HETATM    3  C   UNL     1      -9.593   8.117  67.127  1.00  0.00    -0.174 A  
HETATM    4  C   UNL     1      -8.806   7.614  66.075  1.00  0.00    -0.186 A  
HETATM    5  C   UNL     1      -7.876   8.420  65.422  1.00  0.00    -0.108 A  
HETATM    6  C   UNL     1      -7.726   9.748  65.803  1.00  0.00    -0.110 A  
HETATM    7  C   UNL     1      -8.523  10.268  66.822  1.00  0.00    -0.123 A  
HETATM    8  C   UNL     1      -9.472   9.473  67.483  1.00  0.00    -0.130 A  
BRANCH   8   9
HETATM    9  O   UNL     1     -10.166  10.180  68.433  1.00  0.00    -0.157 OA 
BRANCH   9  10
HETATM   10  C   UNL     1     -11.419  10.760  68.069  1.00  0.00    -0.256 C  
BRANCH  10  11
HETATM   11  C   UNL     1     -11.333  12.294  68.171  1.00  0.00    -0.295 C  
HETATM   12  H   UNL     1     -10.124  13.664  68.972  1.00  0.00     0.000 HD 
HETATM   13  O   UNL     1     -10.176  12.717  68.910  1.00  0.00    -0.127 OA 
BRANCH  11  14
HETATM   14  C   UNL     1     -11.274  12.941  66.763  1.00  0.00    -0.298 C  
BRANCH  14  15
HETATM   15  N   UNL     1     -12.128  14.134  66.586  1.00  0.00    -0.447 NA 
HETATM   16  C   UNL     1     -11.722  15.235  67.471  1.00  0.00    -0.140 C  
HETATM   17  C   UNL     1     -10.331  15.782  67.114  1.00  0.00    -0.291 C  
HETATM   18  N   UNL     1     -10.233  16.351  65.750  1.00  0.00    -0.435 NA 
HETATM   19  C   UNL     1     -10.820  15.413  64.769  1.00  0.00    -0.364 C  
HETATM   20  C   UNL     1     -12.099  14.637  65.195  1.00  0.00    -0.308 C  
BRANCH  18  21
HETATM   21  C   UNL     1     -10.854  17.699  65.702  1.00  0.00     0.035 C  
BRANCH  21  22
HETATM   22  C   UNL     1      -9.958  18.721  66.445  1.00  0.00    -0.392 C  
HETATM   23  N   UNL     1      -8.615  18.479  66.219  1.00  0.00    -0.251 N  
HETATM   24  O   UNL     1     -10.432  19.646  67.097  1.00  0.00    -0.419 OA 
HETATM   25  H   UNL     1      -8.396  17.704  65.593  1.00  0.00     0.000 HD 
BRANCH  23  26
HETATM   26  C   UNL     1      -7.518  19.175  66.750  1.00  0.00    -0.224 A  
HETATM   27  C   UNL     1      -6.797  20.151  66.030  1.00  0.00    -0.279 A  
HETATM   28  C   UNL     1      -5.737  20.818  66.668  1.00  0.00    -0.250 A  
HETATM   29  C   UNL     1      -7.118  20.584  64.626  1.00  0.00     0.150 C  
HETATM   30  C   UNL     1      -5.425  20.564  68.001  1.00  0.00    -0.256 A  
HETATM   31  C   UNL     1      -6.164  19.632  68.720  1.00  0.00    -0.292 A  
HETATM   32  C   UNL     1      -7.212  18.930  68.109  1.00  0.00    -0.278 A  
HETATM   33  C   UNL     1      -7.936  17.873  68.900  1.00  0.00    -0.175 C  
ENDBRANCH  23  26
ENDBRANCH  21  22
ENDBRANCH  18  21
ENDBRANCH  14  15
ENDBRANCH  11  14
ENDBRANCH  10  11
ENDBRANCH   9  10
ENDBRANCH   8   9
ENDBRANCH   2   3
TORSDOF 9
ENDMDL
MODEL      170
REMARK 921   NORMALIZED FREE ENERGY PREDICTED BY IDOCK:   -4.50 KCAL/MOL
REMARK 922        TOTAL FREE ENERGY PREDICTED BY IDOCK:   -7.97 KCAL/MOL
REMARK 923 INTER-LIGAND FREE ENERGY PREDICTED BY IDOCK:   -6.90 KCAL/MOL
REMARK 924 INTRA-LIGAND FREE ENERGY PREDICTED BY IDOCK:   -1.07 KCAL/MOL
REMARK 927      BINDING AFFINITY PREDICTED BY RF-SCORE:    0.00 PKD
ROOT
HETATM    1  C   UNL     1     -12.021  13.856  68.836  1.00  0.00    -0.358 C  
HETATM    2  O   UNL     1     -10.910  13.879  67.945  1.00  0.00    -0.239 OA 
ENDROOT
BRANCH   2   3
HETATM    3  C   UNL     1     -11.126  14.462  66.724  1.00  0.00    -0.323 A  
HETATM    4  C   UNL     1     -11.604  13.712  65.634  1.00  0.00    -0.342 A  
HETATM    5  C   UNL     1     -11.811  14.304  64.389  1.00  0.00    -0.444 A  
HETATM    6  C   UNL     1     -11.553  15.658  64.218  1.00  0.00    -0.191 A  
HETATM    7  C   UNL     1     -11.110  16.419  65.299  1.00  0.00    -0.117 A  
HETATM    8  C   UNL     1     -10.907  15.843  66.562  1.00  0.00    -0.198 A  
BRANCH   8   9
HETATM    9  O   UNL     1     -10.494  16.765  67.490  1.00  0.00    -0.308 OA 
BRANCH   9  10
HETATM   10  C   UNL     1      -9.500  17.716  67.109  1.00  0.00    -0.267 C  
BRANCH  10  11
HETATM   11  C   UNL     1      -8.168  16.994  66.829  1.00  0.00    -0.238 C  
HETATM   12  H   UNL     1      -6.707  17.051  65.472  1.00  0.00     0.000 HD 
HETATM   13  O   UNL     1      -7.528  17.496  65.645  1.00  0.00    -0.462 OA 
BRANCH  11  14
HETATM   14  C   UNL     1      -7.187  17.158  68.018  1.00  0.00    -0.184 C  
BRANCH  14  15
HETATM   15  N   UNL     1      -7.450  16.273  69.172  1.00  0.00    -0.214 NA 
HETATM   16  C   UNL     1      -8.043  14.993  68.758  1.00  0.00    -0.166 C  
HETATM   17  C   UNL     1      -7.070  14.148  67.921  1.00  0.00    -0.160 C  
HETATM   18  N   UNL     1      -5.830  13.765  68.634  1.00  0.00    -0.083 NA 
HETATM   19  C   UNL     1      -5.239  14.950  69.292  1.00  0.00    -0.090 C  
HETATM   20  C   UNL     1      -6.217  15.975  69.935  1.00  0.00    -0.154 C  
BRANCH  18  21
HETATM   21  C   UNL     1      -6.095  12.652  69.580  1.00  0.00    -0.128 C  
BRANCH  21  22
HETATM   22  C   UNL     1      -6.665  11.431  68.816  1.00  0.00    -0.073 C  
HETATM   23  N   UNL     1      -8.039  11.344  68.949  1.00  0.00    -0.303 N  
HETATM   24  O   UNL     1      -5.950  10.694  68.145  1.00  0.00    -0.047 OA 
HETATM   25  H   UNL     1      -8.487  12.083  69.491  1.00  0.00     0.000 HD 
BRANCH  23  26
HETATM   26  C   UNL     1      -8.890  10.356  68.426  1.00  0.00    -0.136 A  
HETATM   27  C   UNL     1      -9.293  10.319  67.075  1.00  0.00    -0.177 A  
HETATM   28  C   UNL     1     -10.117   9.264  66.643  1.00  0.00    -0.341 A  
HETATM   29  C   UNL     1      -8.854  11.304  66.026  1.00  0.00    -0.189 C  
HETATM   30  C   UNL     1     -10.494   8.245  67.512  1.00  0.00    -0.325 A  
HETATM   31  C   UNL     1     -10.062   8.263  68.832  1.00  0.00    -0.208 A  
HETATM   32  C   UNL     1      -9.259   9.311  69.303  1.00  0.00    -0.152 A  
HETATM   33  C   UNL     1      -8.877   9.334  70.760  1.00  0.00    -0.282 C  
ENDBRANCH  23  26
ENDBRANCH  21  22
ENDBRANCH  18  21
ENDBRANCH  14  15
ENDBRANCH  11  14
ENDBRANCH  10  11
ENDBRANCH   9  10
ENDBRANCH   8   9
ENDBRANCH   2   3
TORSDOF 9
ENDMDL
MODEL      171
REMARK 921   NORMALIZED FREE ENERGY PREDICTED BY IDOCK:   -4.50 KCAL/MOL
REMARK 922        TOTAL FREE ENERGY PREDICTED BY IDOCK:   -7.96 KCAL/MOL
REMARK 923 INTER-LIGAND FREE ENERGY PREDICTED BY IDOCK:   -7.41 KCAL/MOL
REMARK 924 INTRA-LIGAND FREE ENERGY PREDICTED BY IDOCK:   -0.55 KCAL/MOL
REMARK 927      BINDING AFFINITY PREDICTED BY RF-SCORE:    0.00 PKD
ROOT
HETATM    1  C   UNL     1     -13.239  15.473  71.234  1.00  0.00    -0.515 C  
HETATM    2  O   UNL     1     -12.620  14.692  70.217  1.00  0.00    -0.342 OA 
ENDROOT
BRANCH   2   3
HETATM    3  C   UNL     1     -11.792  15.365  69.357  1.00  0.00    -0.351 A  
HETATM    4  C   UNL     1     -10.985  16.426  69.805  1.00  0.00    -0.341 A  
HETATM    5  C   UNL     1     -10.153  17.119  68.927  1.00  0.00    -0.322 A  
HETATM    6  C   UNL     1     -10.106  16.752  67.588  1.00  0.00    -0.275 A  
HETATM    7  C   UNL     1     -10.876  15.680  67.138  1.00  0.00    -0.297 A  
HETATM    8  C   UNL     1     -11.711  14.965  68.010  1.00  0.00    -0.320 A  
BRANCH   8   9
HETATM    9  O   UNL     1     -12.361  13.936  67.375  1.00  0.00    -0.316 OA 
BRANCH   9  10
HETATM   10  C   UNL     1     -12.387  13.926  65.949  1.00  0.00    -0.483 C  
BRANCH  10  11
HETATM   11  C   UNL     1     -11.760  12.619  65.425  1.00  0.00    -0.387 C  
HETATM   12  H   UNL     1     -10.159  12.059  64.374  1.00  0.00     0.000 HD 
HETATM   13  O   UNL     1     -10.546  12.864  64.697  1.00  0.00    -0.323 OA 
BRANCH  11  14
HETATM   14  C   UNL     1     -11.439  11.650  66.592  1.00  0.00    -0.206 C  
BRANCH  14  15
HETATM   15  N   UNL     1     -10.091  11.801  67.178  1.00  0.00    -0.202 NA 
HETATM   16  C   UNL     1     -10.148  12.090  68.618  1.00  0.00    -0.160 C  
HETATM   17  C   UNL     1     -10.716  10.910  69.422  1.00  0.00    -0.225 C  
HETATM   18  N   UNL     1      -9.916   9.668  69.328  1.00  0.00    -0.180 NA 
HETATM   19  C   UNL     1      -9.599   9.379  67.912  1.00  0.00    -0.134 C  
HETATM   20  C   UNL     1      -9.266  10.588  66.991  1.00  0.00    -0.150 C  
BRANCH  18  21
HETATM   21  C   UNL     1      -8.706   9.760  70.183  1.00  0.00    -0.180 C  
BRANCH  21  22
HETATM   22  C   UNL     1      -8.491   8.428  70.942  1.00  0.00    -0.140 C  
HETATM   23  N   UNL     1      -8.824   7.337  70.159  1.00  0.00    -0.144 N  
HETATM   24  O   UNL     1      -8.029   8.394  72.078  1.00  0.00    -0.127 OA 
HETATM   25  H   UNL     1      -9.130   7.542  69.208  1.00  0.00     0.000 HD 
BRANCH  23  26
HETATM   26  C   UNL     1      -8.789   5.980  70.520  1.00  0.00    -0.145 A  
HETATM   27  C   UNL     1      -7.613   5.202  70.494  1.00  0.00    -0.071 A  
HETATM   28  C   UNL     1      -7.679   3.861  70.913  1.00  0.00    -0.051 A  
HETATM   29  C   UNL     1      -6.256   5.721  70.105  1.00  0.00    -0.027 C  
HETATM   30  C   UNL     1      -8.866   3.315  71.391  1.00  0.00    -0.136 A  
HETATM   31  C   UNL     1     -10.014   4.096  71.453  1.00  0.00    -0.223 A  
HETATM   32  C   UNL     1      -9.990   5.430  71.022  1.00  0.00    -0.261 A  
HETATM   33  C   UNL     1     -11.274   6.218  71.032  1.00  0.00    -0.372 C  
ENDBRANCH  23  26
ENDBRANCH  21  22
ENDBRANCH  18  21
ENDBRANCH  14  15
ENDBRANCH  11  14
ENDBRANCH  10  11
ENDBRANCH   9  10
ENDBRANCH   8   9
ENDBRANCH   2   3
TORSDOF 9
ENDMDL
MODEL      172
REMARK 921   NORMALIZED FREE ENERGY PREDICTED BY IDOCK:   -4.50 KCAL/MOL
REMARK 922        TOTAL FREE ENERGY PREDICTED BY IDOCK:   -7.95 KCAL/MOL
REMARK 923 INTER-LIGAND FREE ENERGY PREDICTED BY IDOCK:   -6.33 KCAL/MOL
REMARK 924 INTRA-LIGAND FREE ENERGY PREDICTED BY IDOCK:   -1.62 KCAL/MOL
REMARK 927      BINDING AFFINITY PREDICTED BY RF-SCORE:    0.00 PKD
ROOT
HETATM    1  C   UNL     1      -7.444   7.929  73.872  1.00  0.00    -0.151 C  
HETATM    2  O   UNL     1      -7.824   7.895  72.500  1.00  0.00    -0.100 OA 
ENDROOT
BRANCH   2   3
HETATM    3  C   UNL     1      -9.144   7.630  72.244  1.00  0.00    -0.140 A  
HETATM    4  C   UNL     1     -10.058   8.667  71.987  1.00  0.00    -0.401 A  
HETATM    5  C   UNL     1     -11.403   8.397  71.740  1.00  0.00    -0.366 A  
HETATM    6  C   UNL     1     -11.852   7.082  71.736  1.00  0.00    -0.347 A  
HETATM    7  C   UNL     1     -10.949   6.043  71.957  1.00  0.00    -0.313 A  
HETATM    8  C   UNL     1      -9.591   6.296  72.196  1.00  0.00    -0.150 A  
BRANCH   8   9
HETATM    9  O   UNL     1      -8.872   5.139  72.364  1.00  0.00    -0.127 OA 
BRANCH   9  10
HETATM   10  C   UNL     1      -9.470   3.903  71.976  1.00  0.00    -0.136 C  
BRANCH  10  11
HETATM   11  C   UNL     1      -8.740   3.333  70.746  1.00  0.00    -0.075 C  
HETATM   12  H   UNL     1      -8.274   1.545  69.992  1.00  0.00     0.000 HD 
HETATM   13  O   UNL     1      -8.725   1.897  70.751  1.00  0.00    -0.050 OA 
BRANCH  11  14
HETATM   14  C   UNL     1      -9.412   3.807  69.431  1.00  0.00    -0.187 C  
BRANCH  14  15
HETATM   15  N   UNL     1      -8.482   4.077  68.316  1.00  0.00    -0.091 NA 
HETATM   16  C   UNL     1      -9.177   4.622  67.141  1.00  0.00    -0.129 C  
HETATM   17  C   UNL     1      -9.765   6.016  67.412  1.00  0.00    -0.115 C  
HETATM   18  N   UNL     1      -8.758   7.046  67.753  1.00  0.00    -0.122 NA 
HETATM   19  C   UNL     1      -7.840   6.529  68.792  1.00  0.00    -0.110 C  
HETATM   20  C   UNL     1      -7.419   5.034  68.697  1.00  0.00    -0.070 C  
BRANCH  18  21
HETATM   21  C   UNL     1      -8.047   7.505  66.532  1.00  0.00    -0.120 C  
BRANCH  21  22
HETATM   22  C   UNL     1      -8.271   9.024  66.329  1.00  0.00    -0.115 C  
HETATM   23  N   UNL     1      -9.617   9.334  66.254  1.00  0.00    -0.226 N  
HETATM   24  O   UNL     1      -7.338   9.820  66.299  1.00  0.00    -0.096 OA 
HETATM   25  H   UNL     1     -10.266   8.555  66.365  1.00  0.00     0.000 HD 
BRANCH  23  26
HETATM   26  C   UNL     1     -10.195  10.596  66.042  1.00  0.00    -0.247 A  
HETATM   27  C   UNL     1     -10.311  11.191  64.768  1.00  0.00    -0.387 A  
HETATM   28  C   UNL     1     -10.941  12.443  64.660  1.00  0.00    -0.344 A  
HETATM   29  C   UNL     1      -9.858  10.551  63.484  1.00  0.00    -0.339 C  
HETATM   30  C   UNL     1     -11.487  13.072  65.775  1.00  0.00    -0.367 A  
HETATM   31  C   UNL     1     -11.408  12.464  67.022  1.00  0.00    -0.388 A  
HETATM   32  C   UNL     1     -10.766  11.227  67.171  1.00  0.00    -0.297 A  
HETATM   33  C   UNL     1     -10.633  10.641  68.552  1.00  0.00    -0.229 C  
ENDBRANCH  23  26
ENDBRANCH  21  22
ENDBRANCH  18  21
ENDBRANCH  14  15
ENDBRANCH  11  14
ENDBRANCH  10  11
ENDBRANCH   9  10
ENDBRANCH   8   9
ENDBRANCH   2   3
TORSDOF 9
ENDMDL
MODEL      173
REMARK 921   NORMALIZED FREE ENERGY PREDICTED BY IDOCK:   -4.48 KCAL/MOL
REMARK 922        TOTAL FREE ENERGY PREDICTED BY IDOCK:   -7.93 KCAL/MOL
REMARK 923 INTER-LIGAND FREE ENERGY PREDICTED BY IDOCK:   -6.83 KCAL/MOL
REMARK 924 INTRA-LIGAND FREE ENERGY PREDICTED BY IDOCK:   -1.10 KCAL/MOL
REMARK 927      BINDING AFFINITY PREDICTED BY RF-SCORE:    0.00 PKD
ROOT
HETATM    1  C   UNL     1     -10.195   8.793  71.056  1.00  0.00    -0.237 C  
HETATM    2  O   UNL     1      -9.333   7.696  71.344  1.00  0.00    -0.140 OA 
ENDROOT
BRANCH   2   3
HETATM    3  C   UNL     1      -9.803   6.779  72.247  1.00  0.00    -0.155 A  
HETATM    4  C   UNL     1      -9.826   7.060  73.625  1.00  0.00    -0.318 A  
HETATM    5  C   UNL     1     -10.292   6.122  74.544  1.00  0.00    -0.242 A  
HETATM    6  C   UNL     1     -10.754   4.889  74.098  1.00  0.00    -0.318 A  
HETATM    7  C   UNL     1     -10.766   4.611  72.732  1.00  0.00    -0.273 A  
HETATM    8  C   UNL     1     -10.312   5.548  71.792  1.00  0.00    -0.216 A  
BRANCH   8   9
HETATM    9  O   UNL     1     -10.432   5.088  70.504  1.00  0.00    -0.240 OA 
BRANCH   9  10
HETATM   10  C   UNL     1      -9.367   4.310  69.958  1.00  0.00    -0.164 C  
BRANCH  10  11
HETATM   11  C   UNL     1      -8.292   5.240  69.364  1.00  0.00    -0.095 C  
HETATM   12  H   UNL     1      -6.331   5.552  69.552  1.00  0.00     0.000 HD 
HETATM   13  O   UNL     1      -6.993   4.978  69.919  1.00  0.00    -0.050 OA 
BRANCH  11  14
HETATM   14  C   UNL     1      -8.206   5.077  67.825  1.00  0.00    -0.098 C  
BRANCH  14  15
HETATM   15  N   UNL     1      -9.344   5.640  67.071  1.00  0.00    -0.116 NA 
HETATM   16  C   UNL     1      -9.778   6.934  67.618  1.00  0.00    -0.127 C  
HETATM   17  C   UNL     1      -8.708   8.023  67.443  1.00  0.00    -0.124 C  
HETATM   18  N   UNL     1      -8.363   8.317  66.033  1.00  0.00    -0.121 NA 
HETATM   19  C   UNL     1      -8.113   7.056  65.302  1.00  0.00    -0.134 C  
HETATM   20  C   UNL     1      -9.021   5.838  65.641  1.00  0.00    -0.112 C  
BRANCH  18  21
HETATM   21  C   UNL     1      -9.417   9.151  65.401  1.00  0.00    -0.160 C  
BRANCH  21  22
HETATM   22  C   UNL     1      -9.376  10.586  65.982  1.00  0.00    -0.178 C  
HETATM   23  N   UNL     1     -10.649  11.103  66.148  1.00  0.00    -0.260 N  
HETATM   24  O   UNL     1      -8.322  11.132  66.291  1.00  0.00    -0.168 OA 
HETATM   25  H   UNL     1     -11.422  10.486  65.901  1.00  0.00     0.000 HD 
BRANCH  23  26
HETATM   26  C   UNL     1     -11.000  12.380  66.617  1.00  0.00    -0.268 A  
HETATM   27  C   UNL     1     -10.898  13.548  65.832  1.00  0.00    -0.279 A  
HETATM   28  C   UNL     1     -11.313  14.772  66.384  1.00  0.00    -0.339 A  
HETATM   29  C   UNL     1     -10.430  13.576  64.403  1.00  0.00    -0.366 C  
HETATM   30  C   UNL     1     -11.859  14.837  67.662  1.00  0.00    -0.319 A  
HETATM   31  C   UNL     1     -11.996  13.679  68.417  1.00  0.00    -0.391 A  
HETATM   32  C   UNL     1     -11.571  12.443  67.908  1.00  0.00    -0.415 A  
HETATM   33  C   UNL     1     -11.664  11.225  68.789  1.00  0.00    -0.405 C  
ENDBRANCH  23  26
ENDBRANCH  21  22
ENDBRANCH  18  21
ENDBRANCH  14  15
ENDBRANCH  11  14
ENDBRANCH  10  11
ENDBRANCH   9  10
ENDBRANCH   8   9
ENDBRANCH   2   3
TORSDOF 9
ENDMDL
MODEL      174
REMARK 921   NORMALIZED FREE ENERGY PREDICTED BY IDOCK:   -4.43 KCAL/MOL
REMARK 922        TOTAL FREE ENERGY PREDICTED BY IDOCK:   -7.86 KCAL/MOL
REMARK 923 INTER-LIGAND FREE ENERGY PREDICTED BY IDOCK:   -7.10 KCAL/MOL
REMARK 924 INTRA-LIGAND FREE ENERGY PREDICTED BY IDOCK:   -0.76 KCAL/MOL
REMARK 927      BINDING AFFINITY PREDICTED BY RF-SCORE:    0.00 PKD
ROOT
HETATM    1  C   UNL     1     -10.528  14.310  65.010  1.00  0.00    -0.435 C  
HETATM    2  O   UNL     1     -11.221  15.339  65.711  1.00  0.00    -0.325 OA 
ENDROOT
BRANCH   2   3
HETATM    3  C   UNL     1     -11.406  15.138  67.053  1.00  0.00    -0.277 A  
HETATM    4  C   UNL     1     -11.781  13.879  67.556  1.00  0.00    -0.416 A  
HETATM    5  C   UNL     1     -11.982  13.678  68.920  1.00  0.00    -0.392 A  
HETATM    6  C   UNL     1     -11.799  14.733  69.806  1.00  0.00    -0.362 A  
HETATM    7  C   UNL     1     -11.396  15.978  69.324  1.00  0.00    -0.356 A  
HETATM    8  C   UNL     1     -11.179  16.194  67.955  1.00  0.00    -0.291 A  
BRANCH   8   9
HETATM    9  O   UNL     1     -10.765  17.476  67.695  1.00  0.00    -0.362 OA 
BRANCH   9  10
HETATM   10  C   UNL     1     -10.211  17.765  66.412  1.00  0.00    -0.365 C  
BRANCH  10  11
HETATM   11  C   UNL     1      -8.674  17.674  66.474  1.00  0.00    -0.263 C  
HETATM   12  H   UNL     1      -7.099  18.746  65.881  1.00  0.00     0.000 HD 
HETATM   13  O   UNL     1      -8.046  18.802  65.843  1.00  0.00    -0.476 OA 
BRANCH  11  14
HETATM   14  C   UNL     1      -8.181  17.602  67.942  1.00  0.00    -0.234 C  
BRANCH  14  15
HETATM   15  N   UNL     1      -6.962  16.796  68.153  1.00  0.00    -0.153 NA 
HETATM   16  C   UNL     1      -6.976  16.108  69.452  1.00  0.00    -0.220 C  
HETATM   17  C   UNL     1      -8.082  15.043  69.529  1.00  0.00    -0.122 C  
HETATM   18  N   UNL     1      -7.946  13.952  68.537  1.00  0.00    -0.141 NA 
HETATM   19  C   UNL     1      -7.703  14.520  67.193  1.00  0.00    -0.062 C  
HETATM   20  C   UNL     1      -6.783  15.772  67.100  1.00  0.00    -0.092 C  
BRANCH  18  21
HETATM   21  C   UNL     1      -6.894  12.993  68.957  1.00  0.00    -0.081 C  
BRANCH  21  22
HETATM   22  C   UNL     1      -7.274  11.560  68.508  1.00  0.00    -0.096 C  
HETATM   23  N   UNL     1      -7.926  10.868  69.513  1.00  0.00    -0.373 N  
HETATM   24  O   UNL     1      -7.049  11.154  67.372  1.00  0.00    -0.091 OA 
HETATM   25  H   UNL     1      -8.092  11.381  70.379  1.00  0.00     0.000 HD 
BRANCH  23  26
HETATM   26  C   UNL     1      -8.388   9.542  69.480  1.00  0.00    -0.145 A  
HETATM   27  C   UNL     1      -9.706   9.190  69.121  1.00  0.00    -0.163 A  
HETATM   28  C   UNL     1     -10.055   7.828  69.083  1.00  0.00    -0.196 A  
HETATM   29  C   UNL     1     -10.768  10.171  68.709  1.00  0.00    -0.247 C  
HETATM   30  C   UNL     1      -9.116   6.836  69.345  1.00  0.00    -0.144 A  
HETATM   31  C   UNL     1      -7.808   7.186  69.659  1.00  0.00    -0.118 A  
HETATM   32  C   UNL     1      -7.429   8.534  69.730  1.00  0.00    -0.071 A  
HETATM   33  C   UNL     1      -6.022   8.871  70.150  1.00  0.00    -0.033 C  
ENDBRANCH  23  26
ENDBRANCH  21  22
ENDBRANCH  18  21
ENDBRANCH  14  15
ENDBRANCH  11  14
ENDBRANCH  10  11
ENDBRANCH   9  10
ENDBRANCH   8   9
ENDBRANCH   2   3
TORSDOF 9
ENDMDL
MODEL      175
REMARK 921   NORMALIZED FREE ENERGY PREDICTED BY IDOCK:   -4.43 KCAL/MOL
REMARK 922        TOTAL FREE ENERGY PREDICTED BY IDOCK:   -7.85 KCAL/MOL
REMARK 923 INTER-LIGAND FREE ENERGY PREDICTED BY IDOCK:   -7.43 KCAL/MOL
REMARK 924 INTRA-LIGAND FREE ENERGY PREDICTED BY IDOCK:   -0.42 KCAL/MOL
REMARK 927      BINDING AFFINITY PREDICTED BY RF-SCORE:    0.00 PKD
ROOT
HETATM    1  C   UNL     1     -12.610  12.364  64.261  1.00  0.00    -0.401 C  
HETATM    2  O   UNL     1     -12.222  12.344  65.632  1.00  0.00    -0.599 OA 
ENDROOT
BRANCH   2   3
HETATM    3  C   UNL     1     -11.161  11.538  65.948  1.00  0.00    -0.214 A  
HETATM    4  C   UNL     1     -10.103  11.338  65.043  1.00  0.00    -0.331 A  
HETATM    5  C   UNL     1      -9.030  10.507  65.361  1.00  0.00    -0.207 A  
HETATM    6  C   UNL     1      -8.993   9.870  66.595  1.00  0.00    -0.157 A  
HETATM    7  C   UNL     1     -10.020  10.085  67.514  1.00  0.00    -0.232 A  
HETATM    8  C   UNL     1     -11.101  10.928  67.215  1.00  0.00    -0.283 A  
BRANCH   8   9
HETATM    9  O   UNL     1     -11.986  11.022  68.260  1.00  0.00    -0.593 OA 
BRANCH   9  10
HETATM   10  C   UNL     1     -11.995  12.219  69.037  1.00  0.00    -0.248 C  
BRANCH  10  11
HETATM   11  C   UNL     1     -11.989  11.868  70.537  1.00  0.00    -0.267 C  
HETATM   12  H   UNL     1     -12.770  12.578  72.231  1.00  0.00     0.000 HD 
HETATM   13  O   UNL     1     -12.773  12.794  71.306  1.00  0.00    -0.368 OA 
BRANCH  11  14
HETATM   14  C   UNL     1     -12.550  10.442  70.776  1.00  0.00    -0.371 C  
BRANCH  14  15
HETATM   15  N   UNL     1     -11.835   9.653  71.800  1.00  0.00    -0.375 NA 
HETATM   16  C   UNL     1     -12.598   8.463  72.207  1.00  0.00    -0.349 C  
HETATM   17  C   UNL     1     -12.740   7.448  71.062  1.00  0.00    -0.205 C  
HETATM   18  N   UNL     1     -11.454   6.908  70.565  1.00  0.00    -0.322 NA 
HETATM   19  C   UNL     1     -10.503   8.014  70.320  1.00  0.00    -0.222 C  
HETATM   20  C   UNL     1     -10.508   9.200  71.327  1.00  0.00    -0.328 C  
BRANCH  18  21
HETATM   21  C   UNL     1     -10.920   5.886  71.501  1.00  0.00    -0.262 C  
BRANCH  21  22
HETATM   22  C   UNL     1      -9.684   5.192  70.878  1.00  0.00    -0.188 C  
HETATM   23  N   UNL     1      -9.176   5.917  69.814  1.00  0.00    -0.143 N  
HETATM   24  O   UNL     1      -9.219   4.155  71.340  1.00  0.00    -0.121 OA 
HETATM   25  H   UNL     1      -9.647   6.796  69.602  1.00  0.00     0.000 HD 
BRANCH  23  26
HETATM   26  C   UNL     1      -8.088   5.583  68.991  1.00  0.00    -0.095 A  
HETATM   27  C   UNL     1      -8.178   4.667  67.922  1.00  0.00    -0.099 A  
HETATM   28  C   UNL     1      -7.037   4.431  67.135  1.00  0.00    -0.068 A  
HETATM   29  C   UNL     1      -9.438   3.955  67.513  1.00  0.00    -0.236 C  
HETATM   30  C   UNL     1      -5.849   5.118  67.366  1.00  0.00    -0.021 A  
HETATM   31  C   UNL     1      -5.776   6.050  68.395  1.00  0.00    -0.012 A  
HETATM   32  C   UNL     1      -6.886   6.293  69.215  1.00  0.00    -0.062 A  
HETATM   33  C   UNL     1      -6.741   7.252  70.367  1.00  0.00    -0.052 C  
ENDBRANCH  23  26
ENDBRANCH  21  22
ENDBRANCH  18  21
ENDBRANCH  14  15
ENDBRANCH  11  14
ENDBRANCH  10  11
ENDBRANCH   9  10
ENDBRANCH   8   9
ENDBRANCH   2   3
TORSDOF 9
ENDMDL
MODEL      176
REMARK 921   NORMALIZED FREE ENERGY PREDICTED BY IDOCK:   -4.42 KCAL/MOL
REMARK 922        TOTAL FREE ENERGY PREDICTED BY IDOCK:   -7.84 KCAL/MOL
REMARK 923 INTER-LIGAND FREE ENERGY PREDICTED BY IDOCK:   -6.82 KCAL/MOL
REMARK 924 INTRA-LIGAND FREE ENERGY PREDICTED BY IDOCK:   -1.02 KCAL/MOL
REMARK 927      BINDING AFFINITY PREDICTED BY RF-SCORE:    0.00 PKD
ROOT
HETATM    1  C   UNL     1     -11.299   7.829  72.765  1.00  0.00    -0.389 C  
HETATM    2  O   UNL     1     -11.165   6.629  72.009  1.00  0.00    -0.244 OA 
ENDROOT
BRANCH   2   3
HETATM    3  C   UNL     1     -10.535   5.587  72.636  1.00  0.00    -0.215 A  
HETATM    4  C   UNL     1     -11.269   4.568  73.269  1.00  0.00    -0.388 A  
HETATM    5  C   UNL     1     -10.627   3.514  73.918  1.00  0.00    -0.281 A  
HETATM    6  C   UNL     1      -9.239   3.457  73.934  1.00  0.00    -0.099 A  
HETATM    7  C   UNL     1      -8.500   4.444  73.281  1.00  0.00    -0.098 A  
HETATM    8  C   UNL     1      -9.130   5.505  72.614  1.00  0.00    -0.138 A  
BRANCH   8   9
HETATM    9  O   UNL     1      -8.226   6.349  72.019  1.00  0.00    -0.109 OA 
BRANCH   9  10
HETATM   10  C   UNL     1      -7.482   5.871  70.900  1.00  0.00    -0.091 C  
BRANCH  10  11
HETATM   11  C   UNL     1      -7.080   7.051  69.996  1.00  0.00    -0.070 C  
HETATM   12  H   UNL     1      -5.498   7.631  68.927  1.00  0.00     0.000 HD 
HETATM   13  O   UNL     1      -5.746   6.903  69.484  1.00  0.00    -0.015 OA 
BRANCH  11  14
HETATM   14  C   UNL     1      -8.050   7.185  68.793  1.00  0.00    -0.121 C  
BRANCH  14  15
HETATM   15  N   UNL     1      -9.444   7.519  69.149  1.00  0.00    -0.150 NA 
HETATM   16  C   UNL     1      -9.549   8.844  69.777  1.00  0.00    -0.171 C  
HETATM   17  C   UNL     1      -9.187   9.976  68.803  1.00  0.00    -0.159 C  
HETATM   18  N   UNL     1     -10.068  10.062  67.616  1.00  0.00    -0.179 NA 
HETATM   19  C   UNL     1     -10.224   8.723  67.006  1.00  0.00    -0.281 C  
HETATM   20  C   UNL     1     -10.336   7.506  67.968  1.00  0.00    -0.204 C  
BRANCH  18  21
HETATM   21  C   UNL     1     -11.366  10.688  67.974  1.00  0.00    -0.278 C  
BRANCH  21  22
HETATM   22  C   UNL     1     -11.312  12.211  67.700  1.00  0.00    -0.314 C  
HETATM   23  N   UNL     1     -10.603  12.880  68.683  1.00  0.00    -0.289 N  
HETATM   24  O   UNL     1     -11.807  12.708  66.694  1.00  0.00    -0.389 OA 
HETATM   25  H   UNL     1     -10.199  12.301  69.419  1.00  0.00     0.000 HD 
BRANCH  23  26
HETATM   26  C   UNL     1     -10.376  14.262  68.785  1.00  0.00    -0.239 A  
HETATM   27  C   UNL     1      -9.357  14.933  68.077  1.00  0.00    -0.193 A  
HETATM   28  C   UNL     1      -9.238  16.327  68.221  1.00  0.00    -0.197 A  
HETATM   29  C   UNL     1      -8.408  14.271  67.116  1.00  0.00    -0.202 C  
HETATM   30  C   UNL     1     -10.133  17.048  69.006  1.00  0.00    -0.290 A  
HETATM   31  C   UNL     1     -11.160  16.388  69.670  1.00  0.00    -0.306 A  
HETATM   32  C   UNL     1     -11.295  14.997  69.568  1.00  0.00    -0.308 A  
HETATM   33  C   UNL     1     -12.374  14.312  70.366  1.00  0.00    -0.419 C  
ENDBRANCH  23  26
ENDBRANCH  21  22
ENDBRANCH  18  21
ENDBRANCH  14  15
ENDBRANCH  11  14
ENDBRANCH  10  11
ENDBRANCH   9  10
ENDBRANCH   8   9
ENDBRANCH   2   3
TORSDOF 9
ENDMDL
MODEL      177
REMARK 921   NORMALIZED FREE ENERGY PREDICTED BY IDOCK:   -4.41 KCAL/MOL
REMARK 922        TOTAL FREE ENERGY PREDICTED BY IDOCK:   -7.83 KCAL/MOL
REMARK 923 INTER-LIGAND FREE ENERGY PREDICTED BY IDOCK:   -6.84 KCAL/MOL
REMARK 924 INTRA-LIGAND FREE ENERGY PREDICTED BY IDOCK:   -0.99 KCAL/MOL
REMARK 927      BINDING AFFINITY PREDICTED BY RF-SCORE:    0.00 PKD
ROOT
HETATM    1  C   UNL     1      -8.908   8.449  73.187  1.00  0.00    -0.147 C  
HETATM    2  O   UNL     1      -8.717   8.431  71.775  1.00  0.00    -0.146 OA 
ENDROOT
BRANCH   2   3
HETATM    3  C   UNL     1      -9.350   7.426  71.092  1.00  0.00    -0.155 A  
HETATM    4  C   UNL     1      -9.050   6.075  71.343  1.00  0.00    -0.149 A  
HETATM    5  C   UNL     1      -9.685   5.054  70.638  1.00  0.00    -0.266 A  
HETATM    6  C   UNL     1     -10.639   5.369  69.678  1.00  0.00    -0.328 A  
HETATM    7  C   UNL     1     -10.969   6.703  69.444  1.00  0.00    -0.361 A  
HETATM    8  C   UNL     1     -10.348   7.743  70.152  1.00  0.00    -0.218 A  
BRANCH   8   9
HETATM    9  O   UNL     1     -10.832   8.975  69.789  1.00  0.00    -0.231 OA 
BRANCH   9  10
HETATM   10  C   UNL     1     -10.698   9.385  68.429  1.00  0.00    -0.168 C  
BRANCH  10  11
HETATM   11  C   UNL     1      -9.259   9.125  67.944  1.00  0.00    -0.133 C  
HETATM   12  H   UNL     1      -8.303   8.842  66.216  1.00  0.00     0.000 HD 
HETATM   13  O   UNL     1      -9.191   9.002  66.515  1.00  0.00    -0.156 OA 
BRANCH  11  14
HETATM   14  C   UNL     1      -8.311  10.273  68.379  1.00  0.00    -0.119 C  
BRANCH  14  15
HETATM   15  N   UNL     1      -7.807  11.118  67.278  1.00  0.00    -0.130 NA 
HETATM   16  C   UNL     1      -8.500  12.413  67.217  1.00  0.00    -0.183 C  
HETATM   17  C   UNL     1      -8.207  13.284  68.449  1.00  0.00    -0.134 C  
HETATM   18  N   UNL     1      -6.779  13.639  68.617  1.00  0.00    -0.093 NA 
HETATM   19  C   UNL     1      -5.939  12.429  68.478  1.00  0.00    -0.055 C  
HETATM   20  C   UNL     1      -6.357  11.386  67.402  1.00  0.00    -0.082 C  
BRANCH  18  21
HETATM   21  C   UNL     1      -6.396  14.719  67.674  1.00  0.00    -0.116 C  
BRANCH  21  22
HETATM   22  C   UNL     1      -7.191  16.009  67.995  1.00  0.00    -0.130 C  
HETATM   23  N   UNL     1      -7.952  16.419  66.915  1.00  0.00    -0.207 N  
HETATM   24  O   UNL     1      -7.157  16.534  69.103  1.00  0.00    -0.208 OA 
HETATM   25  H   UNL     1      -7.915  15.826  66.086  1.00  0.00     0.000 HD 
BRANCH  23  26
HETATM   26  C   UNL     1      -8.771  17.557  66.826  1.00  0.00    -0.257 A  
HETATM   27  C   UNL     1     -10.083  17.608  67.341  1.00  0.00    -0.331 A  
HETATM   28  C   UNL     1     -10.805  18.810  67.235  1.00  0.00    -0.408 A  
HETATM   29  C   UNL     1     -10.761  16.476  68.063  1.00  0.00    -0.343 C  
HETATM   30  C   UNL     1     -10.230  19.948  66.677  1.00  0.00    -0.609 A  
HETATM   31  C   UNL     1      -8.923  19.905  66.207  1.00  0.00    -0.419 A  
HETATM   32  C   UNL     1      -8.181  18.718  66.276  1.00  0.00    -0.270 A  
HETATM   33  C   UNL     1      -6.796  18.693  65.685  1.00  0.00    -0.284 C  
ENDBRANCH  23  26
ENDBRANCH  21  22
ENDBRANCH  18  21
ENDBRANCH  14  15
ENDBRANCH  11  14
ENDBRANCH  10  11
ENDBRANCH   9  10
ENDBRANCH   8   9
ENDBRANCH   2   3
TORSDOF 9
ENDMDL
MODEL      178
REMARK 921   NORMALIZED FREE ENERGY PREDICTED BY IDOCK:   -4.40 KCAL/MOL
REMARK 922        TOTAL FREE ENERGY PREDICTED BY IDOCK:   -7.80 KCAL/MOL
REMARK 923 INTER-LIGAND FREE ENERGY PREDICTED BY IDOCK:   -7.04 KCAL/MOL
REMARK 924 INTRA-LIGAND FREE ENERGY PREDICTED BY IDOCK:   -0.76 KCAL/MOL
REMARK 927      BINDING AFFINITY PREDICTED BY RF-SCORE:    0.00 PKD
ROOT
HETATM    1  C   UNL     1      -9.804   4.294  64.914  1.00  0.00    -0.175 C  
HETATM    2  O   UNL     1      -8.828   5.136  64.307  1.00  0.00    -0.115 OA 
ENDROOT
BRANCH   2   3
HETATM    3  C   UNL     1      -7.832   5.596  65.127  1.00  0.00    -0.099 A  
HETATM    4  C   UNL     1      -7.632   5.047  66.407  1.00  0.00    -0.088 A  
HETATM    5  C   UNL     1      -6.627   5.524  67.246  1.00  0.00    -0.053 A  
HETATM    6  C   UNL     1      -5.797   6.551  66.813  1.00  0.00    -0.014 A  
HETATM    7  C   UNL     1      -5.964   7.081  65.534  1.00  0.00    -0.036 A  
HETATM    8  C   UNL     1      -6.964   6.606  64.672  1.00  0.00    -0.054 A  
BRANCH   8   9
HETATM    9  O   UNL     1      -6.943   7.242  63.457  1.00  0.00    -0.057 OA 
BRANCH   9  10
HETATM   10  C   UNL     1      -7.959   8.203  63.175  1.00  0.00    -0.151 C  
BRANCH  10  11
HETATM   11  C   UNL     1      -7.454   9.615  63.526  1.00  0.00    -0.120 C  
HETATM   12  H   UNL     1      -6.767  11.227  62.571  1.00  0.00     0.000 HD 
HETATM   13  O   UNL     1      -7.078  10.356  62.354  1.00  0.00    -0.136 OA 
BRANCH  11  14
HETATM   14  C   UNL     1      -8.542  10.422  64.282  1.00  0.00    -0.185 C  
BRANCH  14  15
HETATM   15  N   UNL     1      -8.123  10.961  65.592  1.00  0.00    -0.111 NA 
HETATM   16  C   UNL     1      -9.098  11.921  66.128  1.00  0.00    -0.161 C  
HETATM   17  C   UNL     1     -10.439  11.253  66.471  1.00  0.00    -0.253 C  
HETATM   18  N   UNL     1     -10.347  10.203  67.511  1.00  0.00    -0.214 NA 
HETATM   19  C   UNL     1      -9.236   9.278  67.198  1.00  0.00    -0.130 C  
HETATM   20  C   UNL     1      -7.938   9.892  66.600  1.00  0.00    -0.113 C  
BRANCH  18  21
HETATM   21  C   UNL     1     -10.225  10.814  68.859  1.00  0.00    -0.203 C  
BRANCH  21  22
HETATM   22  C   UNL     1     -11.582  11.427  69.287  1.00  0.00    -0.317 C  
HETATM   23  N   UNL     1     -11.406  12.548  70.079  1.00  0.00    -0.505 N  
HETATM   24  O   UNL     1     -12.652  10.969  68.901  1.00  0.00    -0.366 OA 
HETATM   25  H   UNL     1     -10.441  12.831  70.250  1.00  0.00     0.000 HD 
BRANCH  23  26
HETATM   26  C   UNL     1     -12.400  13.340  70.675  1.00  0.00    -0.339 A  
HETATM   27  C   UNL     1     -13.323  12.843  71.620  1.00  0.00    -0.358 A  
HETATM   28  C   UNL     1     -14.256  13.731  72.186  1.00  0.00    -0.544 A  
HETATM   29  C   UNL     1     -13.349  11.427  72.123  1.00  0.00    -0.271 C  
HETATM   30  C   UNL     1     -14.248  15.084  71.864  1.00  0.00    -0.649 A  
HETATM   31  C   UNL     1     -13.311  15.578  70.964  1.00  0.00    -0.495 A  
HETATM   32  C   UNL     1     -12.381  14.718  70.362  1.00  0.00    -0.402 A  
HETATM   33  C   UNL     1     -11.435  15.280  69.334  1.00  0.00    -0.329 C  
ENDBRANCH  23  26
ENDBRANCH  21  22
ENDBRANCH  18  21
ENDBRANCH  14  15
ENDBRANCH  11  14
ENDBRANCH  10  11
ENDBRANCH   9  10
ENDBRANCH   8   9
ENDBRANCH   2   3
TORSDOF 9
ENDMDL
MODEL      179
REMARK 921   NORMALIZED FREE ENERGY PREDICTED BY IDOCK:   -4.39 KCAL/MOL
REMARK 922        TOTAL FREE ENERGY PREDICTED BY IDOCK:   -7.79 KCAL/MOL
REMARK 923 INTER-LIGAND FREE ENERGY PREDICTED BY IDOCK:   -6.78 KCAL/MOL
REMARK 924 INTRA-LIGAND FREE ENERGY PREDICTED BY IDOCK:   -1.01 KCAL/MOL
REMARK 927      BINDING AFFINITY PREDICTED BY RF-SCORE:    0.00 PKD
ROOT
HETATM    1  C   UNL     1     -11.112  15.905  70.096  1.00  0.00    -0.365 C  
HETATM    2  O   UNL     1      -9.960  16.460  69.467  1.00  0.00    -0.236 OA 
ENDROOT
BRANCH   2   3
HETATM    3  C   UNL     1     -10.193  17.290  68.402  1.00  0.00    -0.358 A  
HETATM    4  C   UNL     1     -10.404  18.668  68.586  1.00  0.00    -0.256 A  
HETATM    5  C   UNL     1     -10.654  19.509  67.503  1.00  0.00    -0.599 A  
HETATM    6  C   UNL     1     -10.684  18.986  66.216  1.00  0.00    -0.406 A  
HETATM    7  C   UNL     1     -10.444  17.627  66.018  1.00  0.00    -0.278 A  
HETATM    8  C   UNL     1     -10.180  16.768  67.095  1.00  0.00    -0.295 A  
BRANCH   8   9
HETATM    9  O   UNL     1      -9.948  15.480  66.683  1.00  0.00    -0.246 OA 
BRANCH   9  10
HETATM   10  C   UNL     1     -11.042  14.722  66.168  1.00  0.00    -0.339 C  
BRANCH  10  11
HETATM   11  C   UNL     1     -11.431  13.619  67.171  1.00  0.00    -0.342 C  
HETATM   12  H   UNL     1     -12.444  11.900  67.167  1.00  0.00     0.000 HD 
HETATM   13  O   UNL     1     -12.204  12.581  66.548  1.00  0.00    -0.569 OA 
BRANCH  11  14
HETATM   14  C   UNL     1     -10.171  12.974  67.803  1.00  0.00    -0.228 C  
BRANCH  14  15
HETATM   15  N   UNL     1      -9.466  12.003  66.942  1.00  0.00    -0.198 NA 
HETATM   16  C   UNL     1      -8.015  12.012  67.178  1.00  0.00    -0.175 C  
HETATM   17  C   UNL     1      -7.656  11.510  68.586  1.00  0.00    -0.134 C  
HETATM   18  N   UNL     1      -8.064  10.113  68.857  1.00  0.00    -0.108 NA 
HETATM   19  C   UNL     1      -9.472   9.911  68.449  1.00  0.00    -0.137 C  
HETATM   20  C   UNL     1      -9.951  10.621  67.151  1.00  0.00    -0.195 C  
BRANCH  18  21
HETATM   21  C   UNL     1      -7.132   9.161  68.202  1.00  0.00    -0.078 C  
BRANCH  21  22
HETATM   22  C   UNL     1      -7.431   7.717  68.676  1.00  0.00    -0.103 C  
HETATM   23  N   UNL     1      -7.819   6.907  67.624  1.00  0.00    -0.111 N  
HETATM   24  O   UNL     1      -7.276   7.371  69.843  1.00  0.00    -0.076 OA 
HETATM   25  H   UNL     1      -7.831   7.341  66.701  1.00  0.00     0.000 HD 
BRANCH  23  26
HETATM   26  C   UNL     1      -8.198   5.555  67.678  1.00  0.00    -0.101 A  
HETATM   27  C   UNL     1      -7.272   4.493  67.734  1.00  0.00    -0.065 A  
HETATM   28  C   UNL     1      -7.757   3.176  67.824  1.00  0.00    -0.067 A  
HETATM   29  C   UNL     1      -5.778   4.665  67.767  1.00  0.00    -0.021 C  
HETATM   30  C   UNL     1      -9.122   2.916  67.906  1.00  0.00    -0.224 A  
HETATM   31  C   UNL     1     -10.030   3.968  67.891  1.00  0.00     0.023 A  
HETATM   32  C   UNL     1      -9.584   5.292  67.778  1.00  0.00    -0.157 A  
HETATM   33  C   UNL     1     -10.604   6.397  67.687  1.00  0.00    -0.340 C  
ENDBRANCH  23  26
ENDBRANCH  21  22
ENDBRANCH  18  21
ENDBRANCH  14  15
ENDBRANCH  11  14
ENDBRANCH  10  11
ENDBRANCH   9  10
ENDBRANCH   8   9
ENDBRANCH   2   3
TORSDOF 9
ENDMDL
MODEL      180
REMARK 921   NORMALIZED FREE ENERGY PREDICTED BY IDOCK:   -4.39 KCAL/MOL
REMARK 922        TOTAL FREE ENERGY PREDICTED BY IDOCK:   -7.79 KCAL/MOL
REMARK 923 INTER-LIGAND FREE ENERGY PREDICTED BY IDOCK:   -6.63 KCAL/MOL
REMARK 924 INTRA-LIGAND FREE ENERGY PREDICTED BY IDOCK:   -1.16 KCAL/MOL
REMARK 927      BINDING AFFINITY PREDICTED BY RF-SCORE:    0.00 PKD
ROOT
HETATM    1  C   UNL     1     -11.008  12.030  68.574  1.00  0.00    -0.240 C  
HETATM    2  O   UNL     1     -11.937  11.728  67.537  1.00  0.00    -0.607 OA 
ENDROOT
BRANCH   2   3
HETATM    3  C   UNL     1     -11.781  12.418  66.364  1.00  0.00    -0.391 A  
HETATM    4  C   UNL     1     -12.481  13.615  66.125  1.00  0.00    -0.449 A  
HETATM    5  C   UNL     1     -12.332  14.310  64.927  1.00  0.00    -0.435 A  
HETATM    6  C   UNL     1     -11.469  13.825  63.951  1.00  0.00    -0.141 A  
HETATM    7  C   UNL     1     -10.744  12.658  64.190  1.00  0.00    -0.435 A  
HETATM    8  C   UNL     1     -10.873  11.952  65.394  1.00  0.00    -0.294 A  
BRANCH   8   9
HETATM    9  O   UNL     1     -10.057  10.849  65.437  1.00  0.00    -0.248 OA 
BRANCH   9  10
HETATM   10  C   UNL     1      -9.994  10.005  64.289  1.00  0.00     0.051 C  
BRANCH  10  11
HETATM   11  C   UNL     1      -8.525   9.670  63.967  1.00  0.00    -0.185 C  
HETATM   12  H   UNL     1      -7.061  10.376  62.811  1.00  0.00     0.000 HD 
HETATM   13  O   UNL     1      -7.966  10.582  63.009  1.00  0.00    -0.152 OA 
BRANCH  11  14
HETATM   14  C   UNL     1      -7.652   9.715  65.248  1.00  0.00    -0.113 C  
BRANCH  14  15
HETATM   15  N   UNL     1      -6.917   8.470  65.548  1.00  0.00    -0.073 NA 
HETATM   16  C   UNL     1      -6.561   8.371  66.971  1.00  0.00    -0.058 C  
HETATM   17  C   UNL     1      -7.802   8.234  67.868  1.00  0.00    -0.114 C  
HETATM   18  N   UNL     1      -8.611   7.022  67.606  1.00  0.00    -0.122 NA 
HETATM   19  C   UNL     1      -8.858   6.884  66.154  1.00  0.00    -0.147 C  
HETATM   20  C   UNL     1      -7.697   7.264  65.190  1.00  0.00    -0.113 C  
BRANCH  18  21
HETATM   21  C   UNL     1      -7.963   5.824  68.197  1.00  0.00    -0.104 C  
BRANCH  21  22
HETATM   22  C   UNL     1      -8.941   5.119  69.169  1.00  0.00    -0.100 C  
HETATM   23  N   UNL     1      -8.997   5.764  70.392  1.00  0.00    -0.144 N  
HETATM   24  O   UNL     1      -9.603   4.143  68.830  1.00  0.00    -0.167 OA 
HETATM   25  H   UNL     1      -8.428   6.605  70.483  1.00  0.00     0.000 HD 
BRANCH  23  26
HETATM   26  C   UNL     1      -9.744   5.394  71.522  1.00  0.00    -0.159 A  
HETATM   27  C   UNL     1     -11.053   5.858  71.770  1.00  0.00    -0.324 A  
HETATM   28  C   UNL     1     -11.730   5.396  72.913  1.00  0.00    -0.232 A  
HETATM   29  C   UNL     1     -11.819   6.776  70.858  1.00  0.00    -0.438 C  
HETATM   30  C   UNL     1     -11.148   4.464  73.766  1.00  0.00    -0.323 A  
HETATM   31  C   UNL     1      -9.873   3.979  73.497  1.00  0.00    -0.157 A  
HETATM   32  C   UNL     1      -9.160   4.434  72.379  1.00  0.00    -0.142 A  
HETATM   33  C   UNL     1      -7.752   3.942  72.168  1.00  0.00    -0.071 C  
ENDBRANCH  23  26
ENDBRANCH  21  22
ENDBRANCH  18  21
ENDBRANCH  14  15
ENDBRANCH  11  14
ENDBRANCH  10  11
ENDBRANCH   9  10
ENDBRANCH   8   9
ENDBRANCH   2   3
TORSDOF 9
ENDMDL
MODEL      181
REMARK 921   NORMALIZED FREE ENERGY PREDICTED BY IDOCK:   -4.38 KCAL/MOL
REMARK 922        TOTAL FREE ENERGY PREDICTED BY IDOCK:   -7.77 KCAL/MOL
REMARK 923 INTER-LIGAND FREE ENERGY PREDICTED BY IDOCK:   -7.55 KCAL/MOL
REMARK 924 INTRA-LIGAND FREE ENERGY PREDICTED BY IDOCK:   -0.22 KCAL/MOL
REMARK 927      BINDING AFFINITY PREDICTED BY RF-SCORE:    0.00 PKD
ROOT
HETATM    1  C   UNL     1      -6.972   7.513  71.804  1.00  0.00    -0.062 C  
HETATM    2  O   UNL     1      -7.736   6.493  71.166  1.00  0.00    -0.095 OA 
ENDROOT
BRANCH   2   3
HETATM    3  C   UNL     1      -9.026   6.341  71.604  1.00  0.00    -0.144 A  
HETATM    4  C   UNL     1      -9.309   5.701  72.824  1.00  0.00    -0.144 A  
HETATM    5  C   UNL     1     -10.621   5.535  73.262  1.00  0.00    -0.285 A  
HETATM    6  C   UNL     1     -11.672   6.018  72.491  1.00  0.00    -0.280 A  
HETATM    7  C   UNL     1     -11.403   6.683  71.296  1.00  0.00    -0.346 A  
HETATM    8  C   UNL     1     -10.087   6.869  70.845  1.00  0.00    -0.194 A  
BRANCH   8   9
HETATM    9  O   UNL     1     -10.040   7.566  69.664  1.00  0.00    -0.181 OA 
BRANCH   9  10
HETATM   10  C   UNL     1     -10.088   6.835  68.440  1.00  0.00    -0.162 C  
BRANCH  10  11
HETATM   11  C   UNL     1      -8.663   6.655  67.883  1.00  0.00    -0.116 C  
HETATM   12  H   UNL     1      -7.667   5.352  66.746  1.00  0.00     0.000 HD 
HETATM   13  O   UNL     1      -8.546   5.463  67.089  1.00  0.00    -0.110 OA 
BRANCH  11  14
HETATM   14  C   UNL     1      -8.253   7.865  67.005  1.00  0.00    -0.117 C  
BRANCH  14  15
HETATM   15  N   UNL     1      -9.262   8.289  66.013  1.00  0.00    -0.188 NA 
HETATM   16  C   UNL     1     -10.320   9.108  66.622  1.00  0.00    -0.218 C  
HETATM   17  C   UNL     1      -9.786  10.456  67.131  1.00  0.00    -0.181 C  
HETATM   18  N   UNL     1      -9.213  11.322  66.075  1.00  0.00    -0.204 NA 
HETATM   19  C   UNL     1      -8.277  10.542  65.237  1.00  0.00    -0.146 C  
HETATM   20  C   UNL     1      -8.663   9.071  64.909  1.00  0.00    -0.166 C  
BRANCH  18  21
HETATM   21  C   UNL     1     -10.293  11.966  65.286  1.00  0.00    -0.276 C  
BRANCH  21  22
HETATM   22  C   UNL     1     -11.279  12.694  66.233  1.00  0.00    -0.311 C  
HETATM   23  N   UNL     1     -10.624  13.251  67.318  1.00  0.00    -0.247 N  
HETATM   24  O   UNL     1     -12.476  12.785  65.981  1.00  0.00    -0.540 OA 
HETATM   25  H   UNL     1      -9.611  13.138  67.338  1.00  0.00     0.000 HD 
BRANCH  23  26
HETATM   26  C   UNL     1     -11.192  13.953  68.393  1.00  0.00    -0.264 A  
HETATM   27  C   UNL     1     -11.799  13.319  69.498  1.00  0.00    -0.388 A  
HETATM   28  C   UNL     1     -12.303  14.115  70.541  1.00  0.00    -0.434 A  
HETATM   29  C   UNL     1     -11.896  11.829  69.678  1.00  0.00    -0.407 C  
HETATM   30  C   UNL     1     -12.170  15.499  70.520  1.00  0.00    -0.444 A  
HETATM   31  C   UNL     1     -11.535  16.118  69.449  1.00  0.00    -0.296 A  
HETATM   32  C   UNL     1     -11.041  15.359  68.380  1.00  0.00    -0.301 A  
HETATM   33  C   UNL     1     -10.430  16.074  67.203  1.00  0.00    -0.308 C  
ENDBRANCH  23  26
ENDBRANCH  21  22
ENDBRANCH  18  21
ENDBRANCH  14  15
ENDBRANCH  11  14
ENDBRANCH  10  11
ENDBRANCH   9  10
ENDBRANCH   8   9
ENDBRANCH   2   3
TORSDOF 9
ENDMDL
MODEL      182
REMARK 921   NORMALIZED FREE ENERGY PREDICTED BY IDOCK:   -4.36 KCAL/MOL
REMARK 922        TOTAL FREE ENERGY PREDICTED BY IDOCK:   -7.75 KCAL/MOL
REMARK 923 INTER-LIGAND FREE ENERGY PREDICTED BY IDOCK:   -7.06 KCAL/MOL
REMARK 924 INTRA-LIGAND FREE ENERGY PREDICTED BY IDOCK:   -0.69 KCAL/MOL
REMARK 927      BINDING AFFINITY PREDICTED BY RF-SCORE:    0.00 PKD
ROOT
HETATM    1  C   UNL     1     -12.996  12.071  63.746  1.00  0.00    -0.206 C  
HETATM    2  O   UNL     1     -12.649  12.315  65.106  1.00  0.00    -0.585 OA 
ENDROOT
BRANCH   2   3
HETATM    3  C   UNL     1     -11.535  11.668  65.572  1.00  0.00    -0.102 A  
HETATM    4  C   UNL     1     -10.554  11.180  64.689  1.00  0.00    -0.386 A  
HETATM    5  C   UNL     1      -9.428  10.510  65.163  1.00  0.00    -0.285 A  
HETATM    6  C   UNL     1      -9.259  10.327  66.531  1.00  0.00    -0.179 A  
HETATM    7  C   UNL     1     -10.207  10.836  67.417  1.00  0.00    -0.241 A  
HETATM    8  C   UNL     1     -11.341  11.522  66.958  1.00  0.00    -0.269 A  
BRANCH   8   9
HETATM    9  O   UNL     1     -12.133  11.960  67.990  1.00  0.00    -0.541 OA 
BRANCH   9  10
HETATM   10  C   UNL     1     -11.610  12.948  68.877  1.00  0.00    -0.315 C  
BRANCH  10  11
HETATM   11  C   UNL     1     -11.942  12.572  70.333  1.00  0.00    -0.251 C  
HETATM   12  H   UNL     1     -13.135  13.216  71.797  1.00  0.00     0.000 HD 
HETATM   13  O   UNL     1     -12.929  13.448  70.899  1.00  0.00    -0.230 OA 
BRANCH  11  14
HETATM   14  C   UNL     1     -12.474  11.118  70.423  1.00  0.00    -0.299 C  
BRANCH  14  15
HETATM   15  N   UNL     1     -11.908  10.312  71.524  1.00  0.00    -0.291 NA 
HETATM   16  C   UNL     1     -12.930   9.486  72.182  1.00  0.00    -0.412 C  
HETATM   17  C   UNL     1     -13.488   8.402  71.246  1.00  0.00    -0.120 C  
HETATM   18  N   UNL     1     -12.477   7.429  70.772  1.00  0.00    -0.162 NA 
HETATM   19  C   UNL     1     -11.281   8.144  70.276  1.00  0.00    -0.182 C  
HETATM   20  C   UNL     1     -10.830   9.412  71.056  1.00  0.00    -0.336 C  
BRANCH  18  21
HETATM   21  C   UNL     1     -12.160   6.445  71.838  1.00  0.00    -0.310 C  
BRANCH  21  22
HETATM   22  C   UNL     1     -10.741   5.864  71.617  1.00  0.00    -0.252 C  
HETATM   23  N   UNL     1     -10.009   5.851  72.791  1.00  0.00    -0.177 N  
HETATM   24  O   UNL     1     -10.378   5.433  70.528  1.00  0.00    -0.243 OA 
HETATM   25  H   UNL     1     -10.490   6.187  73.626  1.00  0.00     0.000 HD 
BRANCH  23  26
HETATM   26  C   UNL     1      -8.682   5.428  72.968  1.00  0.00    -0.121 A  
HETATM   27  C   UNL     1      -7.577   6.079  72.380  1.00  0.00    -0.100 A  
HETATM   28  C   UNL     1      -6.284   5.598  72.652  1.00  0.00    -0.048 A  
HETATM   29  C   UNL     1      -7.672   7.307  71.517  1.00  0.00    -0.087 C  
HETATM   30  C   UNL     1      -6.082   4.531  73.522  1.00  0.00    -0.028 A  
HETATM   31  C   UNL     1      -7.170   3.917  74.132  1.00  0.00    -0.061 A  
HETATM   32  C   UNL     1      -8.475   4.355  73.865  1.00  0.00    -0.099 A  
HETATM   33  C   UNL     1      -9.630   3.613  74.486  1.00  0.00    -0.143 C  
ENDBRANCH  23  26
ENDBRANCH  21  22
ENDBRANCH  18  21
ENDBRANCH  14  15
ENDBRANCH  11  14
ENDBRANCH  10  11
ENDBRANCH   9  10
ENDBRANCH   8   9
ENDBRANCH   2   3
TORSDOF 9
ENDMDL
MODEL      183
REMARK 921   NORMALIZED FREE ENERGY PREDICTED BY IDOCK:   -4.35 KCAL/MOL
REMARK 922        TOTAL FREE ENERGY PREDICTED BY IDOCK:   -7.73 KCAL/MOL
REMARK 923 INTER-LIGAND FREE ENERGY PREDICTED BY IDOCK:   -6.53 KCAL/MOL
REMARK 924 INTRA-LIGAND FREE ENERGY PREDICTED BY IDOCK:   -1.21 KCAL/MOL
REMARK 927      BINDING AFFINITY PREDICTED BY RF-SCORE:    0.00 PKD
ROOT
HETATM    1  C   UNL     1     -12.084   7.307  71.962  1.00  0.00    -0.290 C  
HETATM    2  O   UNL     1     -11.157   6.318  71.525  1.00  0.00    -0.259 OA 
ENDROOT
BRANCH   2   3
HETATM    3  C   UNL     1     -10.698   5.453  72.483  1.00  0.00    -0.237 A  
HETATM    4  C   UNL     1     -11.375   4.252  72.764  1.00  0.00     0.049 A  
HETATM    5  C   UNL     1     -10.914   3.380  73.748  1.00  0.00    -0.307 A  
HETATM    6  C   UNL     1      -9.762   3.690  74.460  1.00  0.00    -0.160 A  
HETATM    7  C   UNL     1      -9.064   4.861  74.169  1.00  0.00    -0.111 A  
HETATM    8  C   UNL     1      -9.507   5.745  73.174  1.00  0.00    -0.146 A  
BRANCH   8   9
HETATM    9  O   UNL     1      -8.668   6.821  73.028  1.00  0.00    -0.120 OA 
BRANCH   9  10
HETATM   10  C   UNL     1      -7.480   6.658  72.254  1.00  0.00    -0.094 C  
BRANCH  10  11
HETATM   11  C   UNL     1      -7.326   7.839  71.278  1.00  0.00    -0.066 C  
HETATM   12  H   UNL     1      -5.980   9.251  70.857  1.00  0.00     0.000 HD 
HETATM   13  O   UNL     1      -6.075   8.522  71.459  1.00  0.00    -0.039 OA 
BRANCH  11  14
HETATM   14  C   UNL     1      -7.409   7.358  69.806  1.00  0.00    -0.083 C  
BRANCH  14  15
HETATM   15  N   UNL     1      -8.774   7.287  69.248  1.00  0.00    -0.137 NA 
HETATM   16  C   UNL     1      -9.514   8.542  69.443  1.00  0.00    -0.161 C  
HETATM   17  C   UNL     1      -8.901   9.704  68.644  1.00  0.00    -0.128 C  
HETATM   18  N   UNL     1      -8.903   9.500  67.177  1.00  0.00    -0.131 NA 
HETATM   19  C   UNL     1      -8.375   8.157  66.854  1.00  0.00    -0.115 C  
HETATM   20  C   UNL     1      -8.767   6.985  67.799  1.00  0.00    -0.121 C  
BRANCH  18  21
HETATM   21  C   UNL     1     -10.258   9.737  66.619  1.00  0.00    -0.226 C  
BRANCH  21  22
HETATM   22  C   UNL     1     -10.666  11.216  66.829  1.00  0.00    -0.276 C  
HETATM   23  N   UNL     1      -9.791  12.080  66.195  1.00  0.00    -0.230 N  
HETATM   24  O   UNL     1     -11.680  11.529  67.445  1.00  0.00    -0.567 OA 
HETATM   25  H   UNL     1      -9.033  11.647  65.667  1.00  0.00     0.000 HD 
BRANCH  23  26
HETATM   26  C   UNL     1      -9.824  13.484  66.193  1.00  0.00    -0.283 A  
HETATM   27  C   UNL     1      -9.069  14.277  67.082  1.00  0.00    -0.237 A  
HETATM   28  C   UNL     1      -9.144  15.677  66.972  1.00  0.00    -0.239 A  
HETATM   29  C   UNL     1      -8.125  13.733  68.119  1.00  0.00    -0.155 C  
HETATM   30  C   UNL     1      -9.908  16.280  65.977  1.00  0.00    -0.371 A  
HETATM   31  C   UNL     1     -10.619  15.495  65.077  1.00  0.00    -0.435 A  
HETATM   32  C   UNL     1     -10.586  14.096  65.172  1.00  0.00    -0.414 A  
HETATM   33  C   UNL     1     -11.432  13.285  64.227  1.00  0.00    -0.435 C  
ENDBRANCH  23  26
ENDBRANCH  21  22
ENDBRANCH  18  21
ENDBRANCH  14  15
ENDBRANCH  11  14
ENDBRANCH  10  11
ENDBRANCH   9  10
ENDBRANCH   8   9
ENDBRANCH   2   3
TORSDOF 9
ENDMDL
MODEL      184
REMARK 921   NORMALIZED FREE ENERGY PREDICTED BY IDOCK:   -4.35 KCAL/MOL
REMARK 922        TOTAL FREE ENERGY PREDICTED BY IDOCK:   -7.73 KCAL/MOL
REMARK 923 INTER-LIGAND FREE ENERGY PREDICTED BY IDOCK:   -7.09 KCAL/MOL
REMARK 924 INTRA-LIGAND FREE ENERGY PREDICTED BY IDOCK:   -0.64 KCAL/MOL
REMARK 927      BINDING AFFINITY PREDICTED BY RF-SCORE:    0.00 PKD
ROOT
HETATM    1  C   UNL     1     -13.897   7.219  71.583  1.00  0.00    -0.349 C  
HETATM    2  O   UNL     1     -13.240   8.450  71.293  1.00  0.00    -0.252 OA 
ENDROOT
BRANCH   2   3
HETATM    3  C   UNL     1     -11.914   8.521  71.631  1.00  0.00    -0.316 A  
HETATM    4  C   UNL     1     -11.380   7.720  72.656  1.00  0.00    -0.449 A  
HETATM    5  C   UNL     1     -10.034   7.803  73.007  1.00  0.00    -0.356 A  
HETATM    6  C   UNL     1      -9.197   8.681  72.329  1.00  0.00    -0.297 A  
HETATM    7  C   UNL     1      -9.708   9.457  71.289  1.00  0.00    -0.210 A  
HETATM    8  C   UNL     1     -11.057   9.378  70.915  1.00  0.00    -0.319 A  
BRANCH   8   9
HETATM    9  O   UNL     1     -11.349  10.203  69.857  1.00  0.00    -0.251 OA 
BRANCH   9  10
HETATM   10  C   UNL     1     -10.961   9.791  68.547  1.00  0.00    -0.149 C  
BRANCH  10  11
HETATM   11  C   UNL     1     -10.057  10.864  67.909  1.00  0.00    -0.177 C  
HETATM   12  H   UNL     1      -8.302  10.955  66.965  1.00  0.00     0.000 HD 
HETATM   13  O   UNL     1      -8.860  10.294  67.358  1.00  0.00    -0.131 OA 
BRANCH  11  14
HETATM   14  C   UNL     1     -10.803  11.617  66.778  1.00  0.00    -0.277 C  
BRANCH  14  15
HETATM   15  N   UNL     1     -11.806  12.599  67.236  1.00  0.00    -0.419 NA 
HETATM   16  C   UNL     1     -11.244  13.544  68.212  1.00  0.00    -0.274 C  
HETATM   17  C   UNL     1     -10.171  14.450  67.587  1.00  0.00    -0.229 C  
HETATM   18  N   UNL     1     -10.666  15.308  66.486  1.00  0.00    -0.308 NA 
HETATM   19  C   UNL     1     -11.452  14.499  65.529  1.00  0.00    -0.343 C  
HETATM   20  C   UNL     1     -12.367  13.385  66.115  1.00  0.00    -0.380 C  
BRANCH  18  21
HETATM   21  C   UNL     1     -11.427  16.463  67.027  1.00  0.00     0.506 C  
BRANCH  21  22
HETATM   22  C   UNL     1     -10.449  17.542  67.554  1.00  0.00    -0.355 C  
HETATM   23  N   UNL     1      -9.131  17.194  67.315  1.00  0.00    -0.219 N  
HETATM   24  O   UNL     1     -10.846  18.584  68.065  1.00  0.00    -0.299 OA 
HETATM   25  H   UNL     1      -8.981  16.318  66.816  1.00  0.00     0.000 HD 
BRANCH  23  26
HETATM   26  C   UNL     1      -7.978  17.908  67.678  1.00  0.00    -0.219 A  
HETATM   27  C   UNL     1      -7.501  19.026  66.962  1.00  0.00    -0.230 A  
HETATM   28  C   UNL     1      -6.357  19.693  67.433  1.00  0.00    -0.210 A  
HETATM   29  C   UNL     1      -8.169  19.608  65.747  1.00  0.00    -0.074 C  
HETATM   30  C   UNL     1      -5.725  19.297  68.608  1.00  0.00    -0.228 A  
HETATM   31  C   UNL     1      -6.221  18.220  69.333  1.00  0.00    -0.261 A  
HETATM   32  C   UNL     1      -7.346  17.516  68.881  1.00  0.00    -0.245 A  
HETATM   33  C   UNL     1      -7.804  16.307  69.654  1.00  0.00     0.230 C  
ENDBRANCH  23  26
ENDBRANCH  21  22
ENDBRANCH  18  21
ENDBRANCH  14  15
ENDBRANCH  11  14
ENDBRANCH  10  11
ENDBRANCH   9  10
ENDBRANCH   8   9
ENDBRANCH   2   3
TORSDOF 9
ENDMDL
MODEL      185
REMARK 921   NORMALIZED FREE ENERGY PREDICTED BY IDOCK:   -4.34 KCAL/MOL
REMARK 922        TOTAL FREE ENERGY PREDICTED BY IDOCK:   -7.71 KCAL/MOL
REMARK 923 INTER-LIGAND FREE ENERGY PREDICTED BY IDOCK:   -6.12 KCAL/MOL
REMARK 924 INTRA-LIGAND FREE ENERGY PREDICTED BY IDOCK:   -1.59 KCAL/MOL
REMARK 927      BINDING AFFINITY PREDICTED BY RF-SCORE:    0.00 PKD
ROOT
HETATM    1  C   UNL     1      -5.401  12.530  71.264  1.00  0.00    -0.096 C  
HETATM    2  O   UNL     1      -5.877  11.269  70.803  1.00  0.00    -0.274 OA 
ENDROOT
BRANCH   2   3
HETATM    3  C   UNL     1      -6.181  11.188  69.470  1.00  0.00    -0.091 A  
HETATM    4  C   UNL     1      -5.176  11.264  68.488  1.00  0.00    -0.043 A  
HETATM    5  C   UNL     1      -5.487  11.195  67.132  1.00  0.00    -0.060 A  
HETATM    6  C   UNL     1      -6.810  11.037  66.735  1.00  0.00    -0.128 A  
HETATM    7  C   UNL     1      -7.811  10.927  67.699  1.00  0.00    -0.113 A  
HETATM    8  C   UNL     1      -7.514  10.983  69.069  1.00  0.00    -0.129 A  
BRANCH   8   9
HETATM    9  O   UNL     1      -8.635  10.831  69.847  1.00  0.00     0.239 OA 
BRANCH   9  10
HETATM   10  C   UNL     1      -9.290   9.564  69.855  1.00  0.00    -0.223 C  
BRANCH  10  11
HETATM   11  C   UNL     1     -10.796   9.753  69.590  1.00  0.00    -0.250 C  
HETATM   12  H   UNL     1     -12.505   8.810  70.002  1.00  0.00     0.000 HD 
HETATM   13  O   UNL     1     -11.577   8.694  70.165  1.00  0.00    -0.095 OA 
BRANCH  11  14
HETATM   14  C   UNL     1     -11.298  11.099  70.174  1.00  0.00    -0.209 C  
BRANCH  14  15
HETATM   15  N   UNL     1     -12.057  11.945  69.231  1.00  0.00    -0.255 NA 
HETATM   16  C   UNL     1     -12.642  13.119  69.895  1.00  0.00     0.118 C  
HETATM   17  C   UNL     1     -11.566  14.092  70.403  1.00  0.00    -0.139 C  
HETATM   18  N   UNL     1     -10.709  14.661  69.338  1.00  0.00    -0.243 NA 
HETATM   19  C   UNL     1     -10.223  13.582  68.450  1.00  0.00    -0.245 C  
HETATM   20  C   UNL     1     -11.213  12.429  68.115  1.00  0.00    -0.265 C  
BRANCH  18  21
HETATM   21  C   UNL     1     -11.431  15.731  68.604  1.00  0.00    -0.386 C  
BRANCH  21  22
HETATM   22  C   UNL     1     -10.419  16.641  67.864  1.00  0.00    -0.322 C  
HETATM   23  N   UNL     1      -9.474  17.161  68.731  1.00  0.00    -0.273 N  
HETATM   24  O   UNL     1     -10.461  16.805  66.649  1.00  0.00    -0.304 OA 
HETATM   25  H   UNL     1      -9.547  16.867  69.705  1.00  0.00     0.000 HD 
BRANCH  23  26
HETATM   26  C   UNL     1      -8.427  18.046  68.426  1.00  0.00    -0.298 A  
HETATM   27  C   UNL     1      -8.631  19.402  68.098  1.00  0.00    -0.374 A  
HETATM   28  C   UNL     1      -7.511  20.214  67.847  1.00  0.00    -0.316 A  
HETATM   29  C   UNL     1      -9.975  20.076  68.054  1.00  0.00    -0.550 C  
HETATM   30  C   UNL     1      -6.218  19.712  67.964  1.00  0.00    -0.246 A  
HETATM   31  C   UNL     1      -6.020  18.385  68.327  1.00  0.00    -0.186 A  
HETATM   32  C   UNL     1      -7.114  17.541  68.562  1.00  0.00    -0.226 A  
HETATM   33  C   UNL     1      -6.856  16.090  68.877  1.00  0.00    -0.143 C  
ENDBRANCH  23  26
ENDBRANCH  21  22
ENDBRANCH  18  21
ENDBRANCH  14  15
ENDBRANCH  11  14
ENDBRANCH  10  11
ENDBRANCH   9  10
ENDBRANCH   8   9
ENDBRANCH   2   3
TORSDOF 9
ENDMDL
MODEL      186
REMARK 921   NORMALIZED FREE ENERGY PREDICTED BY IDOCK:   -4.33 KCAL/MOL
REMARK 922        TOTAL FREE ENERGY PREDICTED BY IDOCK:   -7.71 KCAL/MOL
REMARK 923 INTER-LIGAND FREE ENERGY PREDICTED BY IDOCK:   -6.75 KCAL/MOL
REMARK 924 INTRA-LIGAND FREE ENERGY PREDICTED BY IDOCK:   -0.96 KCAL/MOL
REMARK 927      BINDING AFFINITY PREDICTED BY RF-SCORE:    0.00 PKD
ROOT
HETATM    1  C   UNL     1      -8.016   2.821  72.014  1.00  0.00    -0.054 C  
HETATM    2  O   UNL     1      -9.405   2.927  72.312  1.00  0.00    -0.095 OA 
ENDROOT
BRANCH   2   3
HETATM    3  C   UNL     1      -9.883   4.194  72.522  1.00  0.00    -0.155 A  
HETATM    4  C   UNL     1      -9.949   4.741  73.816  1.00  0.00    -0.188 A  
HETATM    5  C   UNL     1     -10.447   6.025  74.031  1.00  0.00    -0.272 A  
HETATM    6  C   UNL     1     -10.879   6.786  72.951  1.00  0.00    -0.304 A  
HETATM    7  C   UNL     1     -10.789   6.267  71.661  1.00  0.00    -0.298 A  
HETATM    8  C   UNL     1     -10.279   4.982  71.425  1.00  0.00    -0.200 A  
BRANCH   8   9
HETATM    9  O   UNL     1     -10.253   4.673  70.088  1.00  0.00    -0.240 OA 
BRANCH   9  10
HETATM   10  C   UNL     1      -9.012   4.770  69.391  1.00  0.00    -0.094 C  
BRANCH  10  11
HETATM   11  C   UNL     1      -9.222   5.498  68.050  1.00  0.00    -0.108 C  
HETATM   12  H   UNL     1     -10.458   5.402  66.487  1.00  0.00     0.000 HD 
HETATM   13  O   UNL     1     -10.329   4.953  67.314  1.00  0.00    -0.170 OA 
BRANCH  11  14
HETATM   14  C   UNL     1      -9.483   7.010  68.273  1.00  0.00    -0.128 C  
BRANCH  14  15
HETATM   15  N   UNL     1      -8.664   7.915  67.441  1.00  0.00    -0.127 NA 
HETATM   16  C   UNL     1      -9.450   9.042  66.918  1.00  0.00    -0.167 C  
HETATM   17  C   UNL     1      -9.930   9.980  68.036  1.00  0.00    -0.150 C  
HETATM   18  N   UNL     1      -8.838  10.620  68.805  1.00  0.00    -0.154 NA 
HETATM   19  C   UNL     1      -7.844   9.602  69.211  1.00  0.00    -0.098 C  
HETATM   20  C   UNL     1      -7.517   8.473  68.192  1.00  0.00    -0.097 C  
BRANCH  18  21
HETATM   21  C   UNL     1      -8.238  11.735  68.029  1.00  0.00    -0.152 C  
BRANCH  21  22
HETATM   22  C   UNL     1      -9.320  12.793  67.700  1.00  0.00    -0.191 C  
HETATM   23  N   UNL     1      -9.363  13.072  66.345  1.00  0.00    -0.386 N  
HETATM   24  O   UNL     1     -10.058  13.257  68.563  1.00  0.00    -0.239 OA 
HETATM   25  H   UNL     1      -8.720  12.543  65.756  1.00  0.00     0.000 HD 
BRANCH  23  26
HETATM   26  C   UNL     1     -10.190  13.997  65.687  1.00  0.00    -0.334 A  
HETATM   27  C   UNL     1      -9.943  15.386  65.678  1.00  0.00    -0.396 A  
HETATM   28  C   UNL     1     -10.812  16.223  64.956  1.00  0.00    -0.337 A  
HETATM   29  C   UNL     1      -8.767  16.047  66.342  1.00  0.00    -0.362 C  
HETATM   30  C   UNL     1     -11.870  15.698  64.221  1.00  0.00    -0.151 A  
HETATM   31  C   UNL     1     -12.087  14.325  64.199  1.00  0.00    -0.423 A  
HETATM   32  C   UNL     1     -11.255  13.463  64.926  1.00  0.00    -0.347 A  
HETATM   33  C   UNL     1     -11.571  11.990  64.939  1.00  0.00    -0.332 C  
ENDBRANCH  23  26
ENDBRANCH  21  22
ENDBRANCH  18  21
ENDBRANCH  14  15
ENDBRANCH  11  14
ENDBRANCH  10  11
ENDBRANCH   9  10
ENDBRANCH   8   9
ENDBRANCH   2   3
TORSDOF 9
ENDMDL
MODEL      187
REMARK 921   NORMALIZED FREE ENERGY PREDICTED BY IDOCK:   -4.33 KCAL/MOL
REMARK 922        TOTAL FREE ENERGY PREDICTED BY IDOCK:   -7.70 KCAL/MOL
REMARK 923 INTER-LIGAND FREE ENERGY PREDICTED BY IDOCK:   -6.74 KCAL/MOL
REMARK 924 INTRA-LIGAND FREE ENERGY PREDICTED BY IDOCK:   -0.97 KCAL/MOL
REMARK 927      BINDING AFFINITY PREDICTED BY RF-SCORE:    0.00 PKD
ROOT
HETATM    1  C   UNL     1     -12.822  14.241  65.297  1.00  0.00    -0.281 C  
HETATM    2  O   UNL     1     -11.561  14.277  64.635  1.00  0.00    -0.378 OA 
ENDROOT
BRANCH   2   3
HETATM    3  C   UNL     1     -10.845  13.109  64.632  1.00  0.00    -0.366 A  
HETATM    4  C   UNL     1     -10.691  12.353  63.456  1.00  0.00    -0.473 A  
HETATM    5  C   UNL     1      -9.974  11.158  63.457  1.00  0.00    -0.425 A  
HETATM    6  C   UNL     1      -9.389  10.706  64.633  1.00  0.00    -0.280 A  
HETATM    7  C   UNL     1      -9.506  11.463  65.798  1.00  0.00    -0.256 A  
HETATM    8  C   UNL     1     -10.215  12.674  65.813  1.00  0.00    -0.272 A  
BRANCH   8   9
HETATM    9  O   UNL     1     -10.190  13.272  67.048  1.00  0.00    -0.240 OA 
BRANCH   9  10
HETATM   10  C   UNL     1      -9.599  12.562  68.136  1.00  0.00    -0.215 C  
BRANCH  10  11
HETATM   11  C   UNL     1     -10.702  12.000  69.052  1.00  0.00    -0.136 C  
HETATM   12  H   UNL     1     -12.689  12.091  69.212  1.00  0.00     0.000 HD 
HETATM   13  O   UNL     1     -12.009  12.438  68.647  1.00  0.00    -0.310 OA 
BRANCH  11  14
HETATM   14  C   UNL     1     -10.688  10.449  69.051  1.00  0.00    -0.228 C  
BRANCH  14  15
HETATM   15  N   UNL     1      -9.359   9.837  68.847  1.00  0.00    -0.152 NA 
HETATM   16  C   UNL     1      -8.738   9.437  70.118  1.00  0.00    -0.221 C  
HETATM   17  C   UNL     1      -9.511   8.302  70.808  1.00  0.00    -0.161 C  
HETATM   18  N   UNL     1      -9.582   7.049  70.023  1.00  0.00    -0.164 NA 
HETATM   19  C   UNL     1      -9.993   7.346  68.633  1.00  0.00    -0.169 C  
HETATM   20  C   UNL     1      -9.427   8.639  67.979  1.00  0.00    -0.140 C  
BRANCH  18  21
HETATM   21  C   UNL     1      -8.294   6.313  70.098  1.00  0.00    -0.129 C  
BRANCH  21  22
HETATM   22  C   UNL     1      -8.388   5.187  71.158  1.00  0.00    -0.121 C  
HETATM   23  N   UNL     1      -9.693   4.759  71.329  1.00  0.00    -0.168 N  
HETATM   24  O   UNL     1      -7.393   4.730  71.710  1.00  0.00    -0.066 OA 
HETATM   25  H   UNL     1     -10.394   5.204  70.737  1.00  0.00     0.000 HD 
BRANCH  23  26
HETATM   26  C   UNL     1     -10.164   3.783  72.222  1.00  0.00    -0.131 A  
HETATM   27  C   UNL     1     -10.121   2.399  71.950  1.00  0.00    -0.174 A  
HETATM   28  C   UNL     1     -10.584   1.502  72.929  1.00  0.00    -0.224 A  
HETATM   29  C   UNL     1      -9.553   1.794  70.696  1.00  0.00    -0.145 C  
HETATM   30  C   UNL     1     -11.033   1.956  74.166  1.00  0.00    -0.217 A  
HETATM   31  C   UNL     1     -11.035   3.317  74.446  1.00  0.00     0.075 A  
HETATM   32  C   UNL     1     -10.603   4.242  73.485  1.00  0.00    -0.291 A  
HETATM   33  C   UNL     1     -10.696   5.712  73.800  1.00  0.00    -0.277 C  
ENDBRANCH  23  26
ENDBRANCH  21  22
ENDBRANCH  18  21
ENDBRANCH  14  15
ENDBRANCH  11  14
ENDBRANCH  10  11
ENDBRANCH   9  10
ENDBRANCH   8   9
ENDBRANCH   2   3
TORSDOF 9
ENDMDL
MODEL      188
REMARK 921   NORMALIZED FREE ENERGY PREDICTED BY IDOCK:   -4.32 KCAL/MOL
REMARK 922        TOTAL FREE ENERGY PREDICTED BY IDOCK:   -7.69 KCAL/MOL
REMARK 923 INTER-LIGAND FREE ENERGY PREDICTED BY IDOCK:   -6.87 KCAL/MOL
REMARK 924 INTRA-LIGAND FREE ENERGY PREDICTED BY IDOCK:   -0.83 KCAL/MOL
REMARK 927      BINDING AFFINITY PREDICTED BY RF-SCORE:    0.00 PKD
ROOT
HETATM    1  C   UNL     1     -10.671  16.307  65.229  1.00  0.00    -0.332 C  
HETATM    2  O   UNL     1     -11.516  15.328  65.828  1.00  0.00    -0.247 OA 
ENDROOT
BRANCH   2   3
HETATM    3  C   UNL     1     -11.513  14.089  65.245  1.00  0.00    -0.322 A  
HETATM    4  C   UNL     1     -12.166  13.859  64.020  1.00  0.00    -0.413 A  
HETATM    5  C   UNL     1     -12.174  12.595  63.434  1.00  0.00    -0.610 A  
HETATM    6  C   UNL     1     -11.518  11.541  64.059  1.00  0.00    -0.331 A  
HETATM    7  C   UNL     1     -10.839  11.763  65.256  1.00  0.00    -0.343 A  
HETATM    8  C   UNL     1     -10.812  13.032  65.855  1.00  0.00    -0.272 A  
BRANCH   8   9
HETATM    9  O   UNL     1     -10.072  13.042  67.010  1.00  0.00    -0.237 OA 
BRANCH   9  10
HETATM   10  C   UNL     1      -8.789  13.667  66.991  1.00  0.00    -0.223 C  
BRANCH  10  11
HETATM   11  C   UNL     1      -7.687  12.602  67.153  1.00  0.00    -0.091 C  
HETATM   12  H   UNL     1      -5.699  12.536  67.307  1.00  0.00     0.000 HD 
HETATM   13  O   UNL     1      -6.379  13.192  67.207  1.00  0.00    -0.270 OA 
BRANCH  11  14
HETATM   14  C   UNL     1      -7.901  11.773  68.445  1.00  0.00    -0.141 C  
BRANCH  14  15
HETATM   15  N   UNL     1      -7.418  10.379  68.380  1.00  0.00    -0.088 NA 
HETATM   16  C   UNL     1      -6.177  10.191  69.146  1.00  0.00    -0.040 C  
HETATM   17  C   UNL     1      -6.394  10.385  70.655  1.00  0.00    -0.063 C  
HETATM   18  N   UNL     1      -7.348   9.428  71.261  1.00  0.00    -0.331 NA 
HETATM   19  C   UNL     1      -8.579   9.358  70.444  1.00  0.00    -0.230 C  
HETATM   20  C   UNL     1      -8.419   9.419  68.898  1.00  0.00    -0.122 C  
BRANCH  18  21
HETATM   21  C   UNL     1      -6.706   8.102  71.451  1.00  0.00    -0.055 C  
BRANCH  21  22
HETATM   22  C   UNL     1      -7.538   7.248  72.439  1.00  0.00    -0.088 C  
HETATM   23  N   UNL     1      -8.297   6.300  71.777  1.00  0.00    -0.121 N  
HETATM   24  O   UNL     1      -7.457   7.398  73.654  1.00  0.00    -0.094 OA 
HETATM   25  H   UNL     1      -8.194   6.268  70.763  1.00  0.00     0.000 HD 
BRANCH  23  26
HETATM   26  C   UNL     1      -9.193   5.376  72.339  1.00  0.00    -0.141 A  
HETATM   27  C   UNL     1     -10.428   5.745  72.913  1.00  0.00    -0.244 A  
HETATM   28  C   UNL     1     -11.270   4.737  73.414  1.00  0.00    -0.425 A  
HETATM   29  C   UNL     1     -10.950   7.154  72.979  1.00  0.00    -0.357 C  
HETATM   30  C   UNL     1     -10.925   3.393  73.307  1.00  0.00    -0.268 A  
HETATM   31  C   UNL     1      -9.727   3.030  72.704  1.00  0.00    -0.194 A  
HETATM   32  C   UNL     1      -8.852   4.010  72.215  1.00  0.00    -0.126 A  
HETATM   33  C   UNL     1      -7.528   3.578  71.639  1.00  0.00    -0.052 C  
ENDBRANCH  23  26
ENDBRANCH  21  22
ENDBRANCH  18  21
ENDBRANCH  14  15
ENDBRANCH  11  14
ENDBRANCH  10  11
ENDBRANCH   9  10
ENDBRANCH   8   9
ENDBRANCH   2   3
TORSDOF 9
ENDMDL
MODEL      189
REMARK 921   NORMALIZED FREE ENERGY PREDICTED BY IDOCK:   -4.31 KCAL/MOL
REMARK 922        TOTAL FREE ENERGY PREDICTED BY IDOCK:   -7.68 KCAL/MOL
REMARK 923 INTER-LIGAND FREE ENERGY PREDICTED BY IDOCK:   -6.64 KCAL/MOL
REMARK 924 INTRA-LIGAND FREE ENERGY PREDICTED BY IDOCK:   -1.04 KCAL/MOL
REMARK 927      BINDING AFFINITY PREDICTED BY RF-SCORE:    0.00 PKD
ROOT
HETATM    1  C   UNL     1      -7.225  20.377  66.792  1.00  0.00    -0.279 C  
HETATM    2  O   UNL     1      -7.916  19.360  67.512  1.00  0.00    -0.258 OA 
ENDROOT
BRANCH   2   3
HETATM    3  C   UNL     1      -7.276  18.153  67.619  1.00  0.00    -0.208 A  
HETATM    4  C   UNL     1      -5.933  18.076  68.031  1.00  0.00    -0.163 A  
HETATM    5  C   UNL     1      -5.278  16.849  68.126  1.00  0.00    -0.116 A  
HETATM    6  C   UNL     1      -5.961  15.678  67.822  1.00  0.00    -0.171 A  
HETATM    7  C   UNL     1      -7.302  15.739  67.444  1.00  0.00    -0.229 A  
HETATM    8  C   UNL     1      -7.979  16.964  67.353  1.00  0.00    -0.170 A  
BRANCH   8   9
HETATM    9  O   UNL     1      -9.293  16.802  66.991  1.00  0.00    -0.224 OA 
BRANCH   9  10
HETATM   10  C   UNL     1      -9.581  16.267  65.699  1.00  0.00    -0.117 C  
BRANCH  10  11
HETATM   11  C   UNL     1     -10.881  15.443  65.754  1.00  0.00    -0.343 C  
HETATM   12  H   UNL     1     -12.304  14.830  64.496  1.00  0.00     0.000 HD 
HETATM   13  O   UNL     1     -11.502  15.338  64.462  1.00  0.00    -0.383 OA 
BRANCH  11  14
HETATM   14  C   UNL     1     -10.609  14.009  66.279  1.00  0.00    -0.281 C  
BRANCH  14  15
HETATM   15  N   UNL     1     -10.560  13.882  67.750  1.00  0.00    -0.244 NA 
HETATM   16  C   UNL     1     -11.769  13.240  68.286  1.00  0.00    -0.353 C  
HETATM   17  C   UNL     1     -11.891  11.774  67.841  1.00  0.00    -0.219 C  
HETATM   18  N   UNL     1     -10.782  10.906  68.296  1.00  0.00    -0.189 NA 
HETATM   19  C   UNL     1      -9.483  11.552  68.007  1.00  0.00    -0.181 C  
HETATM   20  C   UNL     1      -9.391  13.093  68.200  1.00  0.00    -0.217 C  
BRANCH  18  21
HETATM   21  C   UNL     1     -10.946  10.559  69.731  1.00  0.00    -0.294 C  
BRANCH  21  22
HETATM   22  C   UNL     1     -10.002   9.389  70.104  1.00  0.00    -0.229 C  
HETATM   23  N   UNL     1     -10.090   8.354  69.189  1.00  0.00    -0.198 N  
HETATM   24  O   UNL     1      -9.250   9.444  71.071  1.00  0.00    -0.229 OA 
HETATM   25  H   UNL     1     -10.720   8.501  68.402  1.00  0.00     0.000 HD 
BRANCH  23  26
HETATM   26  C   UNL     1      -9.411   7.124  69.220  1.00  0.00    -0.146 A  
HETATM   27  C   UNL     1      -8.083   6.962  68.772  1.00  0.00    -0.121 A  
HETATM   28  C   UNL     1      -7.482   5.696  68.881  1.00  0.00    -0.084 A  
HETATM   29  C   UNL     1      -7.224   8.072  68.233  1.00  0.00    -0.093 C  
HETATM   30  C   UNL     1      -8.157   4.627  69.462  1.00  0.00    -0.065 A  
HETATM   31  C   UNL     1      -9.451   4.801  69.940  1.00  0.00    -0.231 A  
HETATM   32  C   UNL     1     -10.090   6.043  69.826  1.00  0.00    -0.246 A  
HETATM   33  C   UNL     1     -11.520   6.168  70.284  1.00  0.00    -0.357 C  
ENDBRANCH  23  26
ENDBRANCH  21  22
ENDBRANCH  18  21
ENDBRANCH  14  15
ENDBRANCH  11  14
ENDBRANCH  10  11
ENDBRANCH   9  10
ENDBRANCH   8   9
ENDBRANCH   2   3
TORSDOF 9
ENDMDL
MODEL      190
REMARK 921   NORMALIZED FREE ENERGY PREDICTED BY IDOCK:   -4.30 KCAL/MOL
REMARK 922        TOTAL FREE ENERGY PREDICTED BY IDOCK:   -7.66 KCAL/MOL
REMARK 923 INTER-LIGAND FREE ENERGY PREDICTED BY IDOCK:   -6.75 KCAL/MOL
REMARK 924 INTRA-LIGAND FREE ENERGY PREDICTED BY IDOCK:   -0.91 KCAL/MOL
REMARK 927      BINDING AFFINITY PREDICTED BY RF-SCORE:    0.00 PKD
ROOT
HETATM    1  C   UNL     1     -11.507   6.799  69.511  1.00  0.00    -0.190 C  
HETATM    2  O   UNL     1     -10.725   6.822  70.702  1.00  0.00    -0.221 OA 
ENDROOT
BRANCH   2   3
HETATM    3  C   UNL     1     -10.611   5.633  71.374  1.00  0.00    -0.253 A  
HETATM    4  C   UNL     1     -11.208   5.449  72.634  1.00  0.00    -0.333 A  
HETATM    5  C   UNL     1     -11.081   4.244  73.322  1.00  0.00    -0.342 A  
HETATM    6  C   UNL     1     -10.362   3.199  72.755  1.00  0.00    -0.238 A  
HETATM    7  C   UNL     1      -9.793   3.357  71.492  1.00  0.00    -0.212 A  
HETATM    8  C   UNL     1      -9.921   4.559  70.780  1.00  0.00    -0.199 A  
BRANCH   8   9
HETATM    9  O   UNL     1      -9.311   4.500  69.553  1.00  0.00    -0.122 OA 
BRANCH   9  10
HETATM   10  C   UNL     1      -8.100   5.230  69.358  1.00  0.00    -0.092 C  
BRANCH  10  11
HETATM   11  C   UNL     1      -8.022   5.734  67.905  1.00  0.00    -0.098 C  
HETATM   12  H   UNL     1      -8.906   5.362  66.155  1.00  0.00     0.000 HD 
HETATM   13  O   UNL     1      -8.954   5.051  67.051  1.00  0.00    -0.113 OA 
BRANCH  11  14
HETATM   14  C   UNL     1      -8.316   7.254  67.828  1.00  0.00    -0.118 C  
BRANCH  14  15
HETATM   15  N   UNL     1      -8.446   7.797  66.460  1.00  0.00    -0.126 NA 
HETATM   16  C   UNL     1      -9.785   8.351  66.213  1.00  0.00    -0.207 C  
HETATM   17  C   UNL     1     -10.067   9.590  67.078  1.00  0.00    -0.234 C  
HETATM   18  N   UNL     1      -9.149  10.725  66.831  1.00  0.00    -0.148 NA 
HETATM   19  C   UNL     1      -7.748  10.251  66.835  1.00  0.00    -0.105 C  
HETATM   20  C   UNL     1      -7.458   8.866  66.190  1.00  0.00    -0.090 C  
BRANCH  18  21
HETATM   21  C   UNL     1      -9.516  11.429  65.576  1.00  0.00    -0.227 C  
BRANCH  21  22
HETATM   22  C   UNL     1     -10.348  12.694  65.903  1.00  0.00    -0.276 C  
HETATM   23  N   UNL     1      -9.925  13.292  67.077  1.00  0.00    -0.234 N  
HETATM   24  O   UNL     1     -11.228  13.105  65.153  1.00  0.00    -0.288 OA 
HETATM   25  H   UNL     1      -9.131  12.854  67.544  1.00  0.00     0.000 HD 
BRANCH  23  26
HETATM   26  C   UNL     1     -10.461  14.430  67.700  1.00  0.00    -0.245 A  
HETATM   27  C   UNL     1     -11.365  14.368  68.781  1.00  0.00    -0.299 A  
HETATM   28  C   UNL     1     -11.813  15.569  69.359  1.00  0.00    -0.392 A  
HETATM   29  C   UNL     1     -11.849  13.093  69.415  1.00  0.00    -0.383 C  
HETATM   30  C   UNL     1     -11.343  16.801  68.913  1.00  0.00    -0.016 A  
HETATM   31  C   UNL     1     -10.422  16.857  67.875  1.00  0.00    -0.344 A  
HETATM   32  C   UNL     1      -9.971  15.681  67.259  1.00  0.00    -0.236 A  
HETATM   33  C   UNL     1      -9.032  15.790  66.086  1.00  0.00    -0.372 C  
ENDBRANCH  23  26
ENDBRANCH  21  22
ENDBRANCH  18  21
ENDBRANCH  14  15
ENDBRANCH  11  14
ENDBRANCH  10  11
ENDBRANCH   9  10
ENDBRANCH   8   9
ENDBRANCH   2   3
TORSDOF 9
ENDMDL
MODEL      191
REMARK 921   NORMALIZED FREE ENERGY PREDICTED BY IDOCK:   -4.30 KCAL/MOL
REMARK 922        TOTAL FREE ENERGY PREDICTED BY IDOCK:   -7.65 KCAL/MOL
REMARK 923 INTER-LIGAND FREE ENERGY PREDICTED BY IDOCK:   -6.86 KCAL/MOL
REMARK 924 INTRA-LIGAND FREE ENERGY PREDICTED BY IDOCK:   -0.80 KCAL/MOL
REMARK 927      BINDING AFFINITY PREDICTED BY RF-SCORE:    0.00 PKD
ROOT
HETATM    1  C   UNL     1     -11.957  13.740  69.172  1.00  0.00    -0.361 C  
HETATM    2  O   UNL     1     -10.753  14.131  68.519  1.00  0.00    -0.240 OA 
ENDROOT
BRANCH   2   3
HETATM    3  C   UNL     1     -10.893  14.700  67.280  1.00  0.00    -0.305 A  
HETATM    4  C   UNL     1     -10.689  16.077  67.084  1.00  0.00    -0.283 A  
HETATM    5  C   UNL     1     -10.845  16.657  65.826  1.00  0.00    -0.107 A  
HETATM    6  C   UNL     1     -11.197  15.864  64.741  1.00  0.00    -0.364 A  
HETATM    7  C   UNL     1     -11.369  14.491  64.916  1.00  0.00    -0.394 A  
HETATM    8  C   UNL     1     -11.206  13.890  66.172  1.00  0.00    -0.303 A  
BRANCH   8   9
HETATM    9  O   UNL     1     -11.396  12.531  66.123  1.00  0.00    -0.307 OA 
BRANCH   9  10
HETATM   10  C   UNL     1     -11.432  11.895  64.847  1.00  0.00    -0.253 C  
BRANCH  10  11
HETATM   11  C   UNL     1     -10.315  10.838  64.758  1.00  0.00    -0.310 C  
HETATM   12  H   UNL     1      -8.356  10.777  64.388  1.00  0.00     0.000 HD 
HETATM   13  O   UNL     1      -9.044  11.429  64.443  1.00  0.00    -0.057 OA 
BRANCH  11  14
HETATM   14  C   UNL     1     -10.174  10.066  66.095  1.00  0.00    -0.213 C  
BRANCH  14  15
HETATM   15  N   UNL     1      -9.810   8.641  65.958  1.00  0.00    -0.194 NA 
HETATM   16  C   UNL     1      -8.383   8.410  66.230  1.00  0.00    -0.122 C  
HETATM   17  C   UNL     1      -8.021   8.694  67.696  1.00  0.00    -0.107 C  
HETATM   18  N   UNL     1      -8.725   7.834  68.674  1.00  0.00    -0.129 NA 
HETATM   19  C   UNL     1     -10.173   7.805  68.370  1.00  0.00    -0.200 C  
HETATM   20  C   UNL     1     -10.590   7.777  66.872  1.00  0.00    -0.277 C  
BRANCH  18  21
HETATM   21  C   UNL     1      -8.117   6.480  68.711  1.00  0.00    -0.118 C  
BRANCH  21  22
HETATM   22  C   UNL     1      -9.078   5.486  69.409  1.00  0.00    -0.112 C  
HETATM   23  N   UNL     1      -8.983   5.569  70.787  1.00  0.00    -0.140 N  
HETATM   24  O   UNL     1      -9.848   4.773  68.774  1.00  0.00    -0.165 OA 
HETATM   25  H   UNL     1      -8.336   6.268  71.152  1.00  0.00     0.000 HD 
BRANCH  23  26
HETATM   26  C   UNL     1      -9.673   4.804  71.741  1.00  0.00    -0.166 A  
HETATM   27  C   UNL     1      -9.226   3.545  72.195  1.00  0.00    -0.165 A  
HETATM   28  C   UNL     1      -9.972   2.878  73.182  1.00  0.00    -0.185 A  
HETATM   29  C   UNL     1      -7.957   2.877  71.741  1.00  0.00    -0.057 C  
HETATM   30  C   UNL     1     -11.105   3.458  73.743  1.00  0.00    -0.286 A  
HETATM   31  C   UNL     1     -11.520   4.716  73.322  1.00  0.00    -0.346 A  
HETATM   32  C   UNL     1     -10.815   5.401  72.323  1.00  0.00    -0.286 A  
HETATM   33  C   UNL     1     -11.343   6.727  71.841  1.00  0.00    -0.306 C  
ENDBRANCH  23  26
ENDBRANCH  21  22
ENDBRANCH  18  21
ENDBRANCH  14  15
ENDBRANCH  11  14
ENDBRANCH  10  11
ENDBRANCH   9  10
ENDBRANCH   8   9
ENDBRANCH   2   3
TORSDOF 9
ENDMDL
MODEL      192
REMARK 921   NORMALIZED FREE ENERGY PREDICTED BY IDOCK:   -4.29 KCAL/MOL
REMARK 922        TOTAL FREE ENERGY PREDICTED BY IDOCK:   -7.65 KCAL/MOL
REMARK 923 INTER-LIGAND FREE ENERGY PREDICTED BY IDOCK:   -6.90 KCAL/MOL
REMARK 924 INTRA-LIGAND FREE ENERGY PREDICTED BY IDOCK:   -0.75 KCAL/MOL
REMARK 927      BINDING AFFINITY PREDICTED BY RF-SCORE:    0.00 PKD
ROOT
HETATM    1  C   UNL     1     -12.579   7.128  71.745  1.00  0.00    -0.346 C  
HETATM    2  O   UNL     1     -11.519   6.910  72.671  1.00  0.00    -0.259 OA 
ENDROOT
BRANCH   2   3
HETATM    3  C   UNL     1     -10.924   5.677  72.631  1.00  0.00    -0.270 A  
HETATM    4  C   UNL     1     -11.449   4.592  73.356  1.00  0.00    -0.322 A  
HETATM    5  C   UNL     1     -10.836   3.341  73.324  1.00  0.00    -0.283 A  
HETATM    6  C   UNL     1      -9.693   3.152  72.557  1.00  0.00    -0.206 A  
HETATM    7  C   UNL     1      -9.182   4.211  71.808  1.00  0.00    -0.181 A  
HETATM    8  C   UNL     1      -9.793   5.474  71.819  1.00  0.00    -0.171 A  
BRANCH   8   9
HETATM    9  O   UNL     1      -9.149   6.366  70.998  1.00  0.00    -0.152 OA 
BRANCH   9  10
HETATM   10  C   UNL     1      -9.382   6.288  69.593  1.00  0.00    -0.143 C  
BRANCH  10  11
HETATM   11  C   UNL     1      -8.049   6.423  68.834  1.00  0.00    -0.111 C  
HETATM   12  H   UNL     1      -7.410   6.422  66.944  1.00  0.00     0.000 HD 
HETATM   13  O   UNL     1      -8.233   6.339  67.412  1.00  0.00    -0.109 OA 
BRANCH  11  14
HETATM   14  C   UNL     1      -7.361   7.774  69.156  1.00  0.00    -0.088 C  
BRANCH  14  15
HETATM   15  N   UNL     1      -7.045   8.611  67.980  1.00  0.00    -0.081 NA 
HETATM   16  C   UNL     1      -8.148   9.523  67.643  1.00  0.00    -0.110 C  
HETATM   17  C   UNL     1      -8.379  10.579  68.735  1.00  0.00    -0.136 C  
HETATM   18  N   UNL     1      -7.222  11.473  68.971  1.00  0.00    -0.114 NA 
HETATM   19  C   UNL     1      -5.986  10.672  69.111  1.00  0.00    -0.041 C  
HETATM   20  C   UNL     1      -5.829   9.428  68.190  1.00  0.00    -0.037 C  
BRANCH  18  21
HETATM   21  C   UNL     1      -7.127  12.497  67.900  1.00  0.00    -0.111 C  
BRANCH  21  22
HETATM   22  C   UNL     1      -8.525  13.105  67.624  1.00  0.00    -0.194 C  
HETATM   23  N   UNL     1      -8.844  13.055  66.278  1.00  0.00    -0.431 N  
HETATM   24  O   UNL     1      -9.244  13.517  68.527  1.00  0.00    -0.180 OA 
HETATM   25  H   UNL     1      -8.154  12.616  65.668  1.00  0.00     0.000 HD 
BRANCH  23  26
HETATM   26  C   UNL     1     -10.005  13.539  65.655  1.00  0.00    -0.236 A  
HETATM   27  C   UNL     1     -10.268  14.912  65.466  1.00  0.00    -0.401 A  
HETATM   28  C   UNL     1     -11.445  15.290  64.795  1.00  0.00    -0.364 A  
HETATM   29  C   UNL     1      -9.342  16.022  65.881  1.00  0.00    -0.335 C  
HETATM   30  C   UNL     1     -12.317  14.336  64.279  1.00  0.00    -0.407 A  
HETATM   31  C   UNL     1     -12.034  12.984  64.431  1.00  0.00    -0.457 A  
HETATM   32  C   UNL     1     -10.882  12.570  65.115  1.00  0.00    -0.323 A  
HETATM   33  C   UNL     1     -10.654  11.096  65.326  1.00  0.00    -0.303 C  
ENDBRANCH  23  26
ENDBRANCH  21  22
ENDBRANCH  18  21
ENDBRANCH  14  15
ENDBRANCH  11  14
ENDBRANCH  10  11
ENDBRANCH   9  10
ENDBRANCH   8   9
ENDBRANCH   2   3
TORSDOF 9
ENDMDL
MODEL      193
REMARK 921   NORMALIZED FREE ENERGY PREDICTED BY IDOCK:   -4.28 KCAL/MOL
REMARK 922        TOTAL FREE ENERGY PREDICTED BY IDOCK:   -7.63 KCAL/MOL
REMARK 923 INTER-LIGAND FREE ENERGY PREDICTED BY IDOCK:   -6.50 KCAL/MOL
REMARK 924 INTRA-LIGAND FREE ENERGY PREDICTED BY IDOCK:   -1.13 KCAL/MOL
REMARK 927      BINDING AFFINITY PREDICTED BY RF-SCORE:    0.00 PKD
ROOT
HETATM    1  C   UNL     1     -11.009  15.806  64.855  1.00  0.00    -0.427 C  
HETATM    2  O   UNL     1     -10.073  15.365  65.834  1.00  0.00    -0.295 OA 
ENDROOT
BRANCH   2   3
HETATM    3  C   UNL     1     -10.511  15.364  67.132  1.00  0.00    -0.290 A  
HETATM    4  C   UNL     1     -11.578  14.541  67.539  1.00  0.00    -0.403 A  
HETATM    5  C   UNL     1     -12.032  14.550  68.857  1.00  0.00    -0.326 A  
HETATM    6  C   UNL     1     -11.417  15.374  69.793  1.00  0.00    -0.338 A  
HETATM    7  C   UNL     1     -10.338  16.169  69.409  1.00  0.00    -0.277 A  
HETATM    8  C   UNL     1      -9.861  16.164  68.090  1.00  0.00    -0.227 A  
BRANCH   8   9
HETATM    9  O   UNL     1      -8.781  16.995  67.928  1.00  0.00    -0.209 OA 
BRANCH   9  10
HETATM   10  C   UNL     1      -7.516  16.574  68.437  1.00  0.00    -0.186 C  
BRANCH  10  11
HETATM   11  C   UNL     1      -7.007  15.362  67.634  1.00  0.00    -0.184 C  
HETATM   12  H   UNL     1      -5.326  14.780  66.731  1.00  0.00     0.000 HD 
HETATM   13  O   UNL     1      -5.640  15.528  67.226  1.00  0.00    -0.338 OA 
BRANCH  11  14
HETATM   14  C   UNL     1      -7.111  14.059  68.469  1.00  0.00    -0.102 C  
BRANCH  14  15
HETATM   15  N   UNL     1      -6.967  12.809  67.696  1.00  0.00    -0.132 NA 
HETATM   16  C   UNL     1      -5.990  11.895  68.307  1.00  0.00    -0.050 C  
HETATM   17  C   UNL     1      -6.462  11.375  69.674  1.00  0.00    -0.133 C  
HETATM   18  N   UNL     1      -7.718  10.592  69.626  1.00  0.00    -0.143 NA 
HETATM   19  C   UNL     1      -8.736  11.318  68.836  1.00  0.00    -0.046 C  
HETATM   20  C   UNL     1      -8.250  12.082  67.571  1.00  0.00    -0.159 C  
BRANCH  18  21
HETATM   21  C   UNL     1      -7.459   9.222  69.114  1.00  0.00    -0.072 C  
BRANCH  21  22
HETATM   22  C   UNL     1      -8.162   8.178  70.017  1.00  0.00    -0.120 C  
HETATM   23  N   UNL     1      -8.384   8.673  71.289  1.00  0.00    -0.154 N  
HETATM   24  O   UNL     1      -8.506   7.080  69.593  1.00  0.00    -0.131 OA 
HETATM   25  H   UNL     1      -8.092   9.637  71.455  1.00  0.00     0.000 HD 
BRANCH  23  26
HETATM   26  C   UNL     1      -8.964   8.005  72.380  1.00  0.00    -0.176 A  
HETATM   27  C   UNL     1     -10.352   7.784  72.502  1.00  0.00    -0.328 A  
HETATM   28  C   UNL     1     -10.827   7.069  73.616  1.00  0.00    -0.199 A  
HETATM   29  C   UNL     1     -11.376   8.207  71.486  1.00  0.00    -0.308 C  
HETATM   30  C   UNL     1      -9.951   6.544  74.561  1.00  0.00    -0.358 A  
HETATM   31  C   UNL     1      -8.582   6.729  74.416  1.00  0.00    -0.183 A  
HETATM   32  C   UNL     1      -8.074   7.456  73.330  1.00  0.00    -0.140 A  
HETATM   33  C   UNL     1      -6.589   7.701  73.252  1.00  0.00    -0.072 C  
ENDBRANCH  23  26
ENDBRANCH  21  22
ENDBRANCH  18  21
ENDBRANCH  14  15
ENDBRANCH  11  14
ENDBRANCH  10  11
ENDBRANCH   9  10
ENDBRANCH   8   9
ENDBRANCH   2   3
TORSDOF 9
ENDMDL
MODEL      194
REMARK 921   NORMALIZED FREE ENERGY PREDICTED BY IDOCK:   -4.27 KCAL/MOL
REMARK 922        TOTAL FREE ENERGY PREDICTED BY IDOCK:   -7.62 KCAL/MOL
REMARK 923 INTER-LIGAND FREE ENERGY PREDICTED BY IDOCK:   -6.73 KCAL/MOL
REMARK 924 INTRA-LIGAND FREE ENERGY PREDICTED BY IDOCK:   -0.88 KCAL/MOL
REMARK 927      BINDING AFFINITY PREDICTED BY RF-SCORE:    0.00 PKD
ROOT
HETATM    1  C   UNL     1      -7.640   5.604  73.028  1.00  0.00    -0.100 C  
HETATM    2  O   UNL     1      -8.965   5.147  72.775  1.00  0.00    -0.121 OA 
ENDROOT
BRANCH   2   3
HETATM    3  C   UNL     1      -9.858   6.092  72.342  1.00  0.00    -0.162 A  
HETATM    4  C   UNL     1     -10.462   6.989  73.241  1.00  0.00    -0.365 A  
HETATM    5  C   UNL     1     -11.380   7.941  72.801  1.00  0.00    -0.453 A  
HETATM    6  C   UNL     1     -11.700   8.018  71.450  1.00  0.00    -0.320 A  
HETATM    7  C   UNL     1     -11.083   7.156  70.545  1.00  0.00    -0.299 A  
HETATM    8  C   UNL     1     -10.148   6.199  70.969  1.00  0.00    -0.188 A  
BRANCH   8   9
HETATM    9  O   UNL     1      -9.643   5.471  69.921  1.00  0.00    -0.149 OA 
BRANCH   9  10
HETATM   10  C   UNL     1     -10.522   5.110  68.857  1.00  0.00    -0.061 C  
BRANCH  10  11
HETATM   11  C   UNL     1      -9.720   4.933  67.554  1.00  0.00    -0.164 C  
HETATM   12  H   UNL     1     -10.086   4.685  65.608  1.00  0.00     0.000 HD 
HETATM   13  O   UNL     1     -10.581   4.795  66.412  1.00  0.00    -0.284 OA 
BRANCH  11  14
HETATM   14  C   UNL     1      -8.781   6.142  67.311  1.00  0.00    -0.108 C  
BRANCH  14  15
HETATM   15  N   UNL     1      -9.233   7.086  66.268  1.00  0.00    -0.155 NA 
HETATM   16  C   UNL     1     -10.125   8.120  66.813  1.00  0.00    -0.295 C  
HETATM   17  C   UNL     1      -9.397   9.052  67.795  1.00  0.00    -0.140 C  
HETATM   18  N   UNL     1      -8.276   9.812  67.195  1.00  0.00    -0.120 NA 
HETATM   19  C   UNL     1      -7.407   8.900  66.419  1.00  0.00    -0.088 C  
HETATM   20  C   UNL     1      -8.099   7.768  65.607  1.00  0.00    -0.129 C  
BRANCH  18  21
HETATM   21  C   UNL     1      -8.789  10.947  66.386  1.00  0.00    -0.171 C  
BRANCH  21  22
HETATM   22  C   UNL     1      -9.178  12.124  67.314  1.00  0.00    -0.185 C  
HETATM   23  N   UNL     1      -9.175  13.329  66.634  1.00  0.00    -0.349 N  
HETATM   24  O   UNL     1      -9.494  11.951  68.486  1.00  0.00    -0.198 OA 
HETATM   25  H   UNL     1      -8.952  13.285  65.640  1.00  0.00     0.000 HD 
BRANCH  23  26
HETATM   26  C   UNL     1      -9.444  14.607  67.153  1.00  0.00    -0.229 A  
HETATM   27  C   UNL     1     -10.744  15.146  67.249  1.00  0.00    -0.305 A  
HETATM   28  C   UNL     1     -10.907  16.420  67.820  1.00  0.00    -0.306 A  
HETATM   29  C   UNL     1     -11.998  14.426  66.836  1.00  0.00    -0.425 C  
HETATM   30  C   UNL     1      -9.820  17.125  68.329  1.00  0.00    -0.288 A  
HETATM   31  C   UNL     1      -8.546  16.574  68.269  1.00  0.00    -0.200 A  
HETATM   32  C   UNL     1      -8.342  15.316  67.685  1.00  0.00    -0.176 A  
HETATM   33  C   UNL     1      -6.936  14.789  67.570  1.00  0.00    -0.198 C  
ENDBRANCH  23  26
ENDBRANCH  21  22
ENDBRANCH  18  21
ENDBRANCH  14  15
ENDBRANCH  11  14
ENDBRANCH  10  11
ENDBRANCH   9  10
ENDBRANCH   8   9
ENDBRANCH   2   3
TORSDOF 9
ENDMDL
MODEL      195
REMARK 921   NORMALIZED FREE ENERGY PREDICTED BY IDOCK:   -4.27 KCAL/MOL
REMARK 922        TOTAL FREE ENERGY PREDICTED BY IDOCK:   -7.61 KCAL/MOL
REMARK 923 INTER-LIGAND FREE ENERGY PREDICTED BY IDOCK:   -6.97 KCAL/MOL
REMARK 924 INTRA-LIGAND FREE ENERGY PREDICTED BY IDOCK:   -0.64 KCAL/MOL
REMARK 927      BINDING AFFINITY PREDICTED BY RF-SCORE:    0.00 PKD
ROOT
HETATM    1  C   UNL     1     -12.298  14.226  65.555  1.00  0.00    -0.408 C  
HETATM    2  O   UNL     1     -11.464  13.720  66.594  1.00  0.00    -0.320 OA 
ENDROOT
BRANCH   2   3
HETATM    3  C   UNL     1     -11.388  14.480  67.731  1.00  0.00    -0.317 A  
HETATM    4  C   UNL     1     -10.838  15.775  67.706  1.00  0.00    -0.316 A  
HETATM    5  C   UNL     1     -10.748  16.542  68.866  1.00  0.00    -0.337 A  
HETATM    6  C   UNL     1     -11.219  16.030  70.069  1.00  0.00    -0.362 A  
HETATM    7  C   UNL     1     -11.796  14.762  70.101  1.00  0.00    -0.360 A  
HETATM    8  C   UNL     1     -11.904  13.980  68.942  1.00  0.00    -0.355 A  
BRANCH   8   9
HETATM    9  O   UNL     1     -12.522  12.779  69.184  1.00  0.00     0.040 OA 
BRANCH   9  10
HETATM   10  C   UNL     1     -11.710  11.640  69.462  1.00  0.00    -0.344 C  
BRANCH  10  11
HETATM   11  C   UNL     1     -12.043  11.090  70.862  1.00  0.00    -0.339 C  
HETATM   12  H   UNL     1     -13.587  10.235  71.792  1.00  0.00     0.000 HD 
HETATM   13  O   UNL     1     -13.382  10.574  70.929  1.00  0.00    -0.296 OA 
BRANCH  11  14
HETATM   14  C   UNL     1     -11.065   9.955  71.260  1.00  0.00    -0.232 C  
BRANCH  14  15
HETATM   15  N   UNL     1     -11.645   8.597  71.248  1.00  0.00    -0.273 NA 
HETATM   16  C   UNL     1     -11.085   7.769  70.170  1.00  0.00    -0.209 C  
HETATM   17  C   UNL     1      -9.591   7.477  70.382  1.00  0.00    -0.168 C  
HETATM   18  N   UNL     1      -9.288   6.722  71.619  1.00  0.00    -0.152 NA 
HETATM   19  C   UNL     1      -9.986   7.338  72.769  1.00  0.00    -0.194 C  
HETATM   20  C   UNL     1     -11.422   7.886  72.527  1.00  0.00    -0.398 C  
BRANCH  18  21
HETATM   21  C   UNL     1      -9.618   5.285  71.446  1.00  0.00    -0.158 C  
BRANCH  21  22
HETATM   22  C   UNL     1      -8.838   4.704  70.241  1.00  0.00    -0.083 C  
HETATM   23  N   UNL     1      -9.694   4.227  69.264  1.00  0.00    -0.189 N  
HETATM   24  O   UNL     1      -7.613   4.734  70.184  1.00  0.00    -0.053 OA 
HETATM   25  H   UNL     1     -10.692   4.341  69.444  1.00  0.00     0.000 HD 
BRANCH  23  26
HETATM   26  C   UNL     1      -9.350   3.605  68.053  1.00  0.00    -0.183 A  
HETATM   27  C   UNL     1      -8.586   2.421  67.980  1.00  0.00    -0.110 A  
HETATM   28  C   UNL     1      -8.329   1.858  66.717  1.00  0.00    -0.088 A  
HETATM   29  C   UNL     1      -8.066   1.668  69.173  1.00  0.00    -0.059 C  
HETATM   30  C   UNL     1      -8.853   2.422  65.558  1.00  0.00    -0.127 A  
HETATM   31  C   UNL     1      -9.640   3.565  65.637  1.00  0.00    -0.117 A  
HETATM   32  C   UNL     1      -9.897   4.167  66.876  1.00  0.00    -0.197 A  
HETATM   33  C   UNL     1     -10.688   5.449  66.910  1.00  0.00    -0.264 C  
ENDBRANCH  23  26
ENDBRANCH  21  22
ENDBRANCH  18  21
ENDBRANCH  14  15
ENDBRANCH  11  14
ENDBRANCH  10  11
ENDBRANCH   9  10
ENDBRANCH   8   9
ENDBRANCH   2   3
TORSDOF 9
ENDMDL
MODEL      196
REMARK 921   NORMALIZED FREE ENERGY PREDICTED BY IDOCK:   -4.27 KCAL/MOL
REMARK 922        TOTAL FREE ENERGY PREDICTED BY IDOCK:   -7.60 KCAL/MOL
REMARK 923 INTER-LIGAND FREE ENERGY PREDICTED BY IDOCK:   -6.59 KCAL/MOL
REMARK 924 INTRA-LIGAND FREE ENERGY PREDICTED BY IDOCK:   -1.02 KCAL/MOL
REMARK 927      BINDING AFFINITY PREDICTED BY RF-SCORE:    0.00 PKD
ROOT
HETATM    1  C   UNL     1      -9.870  13.624  67.726  1.00  0.00    -0.232 C  
HETATM    2  O   UNL     1     -10.770  12.578  67.371  1.00  0.00    -0.223 OA 
ENDROOT
BRANCH   2   3
HETATM    3  C   UNL     1     -11.265  12.612  66.094  1.00  0.00    -0.309 A  
HETATM    4  C   UNL     1     -12.368  13.419  65.762  1.00  0.00    -0.513 A  
HETATM    5  C   UNL     1     -12.879  13.443  64.466  1.00  0.00    -0.075 A  
HETATM    6  C   UNL     1     -12.285  12.668  63.477  1.00  0.00    -0.638 A  
HETATM    7  C   UNL     1     -11.171  11.889  63.785  1.00  0.00    -0.519 A  
HETATM    8  C   UNL     1     -10.637  11.861  65.082  1.00  0.00    -0.287 A  
BRANCH   8   9
HETATM    9  O   UNL     1      -9.531  11.054  65.168  1.00  0.00    -0.212 OA 
BRANCH   9  10
HETATM   10  C   UNL     1      -9.629   9.713  64.691  1.00  0.00    -0.077 C  
BRANCH  10  11
HETATM   11  C   UNL     1      -8.258   9.018  64.800  1.00  0.00    -0.160 C  
HETATM   12  H   UNL     1      -6.997   8.029  63.612  1.00  0.00     0.000 HD 
HETATM   13  O   UNL     1      -7.842   8.458  63.544  1.00  0.00    -0.137 OA 
BRANCH  11  14
HETATM   14  C   UNL     1      -7.168  10.013  65.274  1.00  0.00    -0.137 C  
BRANCH  14  15
HETATM   15  N   UNL     1      -6.273   9.502  66.332  1.00  0.00    -0.063 NA 
HETATM   16  C   UNL     1      -6.049  10.499  67.390  1.00  0.00    -0.053 C  
HETATM   17  C   UNL     1      -7.333  10.807  68.176  1.00  0.00    -0.088 C  
HETATM   18  N   UNL     1      -7.906   9.640  68.886  1.00  0.00    -0.079 NA 
HETATM   19  C   UNL     1      -7.982   8.480  67.971  1.00  0.00    -0.111 C  
HETATM   20  C   UNL     1      -6.808   8.279  66.970  1.00  0.00    -0.070 C  
BRANCH  18  21
HETATM   21  C   UNL     1      -7.134   9.351  70.121  1.00  0.00    -0.083 C  
BRANCH  21  22
HETATM   22  C   UNL     1      -7.662   8.054  70.784  1.00  0.00    -0.082 C  
HETATM   23  N   UNL     1      -8.916   8.241  71.338  1.00  0.00    -0.152 N  
HETATM   24  O   UNL     1      -7.032   7.003  70.748  1.00  0.00    -0.062 OA 
HETATM   25  H   UNL     1      -9.327   9.167  71.220  1.00  0.00     0.000 HD 
BRANCH  23  26
HETATM   26  C   UNL     1      -9.688   7.306  72.046  1.00  0.00    -0.157 A  
HETATM   27  C   UNL     1     -10.695   6.521  71.446  1.00  0.00    -0.280 A  
HETATM   28  C   UNL     1     -11.385   5.585  72.236  1.00  0.00    -0.257 A  
HETATM   29  C   UNL     1     -11.053   6.565  69.986  1.00  0.00    -0.422 C  
HETATM   30  C   UNL     1     -11.057   5.393  73.575  1.00  0.00    -0.273 A  
HETATM   31  C   UNL     1     -10.037   6.140  74.153  1.00  0.00    -0.304 A  
HETATM   32  C   UNL     1      -9.343   7.099  73.401  1.00  0.00    -0.220 A  
HETATM   33  C   UNL     1      -8.299   7.941  74.086  1.00  0.00    -0.312 C  
ENDBRANCH  23  26
ENDBRANCH  21  22
ENDBRANCH  18  21
ENDBRANCH  14  15
ENDBRANCH  11  14
ENDBRANCH  10  11
ENDBRANCH   9  10
ENDBRANCH   8   9
ENDBRANCH   2   3
TORSDOF 9
ENDMDL
MODEL      197
REMARK 921   NORMALIZED FREE ENERGY PREDICTED BY IDOCK:   -4.24 KCAL/MOL
REMARK 922        TOTAL FREE ENERGY PREDICTED BY IDOCK:   -7.57 KCAL/MOL
REMARK 923 INTER-LIGAND FREE ENERGY PREDICTED BY IDOCK:   -6.47 KCAL/MOL
REMARK 924 INTRA-LIGAND FREE ENERGY PREDICTED BY IDOCK:   -1.11 KCAL/MOL
REMARK 927      BINDING AFFINITY PREDICTED BY RF-SCORE:    0.00 PKD
ROOT
HETATM    1  C   UNL     1      -9.362   4.940  66.456  1.00  0.00    -0.142 C  
HETATM    2  O   UNL     1      -8.206   5.314  67.199  1.00  0.00    -0.107 OA 
ENDROOT
BRANCH   2   3
HETATM    3  C   UNL     1      -7.607   4.319  67.926  1.00  0.00    -0.069 A  
HETATM    4  C   UNL     1      -6.562   3.550  67.383  1.00  0.00    -0.042 A  
HETATM    5  C   UNL     1      -5.962   2.529  68.119  1.00  0.00    -0.024 A  
HETATM    6  C   UNL     1      -6.391   2.270  69.415  1.00  0.00    -0.029 A  
HETATM    7  C   UNL     1      -7.403   3.047  69.976  1.00  0.00    -0.044 A  
HETATM    8  C   UNL     1      -8.010   4.086  69.254  1.00  0.00    -0.055 A  
BRANCH   8   9
HETATM    9  O   UNL     1      -8.962   4.741  69.994  1.00  0.00    -0.090 OA 
BRANCH   9  10
HETATM   10  C   UNL     1      -9.455   4.114  71.177  1.00  0.00    -0.163 C  
BRANCH  10  11
HETATM   11  C   UNL     1     -10.349   5.097  71.956  1.00  0.00    -0.214 C  
HETATM   12  H   UNL     1     -10.592   5.709  73.839  1.00  0.00     0.000 HD 
HETATM   13  O   UNL     1     -10.041   5.103  73.359  1.00  0.00    -0.163 OA 
BRANCH  11  14
HETATM   14  C   UNL     1     -10.186   6.542  71.417  1.00  0.00    -0.197 C  
BRANCH  14  15
HETATM   15  N   UNL     1     -11.359   7.075  70.694  1.00  0.00    -0.292 NA 
HETATM   16  C   UNL     1     -11.657   8.462  71.079  1.00  0.00    -0.275 C  
HETATM   17  C   UNL     1     -10.547   9.433  70.648  1.00  0.00    -0.290 C  
HETATM   18  N   UNL     1     -10.328   9.496  69.185  1.00  0.00    -0.199 NA 
HETATM   19  C   UNL     1     -10.228   8.129  68.630  1.00  0.00    -0.207 C  
HETATM   20  C   UNL     1     -11.168   7.043  69.227  1.00  0.00    -0.070 C  
BRANCH  18  21
HETATM   21  C   UNL     1     -11.388  10.307  68.533  1.00  0.00    -0.168 C  
BRANCH  21  22
HETATM   22  C   UNL     1     -10.750  11.477  67.745  1.00  0.00    -0.207 C  
HETATM   23  N   UNL     1     -11.667  12.484  67.497  1.00  0.00    -0.375 N  
HETATM   24  O   UNL     1      -9.560  11.488  67.447  1.00  0.00    -0.167 OA 
HETATM   25  H   UNL     1     -12.603  12.342  67.876  1.00  0.00     0.000 HD 
BRANCH  23  26
HETATM   26  C   UNL     1     -11.459  13.676  66.785  1.00  0.00    -0.346 A  
HETATM   27  C   UNL     1     -10.827  14.809  67.339  1.00  0.00    -0.300 A  
HETATM   28  C   UNL     1     -10.633  15.941  66.528  1.00  0.00    -0.297 A  
HETATM   29  C   UNL     1     -10.279  14.880  68.738  1.00  0.00    -0.243 C  
HETATM   30  C   UNL     1     -11.010  15.939  65.189  1.00  0.00    -0.389 A  
HETATM   31  C   UNL     1     -11.596  14.807  64.635  1.00  0.00    -0.401 A  
HETATM   32  C   UNL     1     -11.826  13.668  65.420  1.00  0.00    -0.370 A  
HETATM   33  C   UNL     1     -12.534  12.491  64.801  1.00  0.00    -0.532 C  
ENDBRANCH  23  26
ENDBRANCH  21  22
ENDBRANCH  18  21
ENDBRANCH  14  15
ENDBRANCH  11  14
ENDBRANCH  10  11
ENDBRANCH   9  10
ENDBRANCH   8   9
ENDBRANCH   2   3
TORSDOF 9
ENDMDL
MODEL      198
REMARK 921   NORMALIZED FREE ENERGY PREDICTED BY IDOCK:   -4.24 KCAL/MOL
REMARK 922        TOTAL FREE ENERGY PREDICTED BY IDOCK:   -7.57 KCAL/MOL
REMARK 923 INTER-LIGAND FREE ENERGY PREDICTED BY IDOCK:   -6.57 KCAL/MOL
REMARK 924 INTRA-LIGAND FREE ENERGY PREDICTED BY IDOCK:   -0.99 KCAL/MOL
REMARK 927      BINDING AFFINITY PREDICTED BY RF-SCORE:    0.00 PKD
ROOT
HETATM    1  C   UNL     1      -6.492   5.741  70.993  1.00  0.00    -0.040 C  
HETATM    2  O   UNL     1      -7.331   6.881  70.830  1.00  0.00    -0.074 OA 
ENDROOT
BRANCH   2   3
HETATM    3  C   UNL     1      -8.459   6.917  71.606  1.00  0.00    -0.117 A  
HETATM    4  C   UNL     1      -8.473   7.594  72.839  1.00  0.00    -0.185 A  
HETATM    5  C   UNL     1      -9.617   7.619  73.634  1.00  0.00    -0.333 A  
HETATM    6  C   UNL     1     -10.771   6.977  73.202  1.00  0.00    -0.359 A  
HETATM    7  C   UNL     1     -10.780   6.331  71.967  1.00  0.00    -0.268 A  
HETATM    8  C   UNL     1      -9.641   6.305  71.149  1.00  0.00    -0.175 A  
BRANCH   8   9
HETATM    9  O   UNL     1      -9.867   5.641  69.969  1.00  0.00    -0.165 OA 
BRANCH   9  10
HETATM   10  C   UNL     1     -10.952   6.067  69.146  1.00  0.00    -0.359 C  
BRANCH  10  11
HETATM   11  C   UNL     1     -10.413   6.582  67.797  1.00  0.00    -0.227 C  
HETATM   12  H   UNL     1     -10.701   6.234  65.854  1.00  0.00     0.000 HD 
HETATM   13  O   UNL     1     -11.034   5.917  66.685  1.00  0.00    -0.287 OA 
BRANCH  11  14
HETATM   14  C   UNL     1     -10.654   8.106  67.648  1.00  0.00    -0.188 C  
BRANCH  14  15
HETATM   15  N   UNL     1      -9.635   8.825  66.857  1.00  0.00    -0.174 NA 
HETATM   16  C   UNL     1     -10.180  10.040  66.234  1.00  0.00    -0.215 C  
HETATM   17  C   UNL     1     -10.579  11.096  67.278  1.00  0.00    -0.239 C  
HETATM   18  N   UNL     1      -9.455  11.582  68.111  1.00  0.00    -0.178 NA 
HETATM   19  C   UNL     1      -8.679  10.435  68.630  1.00  0.00    -0.138 C  
HETATM   20  C   UNL     1      -8.470   9.221  67.679  1.00  0.00    -0.116 C  
BRANCH  18  21
HETATM   21  C   UNL     1      -8.621  12.546  67.349  1.00  0.00    -0.187 C  
BRANCH  21  22
HETATM   22  C   UNL     1      -8.537  13.891  68.113  1.00  0.00    -0.180 C  
HETATM   23  N   UNL     1      -9.144  14.915  67.407  1.00  0.00    -0.183 N  
HETATM   24  O   UNL     1      -8.031  13.975  69.227  1.00  0.00     0.063 OA 
HETATM   25  H   UNL     1      -9.576  14.656  66.521  1.00  0.00     0.000 HD 
BRANCH  23  26
HETATM   26  C   UNL     1      -9.233  16.269  67.769  1.00  0.00    -0.203 A  
HETATM   27  C   UNL     1     -10.312  16.804  68.504  1.00  0.00    -0.316 A  
HETATM   28  C   UNL     1     -10.286  18.167  68.848  1.00  0.00    -0.304 A  
HETATM   29  C   UNL     1     -11.480  16.003  69.010  1.00  0.00    -0.360 C  
HETATM   30  C   UNL     1      -9.200  18.972  68.517  1.00  0.00    -0.413 A  
HETATM   31  C   UNL     1      -8.120  18.432  67.829  1.00  0.00    -0.264 A  
HETATM   32  C   UNL     1      -8.122  17.083  67.448  1.00  0.00    -0.193 A  
HETATM   33  C   UNL     1      -6.969  16.557  66.635  1.00  0.00    -0.196 C  
ENDBRANCH  23  26
ENDBRANCH  21  22
ENDBRANCH  18  21
ENDBRANCH  14  15
ENDBRANCH  11  14
ENDBRANCH  10  11
ENDBRANCH   9  10
ENDBRANCH   8   9
ENDBRANCH   2   3
TORSDOF 9
ENDMDL
MODEL      199
REMARK 921   NORMALIZED FREE ENERGY PREDICTED BY IDOCK:   -4.23 KCAL/MOL
REMARK 922        TOTAL FREE ENERGY PREDICTED BY IDOCK:   -7.55 KCAL/MOL
REMARK 923 INTER-LIGAND FREE ENERGY PREDICTED BY IDOCK:   -6.91 KCAL/MOL
REMARK 924 INTRA-LIGAND FREE ENERGY PREDICTED BY IDOCK:   -0.65 KCAL/MOL
REMARK 927      BINDING AFFINITY PREDICTED BY RF-SCORE:    0.00 PKD
ROOT
HETATM    1  C   UNL     1      -8.857  15.884  66.240  1.00  0.00    -0.351 C  
HETATM    2  O   UNL     1     -10.107  15.572  66.849  1.00  0.00    -0.252 OA 
ENDROOT
BRANCH   2   3
HETATM    3  C   UNL     1     -10.896  14.671  66.185  1.00  0.00    -0.321 A  
HETATM    4  C   UNL     1     -11.348  14.924  64.878  1.00  0.00    -0.415 A  
HETATM    5  C   UNL     1     -12.162  14.012  64.208  1.00  0.00    -0.453 A  
HETATM    6  C   UNL     1     -12.526  12.825  64.831  1.00  0.00    -0.563 A  
HETATM    7  C   UNL     1     -12.056  12.547  66.114  1.00  0.00    -0.357 A  
HETATM    8  C   UNL     1     -11.228  13.448  66.799  1.00  0.00    -0.310 A  
BRANCH   8   9
HETATM    9  O   UNL     1     -10.859  12.975  68.033  1.00  0.00    -0.229 OA 
BRANCH   9  10
HETATM   10  C   UNL     1      -9.529  12.486  68.205  1.00  0.00    -0.214 C  
BRANCH  10  11
HETATM   11  C   UNL     1      -9.392  11.103  67.541  1.00  0.00    -0.168 C  
HETATM   12  H   UNL     1      -7.933   9.898  66.910  1.00  0.00     0.000 HD 
HETATM   13  O   UNL     1      -8.017  10.750  67.319  1.00  0.00    -0.113 OA 
BRANCH  11  14
HETATM   14  C   UNL     1     -10.042  10.000  68.416  1.00  0.00    -0.165 C  
BRANCH  14  15
HETATM   15  N   UNL     1      -9.977  10.238  69.872  1.00  0.00    -0.193 NA 
HETATM   16  C   UNL     1     -11.272  10.001  70.526  1.00  0.00    -0.336 C  
HETATM   17  C   UNL     1     -11.691   8.524  70.461  1.00  0.00    -0.072 C  
HETATM   18  N   UNL     1     -10.760   7.598  71.144  1.00  0.00    -0.226 NA 
HETATM   19  C   UNL     1      -9.369   7.883  70.730  1.00  0.00    -0.157 C  
HETATM   20  C   UNL     1      -8.972   9.375  70.532  1.00  0.00    -0.253 C  
BRANCH  18  21
HETATM   21  C   UNL     1     -10.948   7.661  72.616  1.00  0.00    -0.351 C  
BRANCH  21  22
HETATM   22  C   UNL     1     -10.022   6.632  73.313  1.00  0.00    -0.191 C  
HETATM   23  N   UNL     1      -9.841   5.503  72.534  1.00  0.00    -0.162 N  
HETATM   24  O   UNL     1      -9.497   6.861  74.397  1.00  0.00    -0.228 OA 
HETATM   25  H   UNL     1     -10.301   5.505  71.624  1.00  0.00     0.000 HD 
BRANCH  23  26
HETATM   26  C   UNL     1      -9.098   4.354  72.851  1.00  0.00    -0.120 A  
HETATM   27  C   UNL     1      -7.693   4.288  72.747  1.00  0.00    -0.081 A  
HETATM   28  C   UNL     1      -7.041   3.101  73.126  1.00  0.00    -0.044 A  
HETATM   29  C   UNL     1      -6.815   5.429  72.312  1.00  0.00    -0.078 C  
HETATM   30  C   UNL     1      -7.754   2.022  73.641  1.00  0.00    -0.042 A  
HETATM   31  C   UNL     1      -9.134   2.105  73.780  1.00  0.00    -0.071 A  
HETATM   32  C   UNL     1      -9.819   3.264  73.390  1.00  0.00    -0.166 A  
HETATM   33  C   UNL     1     -11.323   3.284  73.485  1.00  0.00    -0.227 C  
ENDBRANCH  23  26
ENDBRANCH  21  22
ENDBRANCH  18  21
ENDBRANCH  14  15
ENDBRANCH  11  14
ENDBRANCH  10  11
ENDBRANCH   9  10
ENDBRANCH   8   9
ENDBRANCH   2   3
TORSDOF 9
ENDMDL
MODEL      200
REMARK 921   NORMALIZED FREE ENERGY PREDICTED BY IDOCK:   -4.22 KCAL/MOL
REMARK 922        TOTAL FREE ENERGY PREDICTED BY IDOCK:   -7.53 KCAL/MOL
REMARK 923 INTER-LIGAND FREE ENERGY PREDICTED BY IDOCK:   -6.77 KCAL/MOL
REMARK 924 INTRA-LIGAND FREE ENERGY PREDICTED BY IDOCK:   -0.77 KCAL/MOL
REMARK 927      BINDING AFFINITY PREDICTED BY RF-SCORE:    0.00 PKD
ROOT
HETATM    1  C   UNL     1      -8.266   5.147  73.414  1.00  0.00    -0.111 C  
HETATM    2  O   UNL     1      -9.274   4.431  72.705  1.00  0.00    -0.123 OA 
ENDROOT
BRANCH   2   3
HETATM    3  C   UNL     1     -10.172   5.188  72.001  1.00  0.00    -0.202 A  
HETATM    4  C   UNL     1     -11.206   5.884  72.653  1.00  0.00    -0.335 A  
HETATM    5  C   UNL     1     -12.127   6.644  71.934  1.00  0.00    -0.385 A  
HETATM    6  C   UNL     1     -12.022   6.729  70.551  1.00  0.00    -0.385 A  
HETATM    7  C   UNL     1     -10.982   6.070  69.896  1.00  0.00    -0.458 A  
HETATM    8  C   UNL     1     -10.039   5.310  70.605  1.00  0.00    -0.239 A  
BRANCH   8   9
HETATM    9  O   UNL     1      -9.088   4.766  69.778  1.00  0.00    -0.098 OA 
BRANCH   9  10
HETATM   10  C   UNL     1      -9.480   4.353  68.470  1.00  0.00    -0.156 C  
BRANCH  10  11
HETATM   11  C   UNL     1      -8.231   4.141  67.594  1.00  0.00    -0.095 C  
HETATM   12  H   UNL     1      -7.681   3.015  66.040  1.00  0.00     0.000 HD 
HETATM   13  O   UNL     1      -8.451   3.146  66.581  1.00  0.00    -0.099 OA 
BRANCH  11  14
HETATM   14  C   UNL     1      -7.811   5.460  66.896  1.00  0.00    -0.101 C  
BRANCH  14  15
HETATM   15  N   UNL     1      -8.740   5.937  65.851  1.00  0.00    -0.148 NA 
HETATM   16  C   UNL     1      -9.900   6.635  66.424  1.00  0.00    -0.039 C  
HETATM   17  C   UNL     1      -9.500   7.946  67.119  1.00  0.00    -0.159 C  
HETATM   18  N   UNL     1      -8.877   8.945  66.222  1.00  0.00    -0.149 NA 
HETATM   19  C   UNL     1      -7.817   8.305  65.413  1.00  0.00    -0.113 C  
HETATM   20  C   UNL     1      -8.080   6.860  64.900  1.00  0.00    -0.109 C  
BRANCH  18  21
HETATM   21  C   UNL     1      -9.909   9.617  65.392  1.00  0.00    -0.252 C  
BRANCH  21  22
HETATM   22  C   UNL     1     -10.418  10.891  66.109  1.00  0.00    -0.229 C  
HETATM   23  N   UNL     1      -9.777  12.026  65.646  1.00  0.00    -0.273 N  
HETATM   24  O   UNL     1     -11.319  10.853  66.941  1.00  0.00    -0.329 OA 
HETATM   25  H   UNL     1      -9.096  11.886  64.899  1.00  0.00     0.000 HD 
BRANCH  23  26
HETATM   26  C   UNL     1      -9.953  13.349  66.083  1.00  0.00    -0.294 A  
HETATM   27  C   UNL     1      -9.340  13.870  67.242  1.00  0.00    -0.231 A  
HETATM   28  C   UNL     1      -9.552  15.220  67.571  1.00  0.00    -0.206 A  
HETATM   29  C   UNL     1      -8.412  13.095  68.136  1.00  0.00    -0.173 C  
HETATM   30  C   UNL     1     -10.311  16.050  66.751  1.00  0.00    -0.300 A  
HETATM   31  C   UNL     1     -10.880  15.544  65.589  1.00  0.00    -0.354 A  
HETATM   32  C   UNL     1     -10.710  14.196  65.241  1.00  0.00    -0.374 A  
HETATM   33  C   UNL     1     -11.408  13.669  64.015  1.00  0.00    -0.247 C  
ENDBRANCH  23  26
ENDBRANCH  21  22
ENDBRANCH  18  21
ENDBRANCH  14  15
ENDBRANCH  11  14
ENDBRANCH  10  11
ENDBRANCH   9  10
ENDBRANCH   8   9
ENDBRANCH   2   3
TORSDOF 9
ENDMDL
MODEL      201
REMARK 921   NORMALIZED FREE ENERGY PREDICTED BY IDOCK:   -4.19 KCAL/MOL
REMARK 922        TOTAL FREE ENERGY PREDICTED BY IDOCK:   -7.49 KCAL/MOL
REMARK 923 INTER-LIGAND FREE ENERGY PREDICTED BY IDOCK:   -7.08 KCAL/MOL
REMARK 924 INTRA-LIGAND FREE ENERGY PREDICTED BY IDOCK:   -0.42 KCAL/MOL
REMARK 927      BINDING AFFINITY PREDICTED BY RF-SCORE:    0.00 PKD
ROOT
HETATM    1  C   UNL     1      -9.219   4.157  70.907  1.00  0.00    -0.133 C  
HETATM    2  O   UNL     1      -9.775   5.204  70.117  1.00  0.00    -0.170 OA 
ENDROOT
BRANCH   2   3
HETATM    3  C   UNL     1      -9.935   6.413  70.741  1.00  0.00    -0.185 A  
HETATM    4  C   UNL     1     -10.923   6.599  71.725  1.00  0.00    -0.276 A  
HETATM    5  C   UNL     1     -11.094   7.832  72.351  1.00  0.00    -0.379 A  
HETATM    6  C   UNL     1     -10.269   8.898  72.009  1.00  0.00    -0.363 A  
HETATM    7  C   UNL     1      -9.265   8.717  71.059  1.00  0.00    -0.278 A  
HETATM    8  C   UNL     1      -9.072   7.479  70.428  1.00  0.00    -0.153 A  
BRANCH   8   9
HETATM    9  O   UNL     1      -8.020   7.507  69.548  1.00  0.00    -0.120 OA 
BRANCH   9  10
HETATM   10  C   UNL     1      -8.294   7.358  68.155  1.00  0.00    -0.124 C  
BRANCH  10  11
HETATM   11  C   UNL     1      -7.596   8.480  67.363  1.00  0.00    -0.097 C  
HETATM   12  H   UNL     1      -5.805   8.835  66.559  1.00  0.00     0.000 HD 
HETATM   13  O   UNL     1      -6.235   8.144  67.047  1.00  0.00    -0.052 OA 
BRANCH  11  14
HETATM   14  C   UNL     1      -8.344   8.772  66.037  1.00  0.00    -0.126 C  
BRANCH  14  15
HETATM   15  N   UNL     1      -9.716   9.295  66.196  1.00  0.00    -0.260 NA 
HETATM   16  C   UNL     1      -9.848  10.134  67.396  1.00  0.00    -0.187 C  
HETATM   17  C   UNL     1      -9.022  11.426  67.292  1.00  0.00    -0.159 C  
HETATM   18  N   UNL     1      -9.421  12.315  66.177  1.00  0.00    -0.237 NA 
HETATM   19  C   UNL     1      -9.540  11.533  64.927  1.00  0.00    -0.186 C  
HETATM   20  C   UNL     1     -10.142  10.102  65.031  1.00  0.00    -0.235 C  
BRANCH  18  21
HETATM   21  C   UNL     1     -10.664  13.052  66.517  1.00  0.00    -0.278 C  
BRANCH  21  22
HETATM   22  C   UNL     1     -10.569  13.616  67.956  1.00  0.00    -0.249 C  
HETATM   23  N   UNL     1     -11.810  13.667  68.566  1.00  0.00    -0.356 N  
HETATM   24  O   UNL     1      -9.494  13.915  68.467  1.00  0.00    -0.208 OA 
HETATM   25  H   UNL     1     -12.595  13.315  68.019  1.00  0.00     0.000 HD 
BRANCH  23  26
HETATM   26  C   UNL     1     -12.115  14.149  69.850  1.00  0.00    -0.347 A  
HETATM   27  C   UNL     1     -12.156  15.521  70.172  1.00  0.00    -0.404 A  
HETATM   28  C   UNL     1     -12.510  15.899  71.479  1.00  0.00    -0.483 A  
HETATM   29  C   UNL     1     -11.906  16.635  69.193  1.00  0.00     0.486 C  
HETATM   30  C   UNL     1     -12.861  14.948  72.433  1.00  0.00    -0.430 A  
HETATM   31  C   UNL     1     -12.859  13.599  72.100  1.00  0.00    -0.352 A  
HETATM   32  C   UNL     1     -12.488  13.184  70.813  1.00  0.00    -0.389 A  
HETATM   33  C   UNL     1     -12.423  11.708  70.517  1.00  0.00    -0.344 C  
ENDBRANCH  23  26
ENDBRANCH  21  22
ENDBRANCH  18  21
ENDBRANCH  14  15
ENDBRANCH  11  14
ENDBRANCH  10  11
ENDBRANCH   9  10
ENDBRANCH   8   9
ENDBRANCH   2   3
TORSDOF 9
ENDMDL
MODEL      202
REMARK 921   NORMALIZED FREE ENERGY PREDICTED BY IDOCK:   -4.19 KCAL/MOL
REMARK 922        TOTAL FREE ENERGY PREDICTED BY IDOCK:   -7.49 KCAL/MOL
REMARK 923 INTER-LIGAND FREE ENERGY PREDICTED BY IDOCK:   -6.40 KCAL/MOL
REMARK 924 INTRA-LIGAND FREE ENERGY PREDICTED BY IDOCK:   -1.09 KCAL/MOL
REMARK 927      BINDING AFFINITY PREDICTED BY RF-SCORE:    0.00 PKD
ROOT
HETATM    1  C   UNL     1      -8.699   5.772  67.030  1.00  0.00    -0.109 C  
HETATM    2  O   UNL     1      -8.117   6.388  68.174  1.00  0.00    -0.111 OA 
ENDROOT
BRANCH   2   3
HETATM    3  C   UNL     1      -7.869   5.567  69.243  1.00  0.00    -0.091 A  
HETATM    4  C   UNL     1      -7.221   4.330  69.076  1.00  0.00    -0.051 A  
HETATM    5  C   UNL     1      -6.982   3.489  70.161  1.00  0.00    -0.034 A  
HETATM    6  C   UNL     1      -7.377   3.879  71.435  1.00  0.00    -0.040 A  
HETATM    7  C   UNL     1      -7.991   5.117  71.619  1.00  0.00    -0.114 A  
HETATM    8  C   UNL     1      -8.230   5.980  70.539  1.00  0.00    -0.113 A  
BRANCH   8   9
HETATM    9  O   UNL     1      -8.820   7.154  70.937  1.00  0.00    -0.148 OA 
BRANCH   9  10
HETATM   10  C   UNL     1     -10.218   7.150  71.222  1.00  0.00    -0.190 C  
BRANCH  10  11
HETATM   11  C   UNL     1     -10.865   8.438  70.679  1.00  0.00    -0.231 C  
HETATM   12  H   UNL     1     -11.301  10.271  71.336  1.00  0.00     0.000 HD 
HETATM   13  O   UNL     1     -10.901   9.477  71.670  1.00  0.00    -0.343 OA 
BRANCH  11  14
HETATM   14  C   UNL     1     -10.091   8.971  69.445  1.00  0.00    -0.198 C  
BRANCH  14  15
HETATM   15  N   UNL     1     -10.930   9.297  68.274  1.00  0.00    -0.068 NA 
HETATM   16  C   UNL     1     -11.594  10.601  68.420  1.00  0.00    -0.194 C  
HETATM   17  C   UNL     1     -10.590  11.763  68.428  1.00  0.00    -0.216 C  
HETATM   18  N   UNL     1      -9.798  11.892  67.183  1.00  0.00    -0.193 NA 
HETATM   19  C   UNL     1      -9.244  10.575  66.800  1.00  0.00    -0.155 C  
HETATM   20  C   UNL     1     -10.146   9.326  67.020  1.00  0.00    -0.247 C  
BRANCH  18  21
HETATM   21  C   UNL     1     -10.614  12.510  66.108  1.00  0.00    -0.253 C  
BRANCH  21  22
HETATM   22  C   UNL     1     -11.142  13.890  66.571  1.00  0.00    -0.308 C  
HETATM   23  N   UNL     1     -10.129  14.832  66.617  1.00  0.00    -0.257 N  
HETATM   24  O   UNL     1     -12.330  14.087  66.804  1.00  0.00    -0.439 OA 
HETATM   25  H   UNL     1      -9.205  14.515  66.325  1.00  0.00     0.000 HD 
BRANCH  23  26
HETATM   26  C   UNL     1     -10.225  16.174  67.020  1.00  0.00    -0.285 A  
HETATM   27  C   UNL     1      -9.913  16.616  68.323  1.00  0.00    -0.261 A  
HETATM   28  C   UNL     1     -10.006  17.989  68.613  1.00  0.00    -0.396 A  
HETATM   29  C   UNL     1      -9.422  15.725  69.430  1.00  0.00    -0.275 C  
HETATM   30  C   UNL     1     -10.351  18.910  67.629  1.00  0.00    -0.496 A  
HETATM   31  C   UNL     1     -10.618  18.476  66.336  1.00  0.00    -0.365 A  
HETATM   32  C   UNL     1     -10.559  17.112  66.016  1.00  0.00    -0.205 A  
HETATM   33  C   UNL     1     -10.932  16.677  64.623  1.00  0.00    -0.012 C  
ENDBRANCH  23  26
ENDBRANCH  21  22
ENDBRANCH  18  21
ENDBRANCH  14  15
ENDBRANCH  11  14
ENDBRANCH  10  11
ENDBRANCH   9  10
ENDBRANCH   8   9
ENDBRANCH   2   3
TORSDOF 9
ENDMDL
MODEL      203
REMARK 921   NORMALIZED FREE ENERGY PREDICTED BY IDOCK:   -4.17 KCAL/MOL
REMARK 922        TOTAL FREE ENERGY PREDICTED BY IDOCK:   -7.47 KCAL/MOL
REMARK 923 INTER-LIGAND FREE ENERGY PREDICTED BY IDOCK:   -6.71 KCAL/MOL
REMARK 924 INTRA-LIGAND FREE ENERGY PREDICTED BY IDOCK:   -0.76 KCAL/MOL
REMARK 927      BINDING AFFINITY PREDICTED BY RF-SCORE:    0.00 PKD
ROOT
HETATM    1  C   UNL     1      -9.186   4.565  68.831  1.00  0.00    -0.134 C  
HETATM    2  O   UNL     1      -9.527   4.587  67.448  1.00  0.00    -0.141 OA 
ENDROOT
BRANCH   2   3
HETATM    3  C   UNL     1      -8.662   3.945  66.601  1.00  0.00    -0.115 A  
HETATM    4  C   UNL     1      -8.499   2.549  66.649  1.00  0.00    -0.101 A  
HETATM    5  C   UNL     1      -7.609   1.899  65.796  1.00  0.00    -0.070 A  
HETATM    6  C   UNL     1      -6.876   2.635  64.873  1.00  0.00    -0.044 A  
HETATM    7  C   UNL     1      -7.053   4.015  64.793  1.00  0.00    -0.065 A  
HETATM    8  C   UNL     1      -7.953   4.685  65.636  1.00  0.00    -0.095 A  
BRANCH   8   9
HETATM    9  O   UNL     1      -7.995   6.032  65.380  1.00  0.00    -0.104 OA 
BRANCH   9  10
HETATM   10  C   UNL     1      -6.788   6.691  64.999  1.00  0.00    -0.050 C  
BRANCH  10  11
HETATM   11  C   UNL     1      -7.113   8.076  64.408  1.00  0.00    -0.077 C  
HETATM   12  H   UNL     1      -8.210   8.838  62.926  1.00  0.00     0.000 HD 
HETATM   13  O   UNL     1      -8.010   7.983  63.290  1.00  0.00    -0.152 OA 
BRANCH  11  14
HETATM   14  C   UNL     1      -7.759   8.997  65.475  1.00  0.00    -0.091 C  
BRANCH  14  15
HETATM   15  N   UNL     1      -9.233   9.077  65.420  1.00  0.00    -0.207 NA 
HETATM   16  C   UNL     1      -9.860   8.506  66.621  1.00  0.00    -0.272 C  
HETATM   17  C   UNL     1      -9.541   9.322  67.884  1.00  0.00    -0.142 C  
HETATM   18  N   UNL     1     -10.030  10.719  67.844  1.00  0.00    -0.171 NA 
HETATM   19  C   UNL     1      -9.645  11.352  66.564  1.00  0.00    -0.198 C  
HETATM   20  C   UNL     1      -9.708  10.472  65.282  1.00  0.00    -0.270 C  
BRANCH  18  21
HETATM   21  C   UNL     1     -11.492  10.767  68.096  1.00  0.00    -0.271 C  
BRANCH  21  22
HETATM   22  C   UNL     1     -11.906  12.192  68.541  1.00  0.00    -0.310 C  
HETATM   23  N   UNL     1     -11.580  12.426  69.865  1.00  0.00    -0.499 N  
HETATM   24  O   UNL     1     -12.409  12.995  67.762  1.00  0.00    -0.144 OA 
HETATM   25  H   UNL     1     -11.102  11.668  70.352  1.00  0.00     0.000 HD 
BRANCH  23  26
HETATM   26  C   UNL     1     -11.830  13.585  70.617  1.00  0.00    -0.120 A  
HETATM   27  C   UNL     1     -11.249  14.837  70.327  1.00  0.00    -0.239 A  
HETATM   28  C   UNL     1     -11.596  15.945  71.120  1.00  0.00    -0.481 A  
HETATM   29  C   UNL     1     -10.316  15.097  69.176  1.00  0.00    -0.249 C  
HETATM   30  C   UNL     1     -12.531  15.831  72.144  1.00  0.00    -0.533 A  
HETATM   31  C   UNL     1     -13.133  14.605  72.401  1.00  0.00    -0.472 A  
HETATM   32  C   UNL     1     -12.793  13.474  71.646  1.00  0.00    -0.419 A  
HETATM   33  C   UNL     1     -13.410  12.148  72.009  1.00  0.00    -0.470 C  
ENDBRANCH  23  26
ENDBRANCH  21  22
ENDBRANCH  18  21
ENDBRANCH  14  15
ENDBRANCH  11  14
ENDBRANCH  10  11
ENDBRANCH   9  10
ENDBRANCH   8   9
ENDBRANCH   2   3
TORSDOF 9
ENDMDL
MODEL      204
REMARK 921   NORMALIZED FREE ENERGY PREDICTED BY IDOCK:   -4.16 KCAL/MOL
REMARK 922        TOTAL FREE ENERGY PREDICTED BY IDOCK:   -7.44 KCAL/MOL
REMARK 923 INTER-LIGAND FREE ENERGY PREDICTED BY IDOCK:   -6.42 KCAL/MOL
REMARK 924 INTRA-LIGAND FREE ENERGY PREDICTED BY IDOCK:   -1.02 KCAL/MOL
REMARK 927      BINDING AFFINITY PREDICTED BY RF-SCORE:    0.00 PKD
ROOT
HETATM    1  C   UNL     1     -11.067  16.992  64.894  1.00  0.00     0.146 C  
HETATM    2  O   UNL     1     -10.334  15.776  65.015  1.00  0.00    -0.468 OA 
ENDROOT
BRANCH   2   3
HETATM    3  C   UNL     1     -11.062  14.619  64.934  1.00  0.00    -0.401 A  
HETATM    4  C   UNL     1     -11.179  13.917  63.721  1.00  0.00     0.314 A  
HETATM    5  C   UNL     1     -11.932  12.747  63.636  1.00  0.00    -0.616 A  
HETATM    6  C   UNL     1     -12.570  12.254  64.767  1.00  0.00    -0.312 A  
HETATM    7  C   UNL     1     -12.435  12.923  65.983  1.00  0.00    -0.171 A  
HETATM    8  C   UNL     1     -11.672  14.096  66.089  1.00  0.00    -0.393 A  
BRANCH   8   9
HETATM    9  O   UNL     1     -11.648  14.581  67.372  1.00  0.00    -0.353 OA 
BRANCH   9  10
HETATM   10  C   UNL     1     -10.883  13.879  68.351  1.00  0.00    -0.254 C  
BRANCH  10  11
HETATM   11  C   UNL     1      -9.388  13.935  67.984  1.00  0.00    -0.204 C  
HETATM   12  H   UNL     1      -7.789  15.039  68.438  1.00  0.00     0.000 HD 
HETATM   13  O   UNL     1      -8.711  15.004  68.664  1.00  0.00    -0.161 OA 
BRANCH  11  14
HETATM   14  C   UNL     1      -8.677  12.604  68.344  1.00  0.00    -0.118 C  
BRANCH  14  15
HETATM   15  N   UNL     1      -9.410  11.381  67.959  1.00  0.00    -0.165 NA 
HETATM   16  C   UNL     1      -8.577  10.470  67.160  1.00  0.00    -0.127 C  
HETATM   17  C   UNL     1      -7.403   9.899  67.971  1.00  0.00    -0.084 C  
HETATM   18  N   UNL     1      -7.809   9.091  69.143  1.00  0.00    -0.091 NA 
HETATM   19  C   UNL     1      -8.830   9.819  69.928  1.00  0.00    -0.225 C  
HETATM   20  C   UNL     1      -9.897  10.631  69.138  1.00  0.00    -0.200 C  
BRANCH  18  21
HETATM   21  C   UNL     1      -8.263   7.743  68.716  1.00  0.00    -0.128 C  
BRANCH  21  22
HETATM   22  C   UNL     1      -8.280   6.781  69.929  1.00  0.00    -0.127 C  
HETATM   23  N   UNL     1      -9.572   6.461  70.307  1.00  0.00    -0.164 N  
HETATM   24  O   UNL     1      -7.247   6.343  70.425  1.00  0.00    -0.078 OA 
HETATM   25  H   UNL     1     -10.319   6.863  69.741  1.00  0.00     0.000 HD 
BRANCH  23  26
HETATM   26  C   UNL     1      -9.974   5.647  71.378  1.00  0.00    -0.186 A  
HETATM   27  C   UNL     1      -9.956   4.237  71.329  1.00  0.00    -0.230 A  
HETATM   28  C   UNL     1     -10.344   3.515  72.471  1.00  0.00    -0.196 A  
HETATM   29  C   UNL     1      -9.488   3.432  70.149  1.00  0.00    -0.244 C  
HETATM   30  C   UNL     1     -10.695   4.167  73.650  1.00  0.00    -0.318 A  
HETATM   31  C   UNL     1     -10.673   5.555  73.707  1.00  0.00    -0.300 A  
HETATM   32  C   UNL     1     -10.314   6.308  72.581  1.00  0.00    -0.219 A  
HETATM   33  C   UNL     1     -10.379   7.811  72.662  1.00  0.00    -0.352 C  
ENDBRANCH  23  26
ENDBRANCH  21  22
ENDBRANCH  18  21
ENDBRANCH  14  15
ENDBRANCH  11  14
ENDBRANCH  10  11
ENDBRANCH   9  10
ENDBRANCH   8   9
ENDBRANCH   2   3
TORSDOF 9
ENDMDL
MODEL      205
REMARK 921   NORMALIZED FREE ENERGY PREDICTED BY IDOCK:   -4.14 KCAL/MOL
REMARK 922        TOTAL FREE ENERGY PREDICTED BY IDOCK:   -7.42 KCAL/MOL
REMARK 923 INTER-LIGAND FREE ENERGY PREDICTED BY IDOCK:   -6.42 KCAL/MOL
REMARK 924 INTRA-LIGAND FREE ENERGY PREDICTED BY IDOCK:   -1.00 KCAL/MOL
REMARK 927      BINDING AFFINITY PREDICTED BY RF-SCORE:    0.00 PKD
ROOT
HETATM    1  C   UNL     1      -7.150   5.172  72.538  1.00  0.00    -0.086 C  
HETATM    2  O   UNL     1      -8.514   4.760  72.507  1.00  0.00    -0.113 OA 
ENDROOT
BRANCH   2   3
HETATM    3  C   UNL     1      -9.447   5.761  72.451  1.00  0.00    -0.143 A  
HETATM    4  C   UNL     1      -9.810   6.484  73.602  1.00  0.00    -0.231 A  
HETATM    5  C   UNL     1     -10.769   7.493  73.546  1.00  0.00    -0.299 A  
HETATM    6  C   UNL     1     -11.373   7.804  72.333  1.00  0.00    -0.400 A  
HETATM    7  C   UNL     1     -10.998   7.117  71.179  1.00  0.00    -0.272 A  
HETATM    8  C   UNL     1     -10.027   6.106  71.215  1.00  0.00    -0.182 A  
BRANCH   8   9
HETATM    9  O   UNL     1      -9.787   5.576  69.973  1.00  0.00    -0.171 OA 
BRANCH   9  10
HETATM   10  C   UNL     1     -10.810   5.674  68.982  1.00  0.00    -0.181 C  
BRANCH  10  11
HETATM   11  C   UNL     1     -10.179   5.952  67.605  1.00  0.00    -0.187 C  
HETATM   12  H   UNL     1     -10.782   6.442  65.768  1.00  0.00     0.000 HD 
HETATM   13  O   UNL     1     -11.171   6.271  66.617  1.00  0.00    -0.243 OA 
BRANCH  11  14
HETATM   14  C   UNL     1      -9.175   7.131  67.683  1.00  0.00    -0.125 C  
BRANCH  14  15
HETATM   15  N   UNL     1      -9.418   8.224  66.719  1.00  0.00    -0.182 NA 
HETATM   16  C   UNL     1      -9.703   9.498  67.393  1.00  0.00    -0.157 C  
HETATM   17  C   UNL     1      -8.487  10.024  68.173  1.00  0.00    -0.114 C  
HETATM   18  N   UNL     1      -7.303  10.310  67.332  1.00  0.00    -0.092 NA 
HETATM   19  C   UNL     1      -7.035   9.168  66.432  1.00  0.00    -0.080 C  
HETATM   20  C   UNL     1      -8.263   8.437  65.817  1.00  0.00    -0.131 C  
BRANCH  18  21
HETATM   21  C   UNL     1      -7.478  11.591  66.602  1.00  0.00    -0.078 C  
BRANCH  21  22
HETATM   22  C   UNL     1      -8.094  12.657  67.543  1.00  0.00    -0.178 C  
HETATM   23  N   UNL     1      -9.375  13.002  67.151  1.00  0.00    -0.222 N  
HETATM   24  O   UNL     1      -7.499  13.072  68.532  1.00  0.00    -0.119 OA 
HETATM   25  H   UNL     1      -9.746  12.509  66.339  1.00  0.00     0.000 HD 
BRANCH  23  26
HETATM   26  C   UNL     1     -10.225  13.952  67.740  1.00  0.00    -0.237 A  
HETATM   27  C   UNL     1     -11.142  13.641  68.765  1.00  0.00    -0.302 A  
HETATM   28  C   UNL     1     -11.920  14.675  69.314  1.00  0.00    -0.337 A  
HETATM   29  C   UNL     1     -11.313  12.275  69.370  1.00  0.00    -0.294 C  
HETATM   30  C   UNL     1     -11.763  15.993  68.896  1.00  0.00    -0.322 A  
HETATM   31  C   UNL     1     -10.830  16.303  67.915  1.00  0.00    -0.330 A  
HETATM   32  C   UNL     1     -10.053  15.294  67.328  1.00  0.00    -0.236 A  
HETATM   33  C   UNL     1      -9.109  15.661  66.213  1.00  0.00    -0.376 C  
ENDBRANCH  23  26
ENDBRANCH  21  22
ENDBRANCH  18  21
ENDBRANCH  14  15
ENDBRANCH  11  14
ENDBRANCH  10  11
ENDBRANCH   9  10
ENDBRANCH   8   9
ENDBRANCH   2   3
TORSDOF 9
ENDMDL
MODEL      206
REMARK 921   NORMALIZED FREE ENERGY PREDICTED BY IDOCK:   -4.14 KCAL/MOL
REMARK 922        TOTAL FREE ENERGY PREDICTED BY IDOCK:   -7.41 KCAL/MOL
REMARK 923 INTER-LIGAND FREE ENERGY PREDICTED BY IDOCK:   -6.46 KCAL/MOL
REMARK 924 INTRA-LIGAND FREE ENERGY PREDICTED BY IDOCK:   -0.95 KCAL/MOL
REMARK 927      BINDING AFFINITY PREDICTED BY RF-SCORE:    0.00 PKD
ROOT
HETATM    1  C   UNL     1      -7.032  10.271  70.253  1.00  0.00    -0.129 C  
HETATM    2  O   UNL     1      -8.172   9.901  69.483  1.00  0.00    -0.128 OA 
ENDROOT
BRANCH   2   3
HETATM    3  C   UNL     1      -9.161   9.228  70.150  1.00  0.00    -0.222 A  
HETATM    4  C   UNL     1     -10.399   9.837  70.423  1.00  0.00    -0.354 A  
HETATM    5  C   UNL     1     -11.399   9.156  71.114  1.00  0.00    -0.392 A  
HETATM    6  C   UNL     1     -11.181   7.849  71.533  1.00  0.00    -0.286 A  
HETATM    7  C   UNL     1      -9.970   7.223  71.240  1.00  0.00    -0.191 A  
HETATM    8  C   UNL     1      -8.956   7.890  70.536  1.00  0.00    -0.145 A  
BRANCH   8   9
HETATM    9  O   UNL     1      -7.859   7.091  70.331  1.00  0.00    -0.103 OA 
BRANCH   9  10
HETATM   10  C   UNL     1      -7.776   6.348  69.116  1.00  0.00    -0.101 C  
BRANCH  10  11
HETATM   11  C   UNL     1      -6.937   7.126  68.084  1.00  0.00    -0.076 C  
HETATM   12  H   UNL     1      -5.040   7.692  67.837  1.00  0.00     0.000 HD 
HETATM   13  O   UNL     1      -5.557   7.212  68.474  1.00  0.00    -0.020 OA 
BRANCH  11  14
HETATM   14  C   UNL     1      -7.007   6.452  66.689  1.00  0.00    -0.067 C  
BRANCH  14  15
HETATM   15  N   UNL     1      -8.312   6.564  66.006  1.00  0.00    -0.127 NA 
HETATM   16  C   UNL     1      -8.863   7.924  66.094  1.00  0.00    -0.166 C  
HETATM   17  C   UNL     1      -8.009   8.945  65.325  1.00  0.00    -0.116 C  
HETATM   18  N   UNL     1      -7.909   8.682  63.871  1.00  0.00    -0.140 NA 
HETATM   19  C   UNL     1      -7.568   7.262  63.637  1.00  0.00    -0.114 C  
HETATM   20  C   UNL     1      -8.221   6.204  64.573  1.00  0.00    -0.079 C  
BRANCH  18  21
HETATM   21  C   UNL     1      -9.156   9.098  63.180  1.00  0.00     0.184 C  
BRANCH  21  22
HETATM   22  C   UNL     1      -9.428  10.601  63.436  1.00  0.00    -0.319 C  
HETATM   23  N   UNL     1     -10.299  10.786  64.495  1.00  0.00    -0.355 N  
HETATM   24  O   UNL     1      -8.873  11.481  62.787  1.00  0.00    -0.223 OA 
HETATM   25  H   UNL     1     -10.617   9.941  64.970  1.00  0.00     0.000 HD 
BRANCH  23  26
HETATM   26  C   UNL     1     -10.798  12.002  64.991  1.00  0.00    -0.304 A  
HETATM   27  C   UNL     1     -12.001  12.586  64.543  1.00  0.00    -0.472 A  
HETATM   28  C   UNL     1     -12.431  13.787  65.134  1.00  0.00    -0.483 A  
HETATM   29  C   UNL     1     -12.908  11.982  63.507  1.00  0.00    -0.472 C  
HETATM   30  C   UNL     1     -11.717  14.374  66.174  1.00  0.00    -0.384 A  
HETATM   31  C   UNL     1     -10.553  13.774  66.641  1.00  0.00    -0.274 A  
HETATM   32  C   UNL     1     -10.082  12.588  66.060  1.00  0.00    -0.268 A  
HETATM   33  C   UNL     1      -8.776  12.013  66.543  1.00  0.00    -0.138 C  
ENDBRANCH  23  26
ENDBRANCH  21  22
ENDBRANCH  18  21
ENDBRANCH  14  15
ENDBRANCH  11  14
ENDBRANCH  10  11
ENDBRANCH   9  10
ENDBRANCH   8   9
ENDBRANCH   2   3
TORSDOF 9
ENDMDL
MODEL      207
REMARK 921   NORMALIZED FREE ENERGY PREDICTED BY IDOCK:   -4.12 KCAL/MOL
REMARK 922        TOTAL FREE ENERGY PREDICTED BY IDOCK:   -7.38 KCAL/MOL
REMARK 923 INTER-LIGAND FREE ENERGY PREDICTED BY IDOCK:   -6.47 KCAL/MOL
REMARK 924 INTRA-LIGAND FREE ENERGY PREDICTED BY IDOCK:   -0.91 KCAL/MOL
REMARK 927      BINDING AFFINITY PREDICTED BY RF-SCORE:    0.00 PKD
ROOT
HETATM    1  C   UNL     1     -10.027   4.422  71.441  1.00  0.00    -0.178 C  
HETATM    2  O   UNL     1     -10.442   5.770  71.637  1.00  0.00    -0.216 OA 
ENDROOT
BRANCH   2   3
HETATM    3  C   UNL     1      -9.454   6.718  71.603  1.00  0.00    -0.155 A  
HETATM    4  C   UNL     1      -8.825   7.157  72.783  1.00  0.00    -0.145 A  
HETATM    5  C   UNL     1      -7.829   8.131  72.749  1.00  0.00    -0.197 A  
HETATM    6  C   UNL     1      -7.437   8.674  71.531  1.00  0.00    -0.124 A  
HETATM    7  C   UNL     1      -8.030   8.224  70.352  1.00  0.00    -0.098 A  
HETATM    8  C   UNL     1      -9.026   7.237  70.367  1.00  0.00    -0.151 A  
BRANCH   8   9
HETATM    9  O   UNL     1      -9.458   6.920  69.103  1.00  0.00    -0.143 OA 
BRANCH   9  10
HETATM   10  C   UNL     1      -8.778   7.494  67.988  1.00  0.00    -0.121 C  
BRANCH  10  11
HETATM   11  C   UNL     1      -9.787   8.214  67.075  1.00  0.00    -0.232 C  
HETATM   12  H   UNL     1     -11.744   8.157  66.690  1.00  0.00     0.000 HD 
HETATM   13  O   UNL     1     -11.122   7.713  67.253  1.00  0.00    -0.157 OA 
BRANCH  11  14
HETATM   14  C   UNL     1      -9.800   9.739  67.355  1.00  0.00    -0.174 C  
BRANCH  14  15
HETATM   15  N   UNL     1      -8.779  10.517  66.624  1.00  0.00    -0.132 NA 
HETATM   16  C   UNL     1      -9.333  11.756  66.059  1.00  0.00    -0.220 C  
HETATM   17  C   UNL     1      -9.769  12.746  67.151  1.00  0.00    -0.216 C  
HETATM   18  N   UNL     1      -8.669  13.203  68.032  1.00  0.00    -0.182 NA 
HETATM   19  C   UNL     1      -7.884  12.041  68.502  1.00  0.00    -0.129 C  
HETATM   20  C   UNL     1      -7.636  10.886  67.490  1.00  0.00    -0.101 C  
BRANCH  18  21
HETATM   21  C   UNL     1      -7.837  14.221  67.342  1.00  0.00    -0.187 C  
BRANCH  21  22
HETATM   22  C   UNL     1      -8.072  15.614  67.976  1.00  0.00    -0.136 C  
HETATM   23  N   UNL     1      -8.601  16.507  67.060  1.00  0.00    -0.182 N  
HETATM   24  O   UNL     1      -7.850  15.834  69.162  1.00  0.00    -0.197 OA 
HETATM   25  H   UNL     1      -8.787  16.138  66.127  1.00  0.00     0.000 HD 
BRANCH  23  26
HETATM   26  C   UNL     1      -8.911  17.861  67.265  1.00  0.00    -0.250 A  
HETATM   27  C   UNL     1      -8.084  18.919  66.832  1.00  0.00    -0.275 A  
HETATM   28  C   UNL     1      -8.506  20.242  67.053  1.00  0.00    -0.388 A  
HETATM   29  C   UNL     1      -6.791  18.739  66.084  1.00  0.00    -0.274 C  
HETATM   30  C   UNL     1      -9.736  20.516  67.643  1.00  0.00    -0.501 A  
HETATM   31  C   UNL     1     -10.566  19.471  68.032  1.00  0.00    -0.458 A  
HETATM   32  C   UNL     1     -10.168  18.140  67.849  1.00  0.00    -0.391 A  
HETATM   33  C   UNL     1     -11.063  17.039  68.355  1.00  0.00    -0.164 C  
ENDBRANCH  23  26
ENDBRANCH  21  22
ENDBRANCH  18  21
ENDBRANCH  14  15
ENDBRANCH  11  14
ENDBRANCH  10  11
ENDBRANCH   9  10
ENDBRANCH   8   9
ENDBRANCH   2   3
TORSDOF 9
ENDMDL
MODEL      208
REMARK 921   NORMALIZED FREE ENERGY PREDICTED BY IDOCK:   -4.05 KCAL/MOL
REMARK 922        TOTAL FREE ENERGY PREDICTED BY IDOCK:   -7.27 KCAL/MOL
REMARK 923 INTER-LIGAND FREE ENERGY PREDICTED BY IDOCK:   -6.33 KCAL/MOL
REMARK 924 INTRA-LIGAND FREE ENERGY PREDICTED BY IDOCK:   -0.94 KCAL/MOL
REMARK 927      BINDING AFFINITY PREDICTED BY RF-SCORE:    0.00 PKD
ROOT
HETATM    1  C   UNL     1      -6.622   5.855  71.550  1.00  0.00    -0.054 C  
HETATM    2  O   UNL     1      -7.679   6.810  71.493  1.00  0.00    -0.094 OA 
ENDROOT
BRANCH   2   3
HETATM    3  C   UNL     1      -8.859   6.441  72.083  1.00  0.00    -0.136 A  
HETATM    4  C   UNL     1      -9.173   6.841  73.394  1.00  0.00    -0.159 A  
HETATM    5  C   UNL     1     -10.368   6.455  73.998  1.00  0.00    -0.340 A  
HETATM    6  C   UNL     1     -11.275   5.672  73.295  1.00  0.00    -0.235 A  
HETATM    7  C   UNL     1     -10.990   5.297  71.982  1.00  0.00    -0.196 A  
HETATM    8  C   UNL     1      -9.797   5.685  71.355  1.00  0.00    -0.173 A  
BRANCH   8   9
HETATM    9  O   UNL     1      -9.723   5.234  70.061  1.00  0.00    -0.165 OA 
BRANCH   9  10
HETATM   10  C   UNL     1     -10.783   5.563  69.164  1.00  0.00    -0.190 C  
BRANCH  10  11
HETATM   11  C   UNL     1     -10.208   5.881  67.771  1.00  0.00    -0.182 C  
HETATM   12  H   UNL     1     -10.411   5.227  65.897  1.00  0.00     0.000 HD 
HETATM   13  O   UNL     1     -10.766   5.031  66.756  1.00  0.00    -0.225 OA 
BRANCH  11  14
HETATM   14  C   UNL     1     -10.488   7.355  67.378  1.00  0.00    -0.296 C  
BRANCH  14  15
HETATM   15  N   UNL     1      -9.510   8.335  67.892  1.00  0.00    -0.144 NA 
HETATM   16  C   UNL     1      -9.291   9.439  66.946  1.00  0.00    -0.147 C  
HETATM   17  C   UNL     1     -10.548  10.305  66.766  1.00  0.00    -0.185 C  
HETATM   18  N   UNL     1     -11.012  10.969  68.005  1.00  0.00    -0.236 NA 
HETATM   19  C   UNL     1     -11.067   9.990  69.112  1.00  0.00    -0.190 C  
HETATM   20  C   UNL     1      -9.937   8.922  69.181  1.00  0.00    -0.190 C  
BRANCH  18  21
HETATM   21  C   UNL     1     -10.160  12.145  68.316  1.00  0.00    -0.210 C  
BRANCH  21  22
HETATM   22  C   UNL     1     -10.813  13.434  67.758  1.00  0.00    -0.252 C  
HETATM   23  N   UNL     1      -9.944  14.509  67.814  1.00  0.00    -0.223 N  
HETATM   24  O   UNL     1     -11.945  13.437  67.287  1.00  0.00    -0.362 OA 
HETATM   25  H   UNL     1      -9.010  14.315  68.177  1.00  0.00     0.000 HD 
BRANCH  23  26
HETATM   26  C   UNL     1     -10.196  15.836  67.430  1.00  0.00    -0.270 A  
HETATM   27  C   UNL     1     -10.279  16.250  66.084  1.00  0.00    -0.361 A  
HETATM   28  C   UNL     1     -10.575  17.597  65.807  1.00  0.00    -0.177 A  
HETATM   29  C   UNL     1     -10.133  15.335  64.900  1.00  0.00    -0.114 C  
HETATM   30  C   UNL     1     -10.831  18.503  66.832  1.00  0.00    -0.208 A  
HETATM   31  C   UNL     1     -10.789  18.082  68.156  1.00  0.00    -0.149 A  
HETATM   32  C   UNL     1     -10.474  16.753  68.470  1.00  0.00    -0.335 A  
HETATM   33  C   UNL     1     -10.362  16.357  69.920  1.00  0.00    -0.129 C  
ENDBRANCH  23  26
ENDBRANCH  21  22
ENDBRANCH  18  21
ENDBRANCH  14  15
ENDBRANCH  11  14
ENDBRANCH  10  11
ENDBRANCH   9  10
ENDBRANCH   8   9
ENDBRANCH   2   3
TORSDOF 9
ENDMDL
MODEL      209
REMARK 921   NORMALIZED FREE ENERGY PREDICTED BY IDOCK:   -4.04 KCAL/MOL
REMARK 922        TOTAL FREE ENERGY PREDICTED BY IDOCK:   -7.26 KCAL/MOL
REMARK 923 INTER-LIGAND FREE ENERGY PREDICTED BY IDOCK:   -6.57 KCAL/MOL
REMARK 924 INTRA-LIGAND FREE ENERGY PREDICTED BY IDOCK:   -0.69 KCAL/MOL
REMARK 927      BINDING AFFINITY PREDICTED BY RF-SCORE:    0.00 PKD
ROOT
HETATM    1  C   UNL     1     -11.823  15.037  67.208  1.00  0.00    -0.145 C  
HETATM    2  O   UNL     1     -12.232  13.685  67.026  1.00  0.00    -0.389 OA 
ENDROOT
BRANCH   2   3
HETATM    3  C   UNL     1     -11.845  13.088  65.855  1.00  0.00    -0.416 A  
HETATM    4  C   UNL     1     -12.779  12.794  64.845  1.00  0.00    -0.479 A  
HETATM    5  C   UNL     1     -12.386  12.174  63.660  1.00  0.00    -0.673 A  
HETATM    6  C   UNL     1     -11.050  11.849  63.461  1.00  0.00    -0.506 A  
HETATM    7  C   UNL     1     -10.110  12.165  64.441  1.00  0.00    -0.300 A  
HETATM    8  C   UNL     1     -10.485  12.798  65.636  1.00  0.00    -0.278 A  
BRANCH   8   9
HETATM    9  O   UNL     1      -9.409  13.041  66.452  1.00  0.00    -0.244 OA 
BRANCH   9  10
HETATM   10  C   UNL     1      -9.365  12.403  67.727  1.00  0.00    -0.196 C  
BRANCH  10  11
HETATM   11  C   UNL     1      -8.009  11.696  67.910  1.00  0.00    -0.132 C  
HETATM   12  H   UNL     1      -6.448  11.777  69.151  1.00  0.00     0.000 HD 
HETATM   13  O   UNL     1      -7.285  12.213  69.038  1.00  0.00    -0.103 OA 
BRANCH  11  14
HETATM   14  C   UNL     1      -8.201  10.171  68.114  1.00  0.00    -0.113 C  
BRANCH  14  15
HETATM   15  N   UNL     1      -8.326   9.739  69.521  1.00  0.00    -0.145 NA 
HETATM   16  C   UNL     1      -9.715   9.814  69.997  1.00  0.00    -0.250 C  
HETATM   17  C   UNL     1     -10.629   8.813  69.272  1.00  0.00    -0.197 C  
HETATM   18  N   UNL     1     -10.251   7.394  69.464  1.00  0.00    -0.199 NA 
HETATM   19  C   UNL     1      -8.801   7.222  69.225  1.00  0.00    -0.136 C  
HETATM   20  C   UNL     1      -7.853   8.351  69.721  1.00  0.00    -0.099 C  
BRANCH  18  21
HETATM   21  C   UNL     1     -10.674   6.919  70.806  1.00  0.00    -0.233 C  
BRANCH  21  22
HETATM   22  C   UNL     1     -10.133   5.489  71.056  1.00  0.00    -0.209 C  
HETATM   23  N   UNL     1      -9.518   5.387  72.291  1.00  0.00    -0.145 N  
HETATM   24  O   UNL     1     -10.301   4.581  70.249  1.00  0.00    -0.160 OA 
HETATM   25  H   UNL     1      -9.524   6.228  72.868  1.00  0.00     0.000 HD 
BRANCH  23  26
HETATM   26  C   UNL     1      -8.886   4.261  72.843  1.00  0.00    -0.103 A  
HETATM   27  C   UNL     1      -9.588   3.201  73.454  1.00  0.00    -0.140 A  
HETATM   28  C   UNL     1      -8.861   2.100  73.941  1.00  0.00    -0.062 A  
HETATM   29  C   UNL     1     -11.085   3.126  73.572  1.00  0.00    -0.316 C  
HETATM   30  C   UNL     1      -7.481   2.025  73.788  1.00  0.00    -0.037 A  
HETATM   31  C   UNL     1      -6.797   3.052  73.150  1.00  0.00    -0.034 A  
HETATM   32  C   UNL     1      -7.485   4.176  72.672  1.00  0.00    -0.073 A  
HETATM   33  C   UNL     1      -6.697   5.303  72.057  1.00  0.00    -0.060 C  
ENDBRANCH  23  26
ENDBRANCH  21  22
ENDBRANCH  18  21
ENDBRANCH  14  15
ENDBRANCH  11  14
ENDBRANCH  10  11
ENDBRANCH   9  10
ENDBRANCH   8   9
ENDBRANCH   2   3
TORSDOF 9
ENDMDL
MODEL      210
REMARK 921   NORMALIZED FREE ENERGY PREDICTED BY IDOCK:   -4.00 KCAL/MOL
REMARK 922        TOTAL FREE ENERGY PREDICTED BY IDOCK:   -7.20 KCAL/MOL
REMARK 923 INTER-LIGAND FREE ENERGY PREDICTED BY IDOCK:   -6.59 KCAL/MOL
REMARK 924 INTRA-LIGAND FREE ENERGY PREDICTED BY IDOCK:   -0.61 KCAL/MOL
REMARK 927      BINDING AFFINITY PREDICTED BY RF-SCORE:    0.00 PKD
ROOT
HETATM    1  C   UNL     1     -11.715  15.211  67.046  1.00  0.00    -0.110 C  
HETATM    2  O   UNL     1     -12.072  13.834  66.963  1.00  0.00    -0.406 OA 
ENDROOT
BRANCH   2   3
HETATM    3  C   UNL     1     -11.803  13.210  65.774  1.00  0.00    -0.397 A  
HETATM    4  C   UNL     1     -12.831  12.902  64.865  1.00  0.00    -0.370 A  
HETATM    5  C   UNL     1     -12.558  12.255  63.661  1.00  0.00    -0.599 A  
HETATM    6  C   UNL     1     -11.249  11.916  63.342  1.00  0.00    -0.463 A  
HETATM    7  C   UNL     1     -10.217  12.245  64.220  1.00  0.00    -0.356 A  
HETATM    8  C   UNL     1     -10.472  12.906  65.431  1.00  0.00    -0.292 A  
BRANCH   8   9
HETATM    9  O   UNL     1      -9.321  13.157  66.134  1.00  0.00    -0.194 OA 
BRANCH   9  10
HETATM   10  C   UNL     1      -9.180  12.586  67.434  1.00  0.00    -0.186 C  
BRANCH  10  11
HETATM   11  C   UNL     1      -7.820  11.872  67.546  1.00  0.00    -0.152 C  
HETATM   12  H   UNL     1      -5.965  12.298  68.147  1.00  0.00     0.000 HD 
HETATM   13  O   UNL     1      -6.804  12.738  68.078  1.00  0.00    -0.076 OA 
BRANCH  11  14
HETATM   14  C   UNL     1      -7.921  10.624  68.460  1.00  0.00    -0.122 C  
BRANCH  14  15
HETATM   15  N   UNL     1      -8.163   9.350  67.753  1.00  0.00    -0.114 NA 
HETATM   16  C   UNL     1      -7.006   8.446  67.839  1.00  0.00    -0.078 C  
HETATM   17  C   UNL     1      -6.750   7.970  69.277  1.00  0.00    -0.040 C  
HETATM   18  N   UNL     1      -7.866   7.197  69.870  1.00  0.00    -0.111 NA 
HETATM   19  C   UNL     1      -9.144   7.909  69.653  1.00  0.00    -0.153 C  
HETATM   20  C   UNL     1      -9.340   8.631  68.289  1.00  0.00    -0.137 C  
BRANCH  18  21
HETATM   21  C   UNL     1      -7.880   5.811  69.338  1.00  0.00    -0.093 C  
BRANCH  21  22
HETATM   22  C   UNL     1      -9.063   5.021  69.951  1.00  0.00    -0.119 C  
HETATM   23  N   UNL     1      -8.779   4.597  71.237  1.00  0.00    -0.115 N  
HETATM   24  O   UNL     1     -10.120   4.864  69.350  1.00  0.00    -0.218 OA 
HETATM   25  H   UNL     1      -7.871   4.873  71.612  1.00  0.00     0.000 HD 
BRANCH  23  26
HETATM   26  C   UNL     1      -9.594   3.831  72.087  1.00  0.00    -0.148 A  
HETATM   27  C   UNL     1     -10.605   4.388  72.898  1.00  0.00    -0.264 A  
HETATM   28  C   UNL     1     -11.391   3.528  73.685  1.00  0.00    -0.212 A  
HETATM   29  C   UNL     1     -10.953   5.850  72.943  1.00  0.00    -0.303 C  
HETATM   30  C   UNL     1     -11.218   2.148  73.635  1.00  0.00    -0.306 A  
HETATM   31  C   UNL     1     -10.248   1.600  72.804  1.00  0.00    -0.200 A  
HETATM   32  C   UNL     1      -9.430   2.429  72.024  1.00  0.00    -0.184 A  
HETATM   33  C   UNL     1      -8.340   1.800  71.196  1.00  0.00    -0.067 C  
ENDBRANCH  23  26
ENDBRANCH  21  22
ENDBRANCH  18  21
ENDBRANCH  14  15
ENDBRANCH  11  14
ENDBRANCH  10  11
ENDBRANCH   9  10
ENDBRANCH   8   9
ENDBRANCH   2   3
TORSDOF 9
ENDMDL
MODEL      211
REMARK 921   NORMALIZED FREE ENERGY PREDICTED BY IDOCK:   -3.97 KCAL/MOL
REMARK 922        TOTAL FREE ENERGY PREDICTED BY IDOCK:   -7.15 KCAL/MOL
REMARK 923 INTER-LIGAND FREE ENERGY PREDICTED BY IDOCK:   -6.52 KCAL/MOL
REMARK 924 INTRA-LIGAND FREE ENERGY PREDICTED BY IDOCK:   -0.63 KCAL/MOL
REMARK 927      BINDING AFFINITY PREDICTED BY RF-SCORE:    0.00 PKD
ROOT
HETATM    1  C   UNL     1     -10.531   5.429  67.765  1.00  0.00    -0.140 C  
HETATM    2  O   UNL     1     -10.336   5.238  69.163  1.00  0.00    -0.220 OA 
ENDROOT
BRANCH   2   3
HETATM    3  C   UNL     1     -10.658   6.299  69.969  1.00  0.00    -0.248 A  
HETATM    4  C   UNL     1     -11.650   6.185  70.959  1.00  0.00    -0.260 A  
HETATM    5  C   UNL     1     -11.986   7.268  71.770  1.00  0.00    -0.342 A  
HETATM    6  C   UNL     1     -11.325   8.480  71.609  1.00  0.00    -0.362 A  
HETATM    7  C   UNL     1     -10.317   8.596  70.653  1.00  0.00    -0.241 A  
HETATM    8  C   UNL     1      -9.959   7.513  69.837  1.00  0.00    -0.189 A  
BRANCH   8   9
HETATM    9  O   UNL     1      -8.932   7.828  68.983  1.00  0.00    -0.144 OA 
BRANCH   9  10
HETATM   10  C   UNL     1      -7.596   7.523  69.383  1.00  0.00    -0.092 C  
BRANCH  10  11
HETATM   11  C   UNL     1      -6.622   7.834  68.231  1.00  0.00    -0.058 C  
HETATM   12  H   UNL     1      -6.150   7.085  66.443  1.00  0.00     0.000 HD 
HETATM   13  O   UNL     1      -6.751   6.893  67.154  1.00  0.00    -0.058 OA 
BRANCH  11  14
HETATM   14  C   UNL     1      -6.867   9.257  67.665  1.00  0.00    -0.076 C  
BRANCH  14  15
HETATM   15  N   UNL     1      -6.543  10.362  68.591  1.00  0.00    -0.052 NA 
HETATM   16  C   UNL     1      -5.904  11.490  67.897  1.00  0.00    -0.045 C  
HETATM   17  C   UNL     1      -6.856  12.173  66.903  1.00  0.00     0.007 C  
HETATM   18  N   UNL     1      -8.064  12.761  67.525  1.00  0.00    -0.168 NA 
HETATM   19  C   UNL     1      -8.692  11.780  68.436  1.00  0.00    -0.155 C  
HETATM   20  C   UNL     1      -7.746  10.879  69.281  1.00  0.00    -0.099 C  
BRANCH  18  21
HETATM   21  C   UNL     1      -7.733  14.043  68.198  1.00  0.00    -0.143 C  
BRANCH  21  22
HETATM   22  C   UNL     1      -8.373  15.225  67.430  1.00  0.00    -0.181 C  
HETATM   23  N   UNL     1      -8.180  16.426  68.091  1.00  0.00    -0.166 N  
HETATM   24  O   UNL     1      -8.927  15.072  66.346  1.00  0.00    -0.280 OA 
HETATM   25  H   UNL     1      -7.636  16.382  68.953  1.00  0.00     0.000 HD 
BRANCH  23  26
HETATM   26  C   UNL     1      -8.644  17.696  67.713  1.00  0.00    -0.228 A  
HETATM   27  C   UNL     1      -7.898  18.587  66.914  1.00  0.00    -0.245 A  
HETATM   28  C   UNL     1      -8.471  19.822  66.561  1.00  0.00    -0.380 A  
HETATM   29  C   UNL     1      -6.536  18.290  66.350  1.00  0.00    -0.237 C  
HETATM   30  C   UNL     1      -9.768  20.149  66.946  1.00  0.00    -0.582 A  
HETATM   31  C   UNL     1     -10.515  19.251  67.698  1.00  0.00    -0.557 A  
HETATM   32  C   UNL     1      -9.968  18.022  68.089  1.00  0.00    -0.356 A  
HETATM   33  C   UNL     1     -10.783  17.112  68.970  1.00  0.00    -0.219 C  
ENDBRANCH  23  26
ENDBRANCH  21  22
ENDBRANCH  18  21
ENDBRANCH  14  15
ENDBRANCH  11  14
ENDBRANCH  10  11
ENDBRANCH   9  10
ENDBRANCH   8   9
ENDBRANCH   2   3
TORSDOF 9
ENDMDL
MODEL      212
REMARK 921   NORMALIZED FREE ENERGY PREDICTED BY IDOCK:   -3.97 KCAL/MOL
REMARK 922        TOTAL FREE ENERGY PREDICTED BY IDOCK:   -7.15 KCAL/MOL
REMARK 923 INTER-LIGAND FREE ENERGY PREDICTED BY IDOCK:   -6.41 KCAL/MOL
REMARK 924 INTRA-LIGAND FREE ENERGY PREDICTED BY IDOCK:   -0.74 KCAL/MOL
REMARK 927      BINDING AFFINITY PREDICTED BY RF-SCORE:    0.00 PKD
ROOT
HETATM    1  C   UNL     1     -10.859  11.494  67.958  1.00  0.00    -0.213 C  
HETATM    2  O   UNL     1     -10.846  10.762  66.736  1.00  0.00    -0.249 OA 
ENDROOT
BRANCH   2   3
HETATM    3  C   UNL     1     -11.118  11.476  65.600  1.00  0.00    -0.199 A  
HETATM    4  C   UNL     1     -11.912  12.636  65.642  1.00  0.00    -0.507 A  
HETATM    5  C   UNL     1     -12.199  13.356  64.483  1.00  0.00    -0.450 A  
HETATM    6  C   UNL     1     -11.685  12.932  63.264  1.00  0.00    -0.408 A  
HETATM    7  C   UNL     1     -10.869  11.802  63.214  1.00  0.00    -0.400 A  
HETATM    8  C   UNL     1     -10.561  11.073  64.371  1.00  0.00    -0.325 A  
BRANCH   8   9
HETATM    9  O   UNL     1      -9.727  10.015  64.109  1.00  0.00    -0.282 OA 
BRANCH   9  10
HETATM   10  C   UNL     1      -8.494  10.271  63.438  1.00  0.00    -0.185 C  
BRANCH  10  11
HETATM   11  C   UNL     1      -7.323  10.151  64.431  1.00  0.00    -0.116 C  
HETATM   12  H   UNL     1      -6.800  10.898  66.206  1.00  0.00     0.000 HD 
HETATM   13  O   UNL     1      -7.522  10.972  65.593  1.00  0.00    -0.025 OA 
BRANCH  11  14
HETATM   14  C   UNL     1      -7.140   8.684  64.899  1.00  0.00    -0.080 C  
BRANCH  14  15
HETATM   15  N   UNL     1      -8.280   8.120  65.650  1.00  0.00    -0.125 NA 
HETATM   16  C   UNL     1      -8.452   6.683  65.391  1.00  0.00    -0.107 C  
HETATM   17  C   UNL     1      -7.274   5.854  65.927  1.00  0.00    -0.075 C  
HETATM   18  N   UNL     1      -7.084   5.943  67.392  1.00  0.00    -0.073 NA 
HETATM   19  C   UNL     1      -7.112   7.359  67.820  1.00  0.00    -0.085 C  
HETATM   20  C   UNL     1      -8.127   8.302  67.111  1.00  0.00    -0.108 C  
BRANCH  18  21
HETATM   21  C   UNL     1      -8.087   5.107  68.100  1.00  0.00    -0.094 C  
BRANCH  21  22
HETATM   22  C   UNL     1      -8.044   5.402  69.620  1.00  0.00    -0.099 C  
HETATM   23  N   UNL     1      -9.258   5.882  70.079  1.00  0.00    -0.146 N  
HETATM   24  O   UNL     1      -7.049   5.170  70.299  1.00  0.00    -0.051 OA 
HETATM   25  H   UNL     1     -10.005   5.952  69.388  1.00  0.00     0.000 HD 
BRANCH  23  26
HETATM   26  C   UNL     1      -9.581   6.286  71.385  1.00  0.00    -0.155 A  
HETATM   27  C   UNL     1      -9.521   7.627  71.818  1.00  0.00    -0.178 A  
HETATM   28  C   UNL     1      -9.903   7.929  73.137  1.00  0.00    -0.357 A  
HETATM   29  C   UNL     1      -9.130   8.788  70.946  1.00  0.00    -0.256 C  
HETATM   30  C   UNL     1     -10.379   6.941  73.993  1.00  0.00    -0.355 A  
HETATM   31  C   UNL     1     -10.475   5.627  73.550  1.00  0.00    -0.280 A  
HETATM   32  C   UNL     1     -10.081   5.285  72.249  1.00  0.00    -0.237 A  
HETATM   33  C   UNL     1     -10.128   3.837  71.834  1.00  0.00    -0.194 C  
ENDBRANCH  23  26
ENDBRANCH  21  22
ENDBRANCH  18  21
ENDBRANCH  14  15
ENDBRANCH  11  14
ENDBRANCH  10  11
ENDBRANCH   9  10
ENDBRANCH   8   9
ENDBRANCH   2   3
TORSDOF 9
ENDMDL
MODEL      213
REMARK 921   NORMALIZED FREE ENERGY PREDICTED BY IDOCK:   -3.96 KCAL/MOL
REMARK 922        TOTAL FREE ENERGY PREDICTED BY IDOCK:   -7.14 KCAL/MOL
REMARK 923 INTER-LIGAND FREE ENERGY PREDICTED BY IDOCK:   -6.00 KCAL/MOL
REMARK 924 INTRA-LIGAND FREE ENERGY PREDICTED BY IDOCK:   -1.13 KCAL/MOL
REMARK 927      BINDING AFFINITY PREDICTED BY RF-SCORE:    0.00 PKD
ROOT
HETATM    1  C   UNL     1     -11.139  17.377  65.110  1.00  0.00     0.354 C  
HETATM    2  O   UNL     1     -10.466  16.196  65.539  1.00  0.00    -0.371 OA 
ENDROOT
BRANCH   2   3
HETATM    3  C   UNL     1     -11.147  15.019  65.375  1.00  0.00    -0.374 A  
HETATM    4  C   UNL     1     -11.400  14.497  64.093  1.00  0.00     0.009 A  
HETATM    5  C   UNL     1     -12.104  13.306  63.926  1.00  0.00    -0.531 A  
HETATM    6  C   UNL     1     -12.557  12.611  65.041  1.00  0.00    -0.504 A  
HETATM    7  C   UNL     1     -12.284  13.100  66.317  1.00  0.00    -0.423 A  
HETATM    8  C   UNL     1     -11.568  14.292  66.504  1.00  0.00    -0.378 A  
BRANCH   8   9
HETATM    9  O   UNL     1     -11.387  14.583  67.833  1.00  0.00    -0.281 OA 
BRANCH   9  10
HETATM   10  C   UNL     1     -10.609  13.687  68.626  1.00  0.00    -0.248 C  
BRANCH  10  11
HETATM   11  C   UNL     1      -9.136  13.738  68.177  1.00  0.00    -0.194 C  
HETATM   12  H   UNL     1      -7.422  14.546  68.800  1.00  0.00     0.000 HD 
HETATM   13  O   UNL     1      -8.330  14.515  69.076  1.00  0.00    -0.140 OA 
BRANCH  11  14
HETATM   14  C   UNL     1      -8.532  12.312  68.092  1.00  0.00    -0.176 C  
BRANCH  14  15
HETATM   15  N   UNL     1      -9.271  11.371  67.225  1.00  0.00    -0.163 NA 
HETATM   16  C   UNL     1      -8.413  10.803  66.176  1.00  0.00    -0.167 C  
HETATM   17  C   UNL     1      -7.308   9.905  66.755  1.00  0.00    -0.095 C  
HETATM   18  N   UNL     1      -7.809   8.726  67.498  1.00  0.00    -0.101 NA 
HETATM   19  C   UNL     1      -8.859   9.141  68.454  1.00  0.00    -0.129 C  
HETATM   20  C   UNL     1      -9.852  10.247  67.993  1.00  0.00    -0.150 C  
BRANCH  18  21
HETATM   21  C   UNL     1      -8.270   7.674  66.557  1.00  0.00    -0.125 C  
BRANCH  21  22
HETATM   22  C   UNL     1      -7.963   6.272  67.139  1.00  0.00    -0.109 C  
HETATM   23  N   UNL     1      -9.124   5.561  67.390  1.00  0.00    -0.111 N  
HETATM   24  O   UNL     1      -6.815   5.868  67.291  1.00  0.00    -0.060 OA 
HETATM   25  H   UNL     1      -9.998   6.024  67.142  1.00  0.00     0.000 HD 
BRANCH  23  26
HETATM   26  C   UNL     1      -9.238   4.276  67.946  1.00  0.00    -0.142 A  
HETATM   27  C   UNL     1      -9.188   3.093  67.178  1.00  0.00    -0.209 A  
HETATM   28  C   UNL     1      -9.274   1.855  67.838  1.00  0.00    -0.216 A  
HETATM   29  C   UNL     1      -8.985   3.052  65.689  1.00  0.00    -0.146 C  
HETATM   30  C   UNL     1      -9.359   1.783  69.225  1.00  0.00    -0.173 A  
HETATM   31  C   UNL     1      -9.367   2.949  69.981  1.00  0.00    -0.212 A  
HETATM   32  C   UNL     1      -9.307   4.202  69.356  1.00  0.00    -0.238 A  
HETATM   33  C   UNL     1      -9.398   5.442  70.206  1.00  0.00    -0.198 C  
ENDBRANCH  23  26
ENDBRANCH  21  22
ENDBRANCH  18  21
ENDBRANCH  14  15
ENDBRANCH  11  14
ENDBRANCH  10  11
ENDBRANCH   9  10
ENDBRANCH   8   9
ENDBRANCH   2   3
TORSDOF 9
ENDMDL
MODEL      214
REMARK 921   NORMALIZED FREE ENERGY PREDICTED BY IDOCK:   -3.92 KCAL/MOL
REMARK 922        TOTAL FREE ENERGY PREDICTED BY IDOCK:   -7.08 KCAL/MOL
REMARK 923 INTER-LIGAND FREE ENERGY PREDICTED BY IDOCK:   -6.53 KCAL/MOL
REMARK 924 INTRA-LIGAND FREE ENERGY PREDICTED BY IDOCK:   -0.55 KCAL/MOL
REMARK 927      BINDING AFFINITY PREDICTED BY RF-SCORE:    0.00 PKD
ROOT
HETATM    1  C   UNL     1      -7.013  16.212  68.078  1.00  0.00    -0.128 C  
HETATM    2  O   UNL     1      -7.803  17.039  68.928  1.00  0.00    -0.249 OA 
ENDROOT
BRANCH   2   3
HETATM    3  C   UNL     1      -8.705  17.860  68.305  1.00  0.00    -0.275 A  
HETATM    4  C   UNL     1      -8.608  19.259  68.409  1.00  0.00    -0.389 A  
HETATM    5  C   UNL     1      -9.534  20.094  67.785  1.00  0.00    -0.479 A  
HETATM    6  C   UNL     1     -10.566  19.541  67.037  1.00  0.00    -0.607 A  
HETATM    7  C   UNL     1     -10.654  18.156  66.900  1.00  0.00    -0.326 A  
HETATM    8  C   UNL     1      -9.725  17.302  67.511  1.00  0.00    -0.264 A  
BRANCH   8   9
HETATM    9  O   UNL     1      -9.975  15.982  67.232  1.00  0.00    -0.235 OA 
BRANCH   9  10
HETATM   10  C   UNL     1     -11.330  15.533  67.223  1.00  0.00    -0.167 C  
BRANCH  10  11
HETATM   11  C   UNL     1     -11.560  14.592  66.026  1.00  0.00    -0.356 C  
HETATM   12  H   UNL     1     -10.870  14.356  64.169  1.00  0.00     0.000 HD 
HETATM   13  O   UNL     1     -10.728  14.937  64.907  1.00  0.00    -0.398 OA 
BRANCH  11  14
HETATM   14  C   UNL     1     -11.268  13.119  66.413  1.00  0.00    -0.300 C  
BRANCH  14  15
HETATM   15  N   UNL     1      -9.889  12.855  66.873  1.00  0.00    -0.230 NA 
HETATM   16  C   UNL     1      -9.866  12.147  68.161  1.00  0.00    -0.207 C  
HETATM   17  C   UNL     1     -10.444  10.727  68.051  1.00  0.00    -0.194 C  
HETATM   18  N   UNL     1      -9.701   9.838  67.129  1.00  0.00    -0.169 NA 
HETATM   19  C   UNL     1      -9.463  10.530  65.843  1.00  0.00    -0.190 C  
HETATM   20  C   UNL     1      -9.124  12.047  65.898  1.00  0.00    -0.042 C  
BRANCH  18  21
HETATM   21  C   UNL     1      -8.449   9.356  67.765  1.00  0.00    -0.116 C  
BRANCH  21  22
HETATM   22  C   UNL     1      -7.856   8.183  66.945  1.00  0.00    -0.096 C  
HETATM   23  N   UNL     1      -8.847   7.344  66.469  1.00  0.00    -0.142 N  
HETATM   24  O   UNL     1      -6.653   8.086  66.728  1.00  0.00    -0.054 OA 
HETATM   25  H   UNL     1      -9.807   7.610  66.688  1.00  0.00     0.000 HD 
BRANCH  23  26
HETATM   26  C   UNL     1      -8.686   6.167  65.719  1.00  0.00    -0.145 A  
HETATM   27  C   UNL     1      -8.237   6.156  64.382  1.00  0.00    -0.063 A  
HETATM   28  C   UNL     1      -8.073   4.920  63.733  1.00  0.00    -0.112 A  
HETATM   29  C   UNL     1      -7.855   7.383  63.601  1.00  0.00    -0.108 C  
HETATM   30  C   UNL     1      -8.300   3.721  64.402  1.00  0.00    -0.094 A  
HETATM   31  C   UNL     1      -8.703   3.734  65.732  1.00  0.00    -0.116 A  
HETATM   32  C   UNL     1      -8.900   4.948  66.404  1.00  0.00    -0.113 A  
HETATM   33  C   UNL     1      -9.413   4.919  67.820  1.00  0.00    -0.168 C  
ENDBRANCH  23  26
ENDBRANCH  21  22
ENDBRANCH  18  21
ENDBRANCH  14  15
ENDBRANCH  11  14
ENDBRANCH  10  11
ENDBRANCH   9  10
ENDBRANCH   8   9
ENDBRANCH   2   3
TORSDOF 9
ENDMDL
MODEL      215
REMARK 921   NORMALIZED FREE ENERGY PREDICTED BY IDOCK:   -3.90 KCAL/MOL
REMARK 922        TOTAL FREE ENERGY PREDICTED BY IDOCK:   -7.04 KCAL/MOL
REMARK 923 INTER-LIGAND FREE ENERGY PREDICTED BY IDOCK:   -6.17 KCAL/MOL
REMARK 924 INTRA-LIGAND FREE ENERGY PREDICTED BY IDOCK:   -0.87 KCAL/MOL
REMARK 927      BINDING AFFINITY PREDICTED BY RF-SCORE:    0.00 PKD
ROOT
HETATM    1  C   UNL     1      -9.972  18.861  67.461  1.00  0.00    -0.345 C  
HETATM    2  O   UNL     1     -10.329  17.607  68.035  1.00  0.00    -0.339 OA 
ENDROOT
BRANCH   2   3
HETATM    3  C   UNL     1      -9.355  16.644  68.039  1.00  0.00    -0.227 A  
HETATM    4  C   UNL     1      -8.054  16.927  68.492  1.00  0.00    -0.244 A  
HETATM    5  C   UNL     1      -7.059  15.951  68.483  1.00  0.00    -0.124 A  
HETATM    6  C   UNL     1      -7.355  14.670  68.030  1.00  0.00    -0.142 A  
HETATM    7  C   UNL     1      -8.649  14.369  67.609  1.00  0.00    -0.189 A  
HETATM    8  C   UNL     1      -9.665  15.336  67.622  1.00  0.00    -0.208 A  
BRANCH   8   9
HETATM    9  O   UNL     1     -10.866  14.830  67.193  1.00  0.00    -0.296 OA 
BRANCH   9  10
HETATM   10  C   UNL     1     -11.215  14.980  65.818  1.00  0.00    -0.318 C  
BRANCH  10  11
HETATM   11  C   UNL     1     -11.705  13.633  65.253  1.00  0.00    -0.334 C  
HETATM   12  H   UNL     1     -13.302  12.918  64.294  1.00  0.00     0.000 HD 
HETATM   13  O   UNL     1     -13.000  13.749  64.642  1.00  0.00    -0.656 OA 
BRANCH  11  14
HETATM   14  C   UNL     1     -10.716  13.082  64.194  1.00  0.00    -0.402 C  
BRANCH  14  15
HETATM   15  N   UNL     1     -10.880  11.651  63.869  1.00  0.00    -0.373 NA 
HETATM   16  C   UNL     1      -9.778  11.145  63.038  1.00  0.00    -0.359 C  
HETATM   17  C   UNL     1      -8.438  11.151  63.790  1.00  0.00     0.325 C  
HETATM   18  N   UNL     1      -8.413  10.292  64.995  1.00  0.00    -0.167 NA 
HETATM   19  C   UNL     1      -9.609  10.552  65.825  1.00  0.00    -0.210 C  
HETATM   20  C   UNL     1     -10.953  10.810  65.085  1.00  0.00     0.136 C  
BRANCH  18  21
HETATM   21  C   UNL     1      -8.274   8.863  64.614  1.00  0.00    -0.163 C  
BRANCH  21  22
HETATM   22  C   UNL     1      -8.143   7.987  65.885  1.00  0.00    -0.117 C  
HETATM   23  N   UNL     1      -8.530   6.680  65.643  1.00  0.00    -0.150 N  
HETATM   24  O   UNL     1      -7.696   8.431  66.937  1.00  0.00    -0.090 OA 
HETATM   25  H   UNL     1      -8.815   6.464  64.688  1.00  0.00     0.000 HD 
BRANCH  23  26
HETATM   26  C   UNL     1      -8.576   5.617  66.560  1.00  0.00    -0.119 A  
HETATM   27  C   UNL     1      -9.682   5.366  67.399  1.00  0.00    -0.153 A  
HETATM   28  C   UNL     1      -9.642   4.251  68.255  1.00  0.00    -0.197 A  
HETATM   29  C   UNL     1     -10.948   6.178  67.407  1.00  0.00    -0.409 C  
HETATM   30  C   UNL     1      -8.559   3.378  68.249  1.00  0.00    -0.117 A  
HETATM   31  C   UNL     1      -7.490   3.605  67.391  1.00  0.00    -0.067 A  
HETATM   32  C   UNL     1      -7.484   4.720  66.541  1.00  0.00    -0.086 A  
HETATM   33  C   UNL     1      -6.271   4.973  65.685  1.00  0.00    -0.034 C  
ENDBRANCH  23  26
ENDBRANCH  21  22
ENDBRANCH  18  21
ENDBRANCH  14  15
ENDBRANCH  11  14
ENDBRANCH  10  11
ENDBRANCH   9  10
ENDBRANCH   8   9
ENDBRANCH   2   3
TORSDOF 9
ENDMDL
MODEL      216
REMARK 921   NORMALIZED FREE ENERGY PREDICTED BY IDOCK:   -3.89 KCAL/MOL
REMARK 922        TOTAL FREE ENERGY PREDICTED BY IDOCK:   -7.04 KCAL/MOL
REMARK 923 INTER-LIGAND FREE ENERGY PREDICTED BY IDOCK:   -6.03 KCAL/MOL
REMARK 924 INTRA-LIGAND FREE ENERGY PREDICTED BY IDOCK:   -1.00 KCAL/MOL
REMARK 927      BINDING AFFINITY PREDICTED BY RF-SCORE:    0.00 PKD
ROOT
HETATM    1  C   UNL     1      -5.793   6.282  68.976  1.00  0.00    -0.020 C  
HETATM    2  O   UNL     1      -6.994   7.008  69.223  1.00  0.00    -0.069 OA 
ENDROOT
BRANCH   2   3
HETATM    3  C   UNL     1      -8.040   6.290  69.741  1.00  0.00    -0.120 A  
HETATM    4  C   UNL     1      -8.367   6.364  71.107  1.00  0.00    -0.123 A  
HETATM    5  C   UNL     1      -9.423   5.623  71.636  1.00  0.00    -0.173 A  
HETATM    6  C   UNL     1     -10.175   4.803  70.803  1.00  0.00    -0.246 A  
HETATM    7  C   UNL     1      -9.881   4.747  69.441  1.00  0.00    -0.282 A  
HETATM    8  C   UNL     1      -8.830   5.494  68.890  1.00  0.00    -0.107 A  
BRANCH   8   9
HETATM    9  O   UNL     1      -8.724   5.315  67.534  1.00  0.00    -0.108 OA 
BRANCH   9  10
HETATM   10  C   UNL     1      -9.410   6.223  66.672  1.00  0.00    -0.148 C  
BRANCH  10  11
HETATM   11  C   UNL     1      -8.439   7.317  66.187  1.00  0.00    -0.142 C  
HETATM   12  H   UNL     1      -7.797   8.069  64.455  1.00  0.00     0.000 HD 
HETATM   13  O   UNL     1      -8.395   7.394  64.754  1.00  0.00    -0.099 OA 
BRANCH  11  14
HETATM   14  C   UNL     1      -8.851   8.707  66.737  1.00  0.00    -0.134 C  
BRANCH  14  15
HETATM   15  N   UNL     1      -7.764   9.706  66.786  1.00  0.00    -0.098 NA 
HETATM   16  C   UNL     1      -8.014  10.835  65.879  1.00  0.00    -0.140 C  
HETATM   17  C   UNL     1      -9.232  11.666  66.312  1.00  0.00    -0.217 C  
HETATM   18  N   UNL     1      -9.099  12.291  67.647  1.00  0.00    -0.176 NA 
HETATM   19  C   UNL     1      -8.631  11.288  68.629  1.00  0.00    -0.139 C  
HETATM   20  C   UNL     1      -7.573  10.253  68.148  1.00  0.00    -0.087 C  
BRANCH  18  21
HETATM   21  C   UNL     1      -8.219  13.485  67.579  1.00  0.00    -0.183 C  
BRANCH  21  22
HETATM   22  C   UNL     1      -9.060  14.773  67.757  1.00  0.00    -0.186 C  
HETATM   23  N   UNL     1      -8.673  15.760  66.868  1.00  0.00    -0.221 N  
HETATM   24  O   UNL     1      -9.982  14.841  68.564  1.00  0.00    -0.215 OA 
HETATM   25  H   UNL     1      -7.929  15.512  66.216  1.00  0.00     0.000 HD 
BRANCH  23  26
HETATM   26  C   UNL     1      -9.184  17.064  66.759  1.00  0.00    -0.252 A  
HETATM   27  C   UNL     1     -10.182  17.429  65.831  1.00  0.00    -0.266 A  
HETATM   28  C   UNL     1     -10.652  18.754  65.830  1.00  0.00    -0.405 A  
HETATM   29  C   UNL     1     -10.837  16.480  64.866  1.00  0.00    -0.222 C  
HETATM   30  C   UNL     1     -10.185  19.684  66.754  1.00  0.00    -0.563 A  
HETATM   31  C   UNL     1      -9.232  19.310  67.694  1.00  0.00    -0.362 A  
HETATM   32  C   UNL     1      -8.723  18.004  67.709  1.00  0.00    -0.251 A  
HETATM   33  C   UNL     1      -7.635  17.661  68.692  1.00  0.00    -0.276 C  
ENDBRANCH  23  26
ENDBRANCH  21  22
ENDBRANCH  18  21
ENDBRANCH  14  15
ENDBRANCH  11  14
ENDBRANCH  10  11
ENDBRANCH   9  10
ENDBRANCH   8   9
ENDBRANCH   2   3
TORSDOF 9
ENDMDL
MODEL      217
REMARK 921   NORMALIZED FREE ENERGY PREDICTED BY IDOCK:   -3.88 KCAL/MOL
REMARK 922        TOTAL FREE ENERGY PREDICTED BY IDOCK:   -7.01 KCAL/MOL
REMARK 923 INTER-LIGAND FREE ENERGY PREDICTED BY IDOCK:   -6.27 KCAL/MOL
REMARK 924 INTRA-LIGAND FREE ENERGY PREDICTED BY IDOCK:   -0.74 KCAL/MOL
REMARK 927      BINDING AFFINITY PREDICTED BY RF-SCORE:    0.00 PKD
ROOT
HETATM    1  C   UNL     1      -9.564  20.680  67.150  1.00  0.00    -0.393 C  
HETATM    2  O   UNL     1      -8.404  20.272  67.870  1.00  0.00    -0.260 OA 
ENDROOT
BRANCH   2   3
HETATM    3  C   UNL     1      -7.780  19.139  67.420  1.00  0.00    -0.238 A  
HETATM    4  C   UNL     1      -6.799  19.199  66.413  1.00  0.00    -0.224 A  
HETATM    5  C   UNL     1      -6.174  18.044  65.947  1.00  0.00    -0.283 A  
HETATM    6  C   UNL     1      -6.513  16.809  66.489  1.00  0.00    -0.093 A  
HETATM    7  C   UNL     1      -7.460  16.740  67.509  1.00  0.00    -0.181 A  
HETATM    8  C   UNL     1      -8.091  17.894  67.999  1.00  0.00    -0.252 A  
BRANCH   8   9
HETATM    9  O   UNL     1      -8.968  17.611  69.015  1.00  0.00    -0.170 OA 
BRANCH   9  10
HETATM   10  C   UNL     1     -10.356  17.491  68.703  1.00  0.00    -0.369 C  
BRANCH  10  11
HETATM   11  C   UNL     1     -10.837  16.059  69.005  1.00  0.00    -0.283 C  
HETATM   12  H   UNL     1     -12.250  15.167  70.096  1.00  0.00     0.000 HD 
HETATM   13  O   UNL     1     -11.953  16.050  69.909  1.00  0.00    -0.298 OA 
BRANCH  11  14
HETATM   14  C   UNL     1     -11.260  15.329  67.704  1.00  0.00    -0.320 C  
BRANCH  14  15
HETATM   15  N   UNL     1     -12.070  14.111  67.906  1.00  0.00    -0.334 NA 
HETATM   16  C   UNL     1     -12.259  13.363  66.654  1.00  0.00    -0.334 C  
HETATM   17  C   UNL     1     -10.939  12.786  66.121  1.00  0.00    -0.283 C  
HETATM   18  N   UNL     1     -10.286  11.818  67.031  1.00  0.00    -0.212 NA 
HETATM   19  C   UNL     1     -10.230  12.373  68.401  1.00  0.00    -0.225 C  
HETATM   20  C   UNL     1     -11.457  13.194  68.893  1.00  0.00    -0.298 C  
BRANCH  18  21
HETATM   21  C   UNL     1     -10.970  10.501  66.970  1.00  0.00    -0.180 C  
BRANCH  21  22
HETATM   22  C   UNL     1      -9.944   9.361  67.187  1.00  0.00    -0.204 C  
HETATM   23  N   UNL     1      -8.643   9.817  67.060  1.00  0.00    -0.124 N  
HETATM   24  O   UNL     1     -10.290   8.223  67.486  1.00  0.00    -0.229 OA 
HETATM   25  H   UNL     1      -8.531  10.813  66.874  1.00  0.00     0.000 HD 
BRANCH  23  26
HETATM   26  C   UNL     1      -7.460   9.067  67.157  1.00  0.00    -0.087 A  
HETATM   27  C   UNL     1      -6.823   8.780  68.383  1.00  0.00    -0.065 A  
HETATM   28  C   UNL     1      -5.662   7.988  68.374  1.00  0.00    -0.033 A  
HETATM   29  C   UNL     1      -7.334   9.213  69.730  1.00  0.00    -0.064 C  
HETATM   30  C   UNL     1      -5.167   7.451  67.190  1.00  0.00    -0.018 A  
HETATM   31  C   UNL     1      -5.819   7.702  65.988  1.00  0.00    -0.037 A  
HETATM   32  C   UNL     1      -6.967   8.507  65.957  1.00  0.00    -0.068 A  
HETATM   33  C   UNL     1      -7.598   8.818  64.625  1.00  0.00    -0.109 C  
ENDBRANCH  23  26
ENDBRANCH  21  22
ENDBRANCH  18  21
ENDBRANCH  14  15
ENDBRANCH  11  14
ENDBRANCH  10  11
ENDBRANCH   9  10
ENDBRANCH   8   9
ENDBRANCH   2   3
TORSDOF 9
ENDMDL
MODEL      218
REMARK 921   NORMALIZED FREE ENERGY PREDICTED BY IDOCK:   -3.84 KCAL/MOL
REMARK 922        TOTAL FREE ENERGY PREDICTED BY IDOCK:   -6.96 KCAL/MOL
REMARK 923 INTER-LIGAND FREE ENERGY PREDICTED BY IDOCK:   -6.09 KCAL/MOL
REMARK 924 INTRA-LIGAND FREE ENERGY PREDICTED BY IDOCK:   -0.87 KCAL/MOL
REMARK 927      BINDING AFFINITY PREDICTED BY RF-SCORE:    0.00 PKD
ROOT
HETATM    1  C   UNL     1      -5.986   6.643  67.835  1.00  0.00    -0.024 C  
HETATM    2  O   UNL     1      -7.154   7.191  68.440  1.00  0.00    -0.079 OA 
ENDROOT
BRANCH   2   3
HETATM    3  C   UNL     1      -8.062   6.288  68.928  1.00  0.00    -0.110 A  
HETATM    4  C   UNL     1      -7.642   5.107  69.567  1.00  0.00    -0.065 A  
HETATM    5  C   UNL     1      -8.566   4.183  70.052  1.00  0.00    -0.100 A  
HETATM    6  C   UNL     1      -9.927   4.433  69.916  1.00  0.00    -0.233 A  
HETATM    7  C   UNL     1     -10.355   5.615  69.315  1.00  0.00    -0.340 A  
HETATM    8  C   UNL     1      -9.439   6.561  68.831  1.00  0.00    -0.129 A  
BRANCH   8   9
HETATM    9  O   UNL     1     -10.065   7.661  68.300  1.00  0.00    -0.174 OA 
BRANCH   9  10
HETATM   10  C   UNL     1      -9.994   8.895  69.014  1.00  0.00    -0.190 C  
BRANCH  10  11
HETATM   11  C   UNL     1      -9.568  10.027  68.061  1.00  0.00    -0.138 C  
HETATM   12  H   UNL     1     -10.439  11.398  66.902  1.00  0.00     0.000 HD 
HETATM   13  O   UNL     1     -10.702  10.700  67.490  1.00  0.00    -0.232 OA 
BRANCH  11  14
HETATM   14  C   UNL     1      -8.699  11.078  68.799  1.00  0.00    -0.145 C  
BRANCH  14  15
HETATM   15  N   UNL     1      -7.503  11.529  68.060  1.00  0.00    -0.093 NA 
HETATM   16  C   UNL     1      -7.815  12.618  67.123  1.00  0.00    -0.108 C  
HETATM   17  C   UNL     1      -8.246  13.901  67.850  1.00  0.00    -0.164 C  
HETATM   18  N   UNL     1      -7.212  14.471  68.743  1.00  0.00    -0.119 NA 
HETATM   19  C   UNL     1      -6.650  13.409  69.606  1.00  0.00    -0.008 C  
HETATM   20  C   UNL     1      -6.436  12.006  68.969  1.00  0.00    -0.091 C  
BRANCH  18  21
HETATM   21  C   UNL     1      -6.174  15.182  67.953  1.00  0.00    -0.156 C  
BRANCH  21  22
HETATM   22  C   UNL     1      -6.788  16.433  67.278  1.00  0.00    -0.187 C  
HETATM   23  N   UNL     1      -7.558  17.164  68.165  1.00  0.00    -0.200 N  
HETATM   24  O   UNL     1      -6.547  16.726  66.111  1.00  0.00    -0.130 OA 
HETATM   25  H   UNL     1      -7.599  16.812  69.122  1.00  0.00     0.000 HD 
BRANCH  23  26
HETATM   26  C   UNL     1      -8.291  18.333  67.903  1.00  0.00    -0.250 A  
HETATM   27  C   UNL     1      -7.693  19.599  67.730  1.00  0.00    -0.319 A  
HETATM   28  C   UNL     1      -8.515  20.700  67.432  1.00  0.00    -0.299 A  
HETATM   29  C   UNL     1      -6.212  19.856  67.780  1.00  0.00    -0.237 C  
HETATM   30  C   UNL     1      -9.888  20.549  67.262  1.00  0.00    -0.581 A  
HETATM   31  C   UNL     1     -10.468  19.293  67.392  1.00  0.00    -0.564 A  
HETATM   32  C   UNL     1      -9.683  18.176  67.712  1.00  0.00    -0.294 A  
HETATM   33  C   UNL     1     -10.362  16.848  67.922  1.00  0.00    -0.332 C  
ENDBRANCH  23  26
ENDBRANCH  21  22
ENDBRANCH  18  21
ENDBRANCH  14  15
ENDBRANCH  11  14
ENDBRANCH  10  11
ENDBRANCH   9  10
ENDBRANCH   8   9
ENDBRANCH   2   3
TORSDOF 9
ENDMDL
MODEL      219
REMARK 921   NORMALIZED FREE ENERGY PREDICTED BY IDOCK:   -3.82 KCAL/MOL
REMARK 922        TOTAL FREE ENERGY PREDICTED BY IDOCK:   -6.92 KCAL/MOL
REMARK 923 INTER-LIGAND FREE ENERGY PREDICTED BY IDOCK:   -6.02 KCAL/MOL
REMARK 924 INTRA-LIGAND FREE ENERGY PREDICTED BY IDOCK:   -0.90 KCAL/MOL
REMARK 927      BINDING AFFINITY PREDICTED BY RF-SCORE:    0.00 PKD
ROOT
HETATM    1  C   UNL     1      -7.957  14.161  67.940  1.00  0.00    -0.156 C  
HETATM    2  O   UNL     1      -7.598  15.043  66.880  1.00  0.00    -0.120 OA 
ENDROOT
BRANCH   2   3
HETATM    3  C   UNL     1      -8.324  16.200  66.785  1.00  0.00    -0.264 A  
HETATM    4  C   UNL     1      -7.870  17.395  67.372  1.00  0.00    -0.212 A  
HETATM    5  C   UNL     1      -8.616  18.569  67.285  1.00  0.00    -0.268 A  
HETATM    6  C   UNL     1      -9.825  18.569  66.600  1.00  0.00    -0.370 A  
HETATM    7  C   UNL     1     -10.270  17.400  65.986  1.00  0.00    -0.308 A  
HETATM    8  C   UNL     1      -9.527  16.212  66.053  1.00  0.00    -0.339 A  
BRANCH   8   9
HETATM    9  O   UNL     1     -10.127  15.188  65.364  1.00  0.00    -0.339 OA 
BRANCH   9  10
HETATM   10  C   UNL     1     -11.462  14.824  65.712  1.00  0.00    -0.322 C  
BRANCH  10  11
HETATM   11  C   UNL     1     -11.643  13.301  65.570  1.00  0.00    -0.326 C  
HETATM   12  H   UNL     1     -11.212  11.873  64.246  1.00  0.00     0.000 HD 
HETATM   13  O   UNL     1     -11.100  12.812  64.333  1.00  0.00    -0.312 OA 
BRANCH  11  14
HETATM   14  C   UNL     1     -10.951  12.549  66.736  1.00  0.00    -0.265 C  
BRANCH  14  15
HETATM   15  N   UNL     1     -11.434  11.172  66.965  1.00  0.00    -0.439 NA 
HETATM   16  C   UNL     1     -10.585  10.174  66.297  1.00  0.00    -0.051 C  
HETATM   17  C   UNL     1      -9.172  10.122  66.898  1.00  0.00    -0.146 C  
HETATM   18  N   UNL     1      -9.133   9.740  68.328  1.00  0.00    -0.123 NA 
HETATM   19  C   UNL     1     -10.119  10.535  69.090  1.00  0.00    -0.224 C  
HETATM   20  C   UNL     1     -11.484  10.833  68.405  1.00  0.00    -0.288 C  
BRANCH  18  21
HETATM   21  C   UNL     1      -9.329   8.276  68.482  1.00  0.00    -0.138 C  
BRANCH  21  22
HETATM   22  C   UNL     1      -8.311   7.709  69.502  1.00  0.00    -0.130 C  
HETATM   23  N   UNL     1      -8.945   7.162  70.603  1.00  0.00    -0.153 N  
HETATM   24  O   UNL     1      -7.103   7.720  69.288  1.00  0.00    -0.071 OA 
HETATM   25  H   UNL     1      -9.965   7.176  70.589  1.00  0.00     0.000 HD 
BRANCH  23  26
HETATM   26  C   UNL     1      -8.348   6.588  71.738  1.00  0.00    -0.116 A  
HETATM   27  C   UNL     1      -7.701   5.335  71.722  1.00  0.00    -0.109 A  
HETATM   28  C   UNL     1      -7.102   4.868  72.906  1.00  0.00    -0.079 A  
HETATM   29  C   UNL     1      -7.546   4.471  70.501  1.00  0.00    -0.053 C  
HETATM   30  C   UNL     1      -7.099   5.639  74.064  1.00  0.00    -0.082 A  
HETATM   31  C   UNL     1      -7.703   6.891  74.064  1.00  0.00    -0.117 A  
HETATM   32  C   UNL     1      -8.330   7.379  72.909  1.00  0.00    -0.140 A  
HETATM   33  C   UNL     1      -9.040   8.706  72.975  1.00  0.00     0.042 C  
ENDBRANCH  23  26
ENDBRANCH  21  22
ENDBRANCH  18  21
ENDBRANCH  14  15
ENDBRANCH  11  14
ENDBRANCH  10  11
ENDBRANCH   9  10
ENDBRANCH   8   9
ENDBRANCH   2   3
TORSDOF 9
ENDMDL
MODEL      220
REMARK 921   NORMALIZED FREE ENERGY PREDICTED BY IDOCK:   -3.82 KCAL/MOL
REMARK 922        TOTAL FREE ENERGY PREDICTED BY IDOCK:   -6.92 KCAL/MOL
REMARK 923 INTER-LIGAND FREE ENERGY PREDICTED BY IDOCK:   -6.20 KCAL/MOL
REMARK 924 INTRA-LIGAND FREE ENERGY PREDICTED BY IDOCK:   -0.72 KCAL/MOL
REMARK 927      BINDING AFFINITY PREDICTED BY RF-SCORE:    0.00 PKD
ROOT
HETATM    1  C   UNL     1     -12.496  14.755  70.274  1.00  0.00    -0.340 C  
HETATM    2  O   UNL     1     -11.446  14.111  69.557  1.00  0.00    -0.259 OA 
ENDROOT
BRANCH   2   3
HETATM    3  C   UNL     1     -11.602  14.032  68.198  1.00  0.00    -0.334 A  
HETATM    4  C   UNL     1     -12.011  12.837  67.581  1.00  0.00    -0.331 A  
HETATM    5  C   UNL     1     -12.156  12.753  66.197  1.00  0.00    -0.429 A  
HETATM    6  C   UNL     1     -11.906  13.870  65.409  1.00  0.00    -0.363 A  
HETATM    7  C   UNL     1     -11.531  15.070  66.012  1.00  0.00    -0.221 A  
HETATM    8  C   UNL     1     -11.391  15.175  67.404  1.00  0.00    -0.306 A  
BRANCH   8   9
HETATM    9  O   UNL     1     -11.041  16.443  67.793  1.00  0.00    -0.297 OA 
BRANCH   9  10
HETATM   10  C   UNL     1     -10.210  17.216  66.928  1.00  0.00    -0.315 C  
BRANCH  10  11
HETATM   11  C   UNL     1      -8.739  16.790  67.099  1.00  0.00    -0.200 C  
HETATM   12  H   UNL     1      -7.103  16.619  65.971  1.00  0.00     0.000 HD 
HETATM   13  O   UNL     1      -8.009  16.881  65.865  1.00  0.00    -0.427 OA 
BRANCH  11  14
HETATM   14  C   UNL     1      -8.024  17.675  68.153  1.00  0.00    -0.256 C  
BRANCH  14  15
HETATM   15  N   UNL     1      -7.731  17.005  69.436  1.00  0.00    -0.001 NA 
HETATM   16  C   UNL     1      -8.266  15.636  69.476  1.00  0.00    -0.175 C  
HETATM   17  C   UNL     1      -7.567  14.713  68.465  1.00  0.00    -0.120 C  
HETATM   18  N   UNL     1      -6.114  14.546  68.697  1.00  0.00    -0.080 NA 
HETATM   19  C   UNL     1      -5.480  15.868  68.896  1.00  0.00    -0.104 C  
HETATM   20  C   UNL     1      -6.277  16.931  69.705  1.00  0.00    -0.205 C  
BRANCH  18  21
HETATM   21  C   UNL     1      -5.869  13.614  69.826  1.00  0.00    -0.115 C  
BRANCH  21  22
HETATM   22  C   UNL     1      -5.932  12.149  69.326  1.00  0.00    -0.086 C  
HETATM   23  N   UNL     1      -6.888  11.419  70.009  1.00  0.00    -0.341 N  
HETATM   24  O   UNL     1      -5.235  11.749  68.399  1.00  0.00    -0.043 OA 
HETATM   25  H   UNL     1      -7.428  11.928  70.709  1.00  0.00     0.000 HD 
BRANCH  23  26
HETATM   26  C   UNL     1      -7.202  10.059  69.851  1.00  0.00    -0.145 A  
HETATM   27  C   UNL     1      -6.667   9.041  70.668  1.00  0.00    -0.064 A  
HETATM   28  C   UNL     1      -7.077   7.714  70.450  1.00  0.00    -0.058 A  
HETATM   29  C   UNL     1      -5.721   9.276  71.813  1.00  0.00    -0.071 C  
HETATM   30  C   UNL     1      -8.028   7.404  69.483  1.00  0.00    -0.127 A  
HETATM   31  C   UNL     1      -8.583   8.415  68.708  1.00  0.00    -0.135 A  
HETATM   32  C   UNL     1      -8.181   9.746  68.880  1.00  0.00    -0.117 A  
HETATM   33  C   UNL     1      -8.750  10.800  67.967  1.00  0.00    -0.132 C  
ENDBRANCH  23  26
ENDBRANCH  21  22
ENDBRANCH  18  21
ENDBRANCH  14  15
ENDBRANCH  11  14
ENDBRANCH  10  11
ENDBRANCH   9  10
ENDBRANCH   8   9
ENDBRANCH   2   3
TORSDOF 9
ENDMDL
MODEL      221
REMARK 921   NORMALIZED FREE ENERGY PREDICTED BY IDOCK:   -3.81 KCAL/MOL
REMARK 922        TOTAL FREE ENERGY PREDICTED BY IDOCK:   -6.91 KCAL/MOL
REMARK 923 INTER-LIGAND FREE ENERGY PREDICTED BY IDOCK:   -5.92 KCAL/MOL
REMARK 924 INTRA-LIGAND FREE ENERGY PREDICTED BY IDOCK:   -0.99 KCAL/MOL
REMARK 927      BINDING AFFINITY PREDICTED BY RF-SCORE:    0.00 PKD
ROOT
HETATM    1  C   UNL     1     -13.757  12.373  72.058  1.00  0.00    -0.107 C  
HETATM    2  O   UNL     1     -12.451  12.816  71.699  1.00  0.00    -0.143 OA 
ENDROOT
BRANCH   2   3
HETATM    3  C   UNL     1     -12.169  12.841  70.359  1.00  0.00    -0.293 A  
HETATM    4  C   UNL     1     -12.080  14.057  69.656  1.00  0.00    -0.408 A  
HETATM    5  C   UNL     1     -11.805  14.081  68.290  1.00  0.00    -0.406 A  
HETATM    6  C   UNL     1     -11.604  12.888  67.606  1.00  0.00    -0.406 A  
HETATM    7  C   UNL     1     -11.657  11.678  68.298  1.00  0.00    -0.378 A  
HETATM    8  C   UNL     1     -11.921  11.636  69.675  1.00  0.00    -0.324 A  
BRANCH   8   9
HETATM    9  O   UNL     1     -11.905  10.354  70.165  1.00  0.00    -0.269 OA 
BRANCH   9  10
HETATM   10  C   UNL     1     -10.722   9.889  70.814  1.00  0.00    -0.280 C  
BRANCH  10  11
HETATM   11  C   UNL     1     -10.970   8.491  71.412  1.00  0.00    -0.264 C  
HETATM   12  H   UNL     1     -11.979   7.686  72.933  1.00  0.00     0.000 HD 
HETATM   13  O   UNL     1     -11.826   8.547  72.564  1.00  0.00    -0.384 OA 
BRANCH  11  14
HETATM   14  C   UNL     1     -11.622   7.548  70.368  1.00  0.00    -0.149 C  
BRANCH  14  15
HETATM   15  N   UNL     1     -10.852   6.325  70.064  1.00  0.00    -0.290 NA 
HETATM   16  C   UNL     1     -10.932   5.965  68.640  1.00  0.00    -0.215 C  
HETATM   17  C   UNL     1     -10.246   7.007  67.742  1.00  0.00    -0.180 C  
HETATM   18  N   UNL     1      -8.797   7.172  67.999  1.00  0.00    -0.129 NA 
HETATM   19  C   UNL     1      -8.556   7.326  69.451  1.00  0.00    -0.134 C  
HETATM   20  C   UNL     1      -9.422   6.466  70.416  1.00  0.00    -0.162 C  
BRANCH  18  21
HETATM   21  C   UNL     1      -8.030   6.049  67.404  1.00  0.00    -0.102 C  
BRANCH  21  22
HETATM   22  C   UNL     1      -7.008   6.592  66.375  1.00  0.00    -0.062 C  
HETATM   23  N   UNL     1      -7.326   7.877  65.972  1.00  0.00    -0.073 N  
HETATM   24  O   UNL     1      -6.024   5.944  66.033  1.00  0.00    -0.026 OA 
HETATM   25  H   UNL     1      -8.147   8.295  66.409  1.00  0.00     0.000 HD 
BRANCH  23  26
HETATM   26  C   UNL     1      -6.651   8.672  65.032  1.00  0.00    -0.068 A  
HETATM   27  C   UNL     1      -6.691   8.430  63.642  1.00  0.00    -0.083 A  
HETATM   28  C   UNL     1      -6.009   9.310  62.783  1.00  0.00    -0.093 A  
HETATM   29  C   UNL     1      -7.469   7.320  62.992  1.00  0.00    -0.096 C  
HETATM   30  C   UNL     1      -5.345  10.428  63.277  1.00  0.00    -0.152 A  
HETATM   31  C   UNL     1      -5.342  10.686  64.643  1.00  0.00    -0.129 A  
HETATM   32  C   UNL     1      -5.990   9.817  65.532  1.00  0.00    -0.070 A  
HETATM   33  C   UNL     1      -5.896  10.090  67.010  1.00  0.00    -0.051 C  
ENDBRANCH  23  26
ENDBRANCH  21  22
ENDBRANCH  18  21
ENDBRANCH  14  15
ENDBRANCH  11  14
ENDBRANCH  10  11
ENDBRANCH   9  10
ENDBRANCH   8   9
ENDBRANCH   2   3
TORSDOF 9
ENDMDL
MODEL      222
REMARK 921   NORMALIZED FREE ENERGY PREDICTED BY IDOCK:   -3.79 KCAL/MOL
REMARK 922        TOTAL FREE ENERGY PREDICTED BY IDOCK:   -6.87 KCAL/MOL
REMARK 923 INTER-LIGAND FREE ENERGY PREDICTED BY IDOCK:   -5.71 KCAL/MOL
REMARK 924 INTRA-LIGAND FREE ENERGY PREDICTED BY IDOCK:   -1.17 KCAL/MOL
REMARK 927      BINDING AFFINITY PREDICTED BY RF-SCORE:    0.00 PKD
ROOT
HETATM    1  C   UNL     1     -10.290   4.542  65.717  1.00  0.00    -0.258 C  
HETATM    2  O   UNL     1      -8.977   4.341  65.201  1.00  0.00    -0.127 OA 
ENDROOT
BRANCH   2   3
HETATM    3  C   UNL     1      -7.943   4.595  66.063  1.00  0.00    -0.103 A  
HETATM    4  C   UNL     1      -8.041   4.279  67.430  1.00  0.00    -0.099 A  
HETATM    5  C   UNL     1      -6.994   4.549  68.309  1.00  0.00    -0.056 A  
HETATM    6  C   UNL     1      -5.826   5.131  67.831  1.00  0.00    -0.018 A  
HETATM    7  C   UNL     1      -5.704   5.418  66.472  1.00  0.00    -0.018 A  
HETATM    8  C   UNL     1      -6.744   5.143  65.572  1.00  0.00    -0.052 A  
BRANCH   8   9
HETATM    9  O   UNL     1      -6.413   5.478  64.283  1.00  0.00    -0.028 OA 
BRANCH   9  10
HETATM   10  C   UNL     1      -7.191   6.472  63.617  1.00  0.00    -0.064 C  
BRANCH  10  11
HETATM   11  C   UNL     1      -6.770   7.873  64.098  1.00  0.00    -0.061 C  
HETATM   12  H   UNL     1      -5.937   9.517  63.332  1.00  0.00     0.000 HD 
HETATM   13  O   UNL     1      -6.197   8.652  63.036  1.00  0.00    -0.086 OA 
BRANCH  11  14
HETATM   14  C   UNL     1      -7.983   8.651  64.672  1.00  0.00    -0.141 C  
BRANCH  14  15
HETATM   15  N   UNL     1      -7.906   8.952  66.116  1.00  0.00    -0.101 NA 
HETATM   16  C   UNL     1      -8.368  10.314  66.419  1.00  0.00    -0.132 C  
HETATM   17  C   UNL     1      -9.867  10.493  66.133  1.00  0.00    -0.217 C  
HETATM   18  N   UNL     1     -10.748   9.618  66.940  1.00  0.00    -0.167 NA 
HETATM   19  C   UNL     1     -10.254   8.225  66.896  1.00  0.00    -0.318 C  
HETATM   20  C   UNL     1      -8.713   8.010  66.923  1.00  0.00    -0.130 C  
BRANCH  18  21
HETATM   21  C   UNL     1     -10.876  10.141  68.324  1.00  0.00    -0.252 C  
BRANCH  21  22
HETATM   22  C   UNL     1     -11.409  11.595  68.294  1.00  0.00    -0.285 C  
HETATM   23  N   UNL     1     -10.608  12.446  69.035  1.00  0.00    -0.410 N  
HETATM   24  O   UNL     1     -12.393  11.913  67.634  1.00  0.00    -0.357 OA 
HETATM   25  H   UNL     1      -9.785  12.026  69.468  1.00  0.00     0.000 HD 
BRANCH  23  26
HETATM   26  C   UNL     1     -10.796  13.819  69.262  1.00  0.00    -0.103 A  
HETATM   27  C   UNL     1     -11.718  14.330  70.199  1.00  0.00    -0.357 A  
HETATM   28  C   UNL     1     -11.801  15.722  70.377  1.00  0.00    -0.391 A  
HETATM   29  C   UNL     1     -12.592  13.484  71.084  1.00  0.00    -0.438 C  
HETATM   30  C   UNL     1     -10.962  16.588  69.682  1.00  0.00    -0.287 A  
HETATM   31  C   UNL     1     -10.026  16.078  68.789  1.00  0.00    -0.224 A  
HETATM   32  C   UNL     1      -9.931  14.697  68.569  1.00  0.00    -0.235 A  
HETATM   33  C   UNL     1      -8.958  14.193  67.536  1.00  0.00    -0.198 C  
ENDBRANCH  23  26
ENDBRANCH  21  22
ENDBRANCH  18  21
ENDBRANCH  14  15
ENDBRANCH  11  14
ENDBRANCH  10  11
ENDBRANCH   9  10
ENDBRANCH   8   9
ENDBRANCH   2   3
TORSDOF 9
ENDMDL
MODEL      223
REMARK 921   NORMALIZED FREE ENERGY PREDICTED BY IDOCK:   -3.73 KCAL/MOL
REMARK 922        TOTAL FREE ENERGY PREDICTED BY IDOCK:   -6.78 KCAL/MOL
REMARK 923 INTER-LIGAND FREE ENERGY PREDICTED BY IDOCK:   -5.59 KCAL/MOL
REMARK 924 INTRA-LIGAND FREE ENERGY PREDICTED BY IDOCK:   -1.19 KCAL/MOL
REMARK 927      BINDING AFFINITY PREDICTED BY RF-SCORE:    0.00 PKD
ROOT
HETATM    1  C   UNL     1     -10.831  17.470  65.213  1.00  0.00     0.125 C  
HETATM    2  O   UNL     1     -10.278  16.267  65.738  1.00  0.00    -0.345 OA 
ENDROOT
BRANCH   2   3
HETATM    3  C   UNL     1     -11.036  15.136  65.585  1.00  0.00    -0.334 A  
HETATM    4  C   UNL     1     -11.123  14.481  64.343  1.00  0.00    -0.176 A  
HETATM    5  C   UNL     1     -11.905  13.339  64.184  1.00  0.00    -0.497 A  
HETATM    6  C   UNL     1     -12.604  12.825  65.270  1.00  0.00    -0.460 A  
HETATM    7  C   UNL     1     -12.500  13.446  66.514  1.00  0.00    -0.255 A  
HETATM    8  C   UNL     1     -11.709  14.590  66.694  1.00  0.00    -0.371 A  
BRANCH   8   9
HETATM    9  O   UNL     1     -11.723  15.028  67.995  1.00  0.00    -0.332 OA 
BRANCH   9  10
HETATM   10  C   UNL     1     -10.899  14.358  68.947  1.00  0.00    -0.256 C  
BRANCH  10  11
HETATM   11  C   UNL     1      -9.415  14.635  68.641  1.00  0.00    -0.211 C  
HETATM   12  H   UNL     1      -7.882  15.601  69.475  1.00  0.00     0.000 HD 
HETATM   13  O   UNL     1      -8.797  15.431  69.664  1.00  0.00    -0.256 OA 
BRANCH  11  14
HETATM   14  C   UNL     1      -8.619  13.310  68.508  1.00  0.00    -0.065 C  
BRANCH  14  15
HETATM   15  N   UNL     1      -8.190  12.974  67.135  1.00  0.00    -0.161 NA 
HETATM   16  C   UNL     1      -6.840  12.394  67.109  1.00  0.00    -0.075 C  
HETATM   17  C   UNL     1      -6.785  11.025  67.806  1.00  0.00    -0.064 C  
HETATM   18  N   UNL     1      -7.642   9.991  67.183  1.00  0.00    -0.092 NA 
HETATM   19  C   UNL     1      -8.998  10.532  66.950  1.00  0.00    -0.140 C  
HETATM   20  C   UNL     1      -9.109  12.013  66.485  1.00  0.00    -0.202 C  
BRANCH  18  21
HETATM   21  C   UNL     1      -7.010   9.466  65.946  1.00  0.00    -0.090 C  
BRANCH  21  22
HETATM   22  C   UNL     1      -7.025   7.917  65.960  1.00  0.00    -0.061 C  
HETATM   23  N   UNL     1      -8.310   7.420  65.828  1.00  0.00    -0.134 N  
HETATM   24  O   UNL     1      -5.993   7.257  66.028  1.00  0.00    -0.035 OA 
HETATM   25  H   UNL     1      -9.051   8.112  65.714  1.00  0.00     0.000 HD 
BRANCH  23  26
HETATM   26  C   UNL     1      -8.713   6.075  65.831  1.00  0.00    -0.154 A  
HETATM   27  C   UNL     1      -8.499   5.200  64.745  1.00  0.00    -0.150 A  
HETATM   28  C   UNL     1      -8.907   3.860  64.866  1.00  0.00    -0.123 A  
HETATM   29  C   UNL     1      -7.800   5.580  63.469  1.00  0.00    -0.096 C  
HETATM   30  C   UNL     1      -9.469   3.382  66.046  1.00  0.00    -0.121 A  
HETATM   31  C   UNL     1      -9.641   4.237  67.128  1.00  0.00    -0.224 A  
HETATM   32  C   UNL     1      -9.268   5.585  67.036  1.00  0.00    -0.116 A  
HETATM   33  C   UNL     1      -9.543   6.496  68.203  1.00  0.00    -0.123 C  
ENDBRANCH  23  26
ENDBRANCH  21  22
ENDBRANCH  18  21
ENDBRANCH  14  15
ENDBRANCH  11  14
ENDBRANCH  10  11
ENDBRANCH   9  10
ENDBRANCH   8   9
ENDBRANCH   2   3
TORSDOF 9
ENDMDL
MODEL      224
REMARK 921   NORMALIZED FREE ENERGY PREDICTED BY IDOCK:   -3.68 KCAL/MOL
REMARK 922        TOTAL FREE ENERGY PREDICTED BY IDOCK:   -6.72 KCAL/MOL
REMARK 923 INTER-LIGAND FREE ENERGY PREDICTED BY IDOCK:   -6.03 KCAL/MOL
REMARK 924 INTRA-LIGAND FREE ENERGY PREDICTED BY IDOCK:   -0.69 KCAL/MOL
REMARK 927      BINDING AFFINITY PREDICTED BY RF-SCORE:    0.00 PKD
ROOT
HETATM    1  C   UNL     1      -9.576   1.901  69.012  1.00  0.00    -0.024 C  
HETATM    2  O   UNL     1      -9.842   3.232  69.446  1.00  0.00    -0.014 OA 
ENDROOT
BRANCH   2   3
HETATM    3  C   UNL     1      -9.781   3.451  70.797  1.00  0.00    -0.120 A  
HETATM    4  C   UNL     1      -9.978   2.403  71.714  1.00  0.00    -0.197 A  
HETATM    5  C   UNL     1      -9.929   2.629  73.088  1.00  0.00    -0.184 A  
HETATM    6  C   UNL     1      -9.671   3.908  73.567  1.00  0.00    -0.140 A  
HETATM    7  C   UNL     1      -9.441   4.949  72.669  1.00  0.00    -0.159 A  
HETATM    8  C   UNL     1      -9.476   4.736  71.282  1.00  0.00    -0.156 A  
BRANCH   8   9
HETATM    9  O   UNL     1      -9.200   5.881  70.578  1.00  0.00    -0.149 OA 
BRANCH   9  10
HETATM   10  C   UNL     1     -10.291   6.695  70.149  1.00  0.00    -0.203 C  
BRANCH  10  11
HETATM   11  C   UNL     1     -10.307   8.012  70.948  1.00  0.00    -0.200 C  
HETATM   12  H   UNL     1      -9.005   9.184  71.902  1.00  0.00     0.000 HD 
HETATM   13  O   UNL     1      -8.995   8.372  71.409  1.00  0.00    -0.153 OA 
BRANCH  11  14
HETATM   14  C   UNL     1     -10.856   9.178  70.086  1.00  0.00    -0.240 C  
BRANCH  14  15
HETATM   15  N   UNL     1     -10.378   9.202  68.689  1.00  0.00    -0.205 NA 
HETATM   16  C   UNL     1     -11.153  10.135  67.858  1.00  0.00    -0.238 C  
HETATM   17  C   UNL     1     -10.953  11.596  68.291  1.00  0.00    -0.226 C  
HETATM   18  N   UNL     1      -9.557  12.078  68.180  1.00  0.00    -0.195 NA 
HETATM   19  C   UNL     1      -8.635  11.100  68.797  1.00  0.00    -0.132 C  
HETATM   20  C   UNL     1      -8.952   9.590  68.596  1.00  0.00    -0.132 C  
BRANCH  18  21
HETATM   21  C   UNL     1      -9.219  12.376  66.765  1.00  0.00    -0.212 C  
BRANCH  21  22
HETATM   22  C   UNL     1      -9.404  13.888  66.483  1.00  0.00    -0.247 C  
HETATM   23  N   UNL     1      -9.172  14.648  67.616  1.00  0.00    -0.189 N  
HETATM   24  O   UNL     1      -9.670  14.312  65.364  1.00  0.00    -0.252 OA 
HETATM   25  H   UNL     1      -8.893  14.135  68.453  1.00  0.00     0.000 HD 
BRANCH  23  26
HETATM   26  C   UNL     1      -9.276  16.042  67.748  1.00  0.00    -0.205 A  
HETATM   27  C   UNL     1     -10.427  16.689  68.246  1.00  0.00    -0.321 A  
HETATM   28  C   UNL     1     -10.414  18.089  68.375  1.00  0.00    -0.326 A  
HETATM   29  C   UNL     1     -11.667  15.979  68.717  1.00  0.00    -0.302 C  
HETATM   30  C   UNL     1      -9.277  18.829  68.065  1.00  0.00    -0.334 A  
HETATM   31  C   UNL     1      -8.132  18.185  67.613  1.00  0.00    -0.234 A  
HETATM   32  C   UNL     1      -8.116  16.793  67.450  1.00  0.00    -0.190 A  
HETATM   33  C   UNL     1      -6.881  16.143  66.884  1.00  0.00    -0.148 C  
ENDBRANCH  23  26
ENDBRANCH  21  22
ENDBRANCH  18  21
ENDBRANCH  14  15
ENDBRANCH  11  14
ENDBRANCH  10  11
ENDBRANCH   9  10
ENDBRANCH   8   9
ENDBRANCH   2   3
TORSDOF 9
ENDMDL
MODEL      225
REMARK 921   NORMALIZED FREE ENERGY PREDICTED BY IDOCK:   -3.67 KCAL/MOL
REMARK 922        TOTAL FREE ENERGY PREDICTED BY IDOCK:   -6.69 KCAL/MOL
REMARK 923 INTER-LIGAND FREE ENERGY PREDICTED BY IDOCK:   -5.92 KCAL/MOL
REMARK 924 INTRA-LIGAND FREE ENERGY PREDICTED BY IDOCK:   -0.77 KCAL/MOL
REMARK 927      BINDING AFFINITY PREDICTED BY RF-SCORE:    0.00 PKD
ROOT
HETATM    1  C   UNL     1     -11.523   6.446  69.224  1.00  0.00    -0.248 C  
HETATM    2  O   UNL     1     -10.484   5.483  69.073  1.00  0.00    -0.229 OA 
ENDROOT
BRANCH   2   3
HETATM    3  C   UNL     1      -9.852   5.461  67.858  1.00  0.00    -0.144 A  
HETATM    4  C   UNL     1     -10.487   4.944  66.715  1.00  0.00    -0.237 A  
HETATM    5  C   UNL     1      -9.838   4.910  65.483  1.00  0.00    -0.112 A  
HETATM    6  C   UNL     1      -8.545   5.406  65.371  1.00  0.00    -0.150 A  
HETATM    7  C   UNL     1      -7.916   5.952  66.489  1.00  0.00    -0.102 A  
HETATM    8  C   UNL     1      -8.559   6.004  67.735  1.00  0.00    -0.106 A  
BRANCH   8   9
HETATM    9  O   UNL     1      -7.779   6.599  68.694  1.00  0.00    -0.105 OA 
BRANCH   9  10
HETATM   10  C   UNL     1      -7.780   8.023  68.785  1.00  0.00    -0.108 C  
BRANCH  10  11
HETATM   11  C   UNL     1      -6.333   8.550  68.759  1.00  0.00    -0.049 C  
HETATM   12  H   UNL     1      -4.895   8.874  67.414  1.00  0.00     0.000 HD 
HETATM   13  O   UNL     1      -5.788   8.549  67.430  1.00  0.00    -0.042 OA 
BRANCH  11  14
HETATM   14  C   UNL     1      -6.258   9.996  69.314  1.00  0.00    -0.044 C  
BRANCH  14  15
HETATM   15  N   UNL     1      -5.735  11.002  68.368  1.00  0.00    -0.043 NA 
HETATM   16  C   UNL     1      -6.777  11.486  67.449  1.00  0.00    -0.101 C  
HETATM   17  C   UNL     1      -7.873  12.274  68.182  1.00  0.00    -0.148 C  
HETATM   18  N   UNL     1      -7.390  13.496  68.866  1.00  0.00    -0.082 NA 
HETATM   19  C   UNL     1      -6.187  13.183  69.668  1.00  0.00    -0.112 C  
HETATM   20  C   UNL     1      -5.165  12.177  69.064  1.00  0.00    -0.055 C  
BRANCH  18  21
HETATM   21  C   UNL     1      -7.162  14.587  67.885  1.00  0.00    -0.158 C  
BRANCH  21  22
HETATM   22  C   UNL     1      -8.033  15.815  68.247  1.00  0.00    -0.130 C  
HETATM   23  N   UNL     1      -8.146  16.691  67.181  1.00  0.00    -0.171 N  
HETATM   24  O   UNL     1      -8.578  15.926  69.340  1.00  0.00    -0.256 OA 
HETATM   25  H   UNL     1      -7.681  16.411  66.317  1.00  0.00     0.000 HD 
BRANCH  23  26
HETATM   26  C   UNL     1      -8.825  17.919  67.150  1.00  0.00    -0.247 A  
HETATM   27  C   UNL     1      -8.373  19.072  67.826  1.00  0.00    -0.318 A  
HETATM   28  C   UNL     1      -9.108  20.263  67.698  1.00  0.00    -0.423 A  
HETATM   29  C   UNL     1      -7.110  19.143  68.638  1.00  0.00    -0.353 C  
HETATM   30  C   UNL     1     -10.235  20.330  66.885  1.00  0.00    -0.504 A  
HETATM   31  C   UNL     1     -10.655  19.203  66.188  1.00  0.00    -0.524 A  
HETATM   32  C   UNL     1      -9.960  17.992  66.310  1.00  0.00    -0.338 A  
HETATM   33  C   UNL     1     -10.494  16.775  65.600  1.00  0.00    -0.284 C  
ENDBRANCH  23  26
ENDBRANCH  21  22
ENDBRANCH  18  21
ENDBRANCH  14  15
ENDBRANCH  11  14
ENDBRANCH  10  11
ENDBRANCH   9  10
ENDBRANCH   8   9
ENDBRANCH   2   3
TORSDOF 9
ENDMDL
MODEL      226
REMARK 921   NORMALIZED FREE ENERGY PREDICTED BY IDOCK:   -3.66 KCAL/MOL
REMARK 922        TOTAL FREE ENERGY PREDICTED BY IDOCK:   -6.68 KCAL/MOL
REMARK 923 INTER-LIGAND FREE ENERGY PREDICTED BY IDOCK:   -7.17 KCAL/MOL
REMARK 924 INTRA-LIGAND FREE ENERGY PREDICTED BY IDOCK:    0.49 KCAL/MOL
REMARK 927      BINDING AFFINITY PREDICTED BY RF-SCORE:    0.00 PKD
ROOT
HETATM    1  C   UNL     1      -9.483   3.457  68.087  1.00  0.00    -0.151 C  
HETATM    2  O   UNL     1      -9.181   4.813  67.769  1.00  0.00    -0.115 OA 
ENDROOT
BRANCH   2   3
HETATM    3  C   UNL     1      -8.447   5.503  68.698  1.00  0.00    -0.104 A  
HETATM    4  C   UNL     1      -8.127   4.932  69.943  1.00  0.00    -0.073 A  
HETATM    5  C   UNL     1      -7.392   5.639  70.893  1.00  0.00    -0.084 A  
HETATM    6  C   UNL     1      -6.956   6.928  70.607  1.00  0.00    -0.063 A  
HETATM    7  C   UNL     1      -7.239   7.493  69.364  1.00  0.00    -0.082 A  
HETATM    8  C   UNL     1      -7.968   6.791  68.393  1.00  0.00    -0.115 A  
BRANCH   8   9
HETATM    9  O   UNL     1      -8.115   7.513  67.235  1.00  0.00    -0.112 OA 
BRANCH   9  10
HETATM   10  C   UNL     1      -8.807   8.760  67.295  1.00  0.00    -0.132 C  
BRANCH  10  11
HETATM   11  C   UNL     1      -8.574   9.550  65.994  1.00  0.00    -0.133 C  
HETATM   12  H   UNL     1      -9.594  10.036  64.350  1.00  0.00     0.000 HD 
HETATM   13  O   UNL     1      -9.738   9.549  65.152  1.00  0.00    -0.277 OA 
BRANCH  11  14
HETATM   14  C   UNL     1      -8.195  11.022  66.298  1.00  0.00    -0.164 C  
BRANCH  14  15
HETATM   15  N   UNL     1      -8.817  11.590  67.511  1.00  0.00    -0.152 NA 
HETATM   16  C   UNL     1      -7.979  12.632  68.122  1.00  0.00    -0.158 C  
HETATM   17  C   UNL     1      -7.847  13.870  67.221  1.00  0.00    -0.114 C  
HETATM   18  N   UNL     1      -9.129  14.552  66.932  1.00  0.00    -0.244 NA 
HETATM   19  C   UNL     1     -10.143  13.562  66.509  1.00  0.00    -0.282 C  
HETATM   20  C   UNL     1     -10.144  12.183  67.230  1.00  0.00    -0.202 C  
BRANCH  18  21
HETATM   21  C   UNL     1      -9.564  15.360  68.100  1.00  0.00    -0.203 C  
BRANCH  21  22
HETATM   22  C   UNL     1     -10.920  14.834  68.631  1.00  0.00    -0.255 C  
HETATM   23  N   UNL     1     -10.790  14.271  69.888  1.00  0.00    -0.461 N  
HETATM   24  O   UNL     1     -11.963  14.972  68.000  1.00  0.00    -0.296 OA 
HETATM   25  H   UNL     1      -9.857  14.298  70.299  1.00  0.00     0.000 HD 
BRANCH  23  26
HETATM   26  C   UNL     1     -11.792  13.666  70.664  1.00  0.00    -0.154 A  
HETATM   27  C   UNL     1     -12.082  12.286  70.614  1.00  0.00    -0.330 A  
HETATM   28  C   UNL     1     -13.081  11.774  71.462  1.00  0.00    -0.389 A  
HETATM   29  C   UNL     1     -11.353  11.292  69.753  1.00  0.00    -0.348 C  
HETATM   30  C   UNL     1     -13.743  12.593  72.371  1.00  0.00    -0.377 A  
HETATM   31  C   UNL     1     -13.425  13.944  72.446  1.00  0.00    -0.661 A  
HETATM   32  C   UNL     1     -12.452  14.494  71.600  1.00  0.00    -0.422 A  
HETATM   33  C   UNL     1     -12.194  15.977  71.660  1.00  0.00    -0.514 C  
ENDBRANCH  23  26
ENDBRANCH  21  22
ENDBRANCH  18  21
ENDBRANCH  14  15
ENDBRANCH  11  14
ENDBRANCH  10  11
ENDBRANCH   9  10
ENDBRANCH   8   9
ENDBRANCH   2   3
TORSDOF 9
ENDMDL
MODEL      227
REMARK 921   NORMALIZED FREE ENERGY PREDICTED BY IDOCK:   -3.66 KCAL/MOL
REMARK 922        TOTAL FREE ENERGY PREDICTED BY IDOCK:   -6.67 KCAL/MOL
REMARK 923 INTER-LIGAND FREE ENERGY PREDICTED BY IDOCK:   -6.20 KCAL/MOL
REMARK 924 INTRA-LIGAND FREE ENERGY PREDICTED BY IDOCK:   -0.47 KCAL/MOL
REMARK 927      BINDING AFFINITY PREDICTED BY RF-SCORE:    0.00 PKD
ROOT
HETATM    1  C   UNL     1      -9.654   4.471  68.192  1.00  0.00    -0.146 C  
HETATM    2  O   UNL     1      -9.243   4.778  69.521  1.00  0.00    -0.104 OA 
ENDROOT
BRANCH   2   3
HETATM    3  C   UNL     1      -9.479   3.814  70.465  1.00  0.00    -0.184 A  
HETATM    4  C   UNL     1      -9.487   2.449  70.125  1.00  0.00    -0.144 A  
HETATM    5  C   UNL     1      -9.741   1.470  71.083  1.00  0.00    -0.193 A  
HETATM    6  C   UNL     1      -9.980   1.840  72.401  1.00  0.00    -0.204 A  
HETATM    7  C   UNL     1      -9.943   3.188  72.757  1.00  0.00    -0.213 A  
HETATM    8  C   UNL     1      -9.678   4.186  71.808  1.00  0.00    -0.175 A  
BRANCH   8   9
HETATM    9  O   UNL     1      -9.663   5.439  72.366  1.00  0.00    -0.153 OA 
BRANCH   9  10
HETATM   10  C   UNL     1     -10.876   6.191  72.383  1.00  0.00    -0.243 C  
BRANCH  10  11
HETATM   11  C   UNL     1     -10.687   7.469  73.222  1.00  0.00    -0.382 C  
HETATM   12  H   UNL     1      -9.243   8.349  74.281  1.00  0.00     0.000 HD 
HETATM   13  O   UNL     1      -9.359   7.561  73.763  1.00  0.00    -0.247 OA 
BRANCH  11  14
HETATM   14  C   UNL     1     -10.954   8.737  72.371  1.00  0.00    -0.159 C  
BRANCH  14  15
HETATM   15  N   UNL     1     -11.603   8.490  71.068  1.00  0.00    -0.278 NA 
HETATM   16  C   UNL     1     -12.360   9.661  70.601  1.00  0.00    -0.128 C  
HETATM   17  C   UNL     1     -11.444  10.852  70.281  1.00  0.00    -0.302 C  
HETATM   18  N   UNL     1     -10.464  10.594  69.201  1.00  0.00    -0.210 NA 
HETATM   19  C   UNL     1      -9.775   9.307  69.443  1.00  0.00    -0.172 C  
HETATM   20  C   UNL     1     -10.623   8.136  70.017  1.00  0.00    -0.239 C  
BRANCH  18  21
HETATM   21  C   UNL     1     -11.125  10.654  67.873  1.00  0.00    -0.308 C  
BRANCH  21  22
HETATM   22  C   UNL     1     -10.262   9.916  66.819  1.00  0.00    -0.236 C  
HETATM   23  N   UNL     1      -9.330  10.761  66.243  1.00  0.00    -0.175 N  
HETATM   24  O   UNL     1     -10.391   8.716  66.597  1.00  0.00    -0.289 OA 
HETATM   25  H   UNL     1      -9.313  11.719  66.594  1.00  0.00     0.000 HD 
BRANCH  23  26
HETATM   26  C   UNL     1      -8.404  10.455  65.232  1.00  0.00    -0.166 A  
HETATM   27  C   UNL     1      -7.144   9.873  65.487  1.00  0.00    -0.118 A  
HETATM   28  C   UNL     1      -6.307   9.570  64.399  1.00  0.00    -0.093 A  
HETATM   29  C   UNL     1      -6.643   9.489  66.852  1.00  0.00    -0.068 C  
HETATM   30  C   UNL     1      -6.721   9.791  63.089  1.00  0.00    -0.115 A  
HETATM   31  C   UNL     1      -7.979  10.326  62.840  1.00  0.00    -0.152 A  
HETATM   32  C   UNL     1      -8.831  10.662  63.901  1.00  0.00    -0.171 A  
HETATM   33  C   UNL     1     -10.154  11.313  63.590  1.00  0.00    -0.432 C  
ENDBRANCH  23  26
ENDBRANCH  21  22
ENDBRANCH  18  21
ENDBRANCH  14  15
ENDBRANCH  11  14
ENDBRANCH  10  11
ENDBRANCH   9  10
ENDBRANCH   8   9
ENDBRANCH   2   3
TORSDOF 9
ENDMDL
MODEL      228
REMARK 921   NORMALIZED FREE ENERGY PREDICTED BY IDOCK:   -3.63 KCAL/MOL
REMARK 922        TOTAL FREE ENERGY PREDICTED BY IDOCK:   -6.64 KCAL/MOL
REMARK 923 INTER-LIGAND FREE ENERGY PREDICTED BY IDOCK:   -5.95 KCAL/MOL
REMARK 924 INTRA-LIGAND FREE ENERGY PREDICTED BY IDOCK:   -0.68 KCAL/MOL
REMARK 927      BINDING AFFINITY PREDICTED BY RF-SCORE:    0.00 PKD
ROOT
HETATM    1  C   UNL     1      -8.346  15.773  66.796  1.00  0.00    -0.274 C  
HETATM    2  O   UNL     1      -9.695  15.993  67.199  1.00  0.00    -0.224 OA 
ENDROOT
BRANCH   2   3
HETATM    3  C   UNL     1     -10.663  15.481  66.375  1.00  0.00    -0.303 A  
HETATM    4  C   UNL     1     -10.780  15.905  65.039  1.00  0.00    -0.426 A  
HETATM    5  C   UNL     1     -11.773  15.394  64.206  1.00  0.00    -0.212 A  
HETATM    6  C   UNL     1     -12.659  14.441  64.693  1.00  0.00    -0.256 A  
HETATM    7  C   UNL     1     -12.533  13.989  66.006  1.00  0.00    -0.489 A  
HETATM    8  C   UNL     1     -11.533  14.484  66.855  1.00  0.00    -0.364 A  
BRANCH   8   9
HETATM    9  O   UNL     1     -11.567  13.893  68.093  1.00  0.00    -0.295 OA 
BRANCH   9  10
HETATM   10  C   UNL     1     -10.572  12.920  68.410  1.00  0.00    -0.253 C  
BRANCH  10  11
HETATM   11  C   UNL     1     -10.339  11.998  67.198  1.00  0.00    -0.213 C  
HETATM   12  H   UNL     1      -8.858  11.549  65.939  1.00  0.00     0.000 HD 
HETATM   13  O   UNL     1      -9.002  12.118  66.686  1.00  0.00    -0.202 OA 
BRANCH  11  14
HETATM   14  C   UNL     1     -10.584  10.514  67.574  1.00  0.00    -0.259 C  
BRANCH  14  15
HETATM   15  N   UNL     1      -9.431   9.826  68.188  1.00  0.00    -0.135 NA 
HETATM   16  C   UNL     1      -9.420   9.972  69.651  1.00  0.00    -0.223 C  
HETATM   17  C   UNL     1     -10.609   9.256  70.312  1.00  0.00    -0.235 C  
HETATM   18  N   UNL     1     -10.639   7.793  70.089  1.00  0.00    -0.232 NA 
HETATM   19  C   UNL     1     -10.437   7.497  68.654  1.00  0.00    -0.183 C  
HETATM   20  C   UNL     1      -9.417   8.379  67.877  1.00  0.00    -0.146 C  
BRANCH  18  21
HETATM   21  C   UNL     1      -9.651   7.111  70.963  1.00  0.00    -0.158 C  
BRANCH  21  22
HETATM   22  C   UNL     1      -9.468   5.642  70.510  1.00  0.00    -0.163 C  
HETATM   23  N   UNL     1      -8.153   5.374  70.172  1.00  0.00    -0.087 N  
HETATM   24  O   UNL     1     -10.396   4.839  70.517  1.00  0.00    -0.218 OA 
HETATM   25  H   UNL     1      -7.493   6.143  70.288  1.00  0.00     0.000 HD 
BRANCH  23  26
HETATM   26  C   UNL     1      -7.621   4.167  69.689  1.00  0.00    -0.053 A  
HETATM   27  C   UNL     1      -7.587   3.829  68.320  1.00  0.00    -0.061 A  
HETATM   28  C   UNL     1      -6.997   2.612  67.938  1.00  0.00    -0.048 A  
HETATM   29  C   UNL     1      -8.087   4.714  67.211  1.00  0.00    -0.102 C  
HETATM   30  C   UNL     1      -6.412   1.769  68.879  1.00  0.00    -0.029 A  
HETATM   31  C   UNL     1      -6.411   2.125  70.223  1.00  0.00    -0.028 A  
HETATM   32  C   UNL     1      -7.011   3.320  70.643  1.00  0.00    -0.033 A  
HETATM   33  C   UNL     1      -7.058   3.629  72.116  1.00  0.00    -0.046 C  
ENDBRANCH  23  26
ENDBRANCH  21  22
ENDBRANCH  18  21
ENDBRANCH  14  15
ENDBRANCH  11  14
ENDBRANCH  10  11
ENDBRANCH   9  10
ENDBRANCH   8   9
ENDBRANCH   2   3
TORSDOF 9
ENDMDL
MODEL      229
REMARK 921   NORMALIZED FREE ENERGY PREDICTED BY IDOCK:   -3.63 KCAL/MOL
REMARK 922        TOTAL FREE ENERGY PREDICTED BY IDOCK:   -6.63 KCAL/MOL
REMARK 923 INTER-LIGAND FREE ENERGY PREDICTED BY IDOCK:   -6.12 KCAL/MOL
REMARK 924 INTRA-LIGAND FREE ENERGY PREDICTED BY IDOCK:   -0.51 KCAL/MOL
REMARK 927      BINDING AFFINITY PREDICTED BY RF-SCORE:    0.00 PKD
ROOT
HETATM    1  C   UNL     1      -7.548   8.164  74.436  1.00  0.00    -0.219 C  
HETATM    2  O   UNL     1      -7.415   8.271  73.022  1.00  0.00    -0.129 OA 
ENDROOT
BRANCH   2   3
HETATM    3  C   UNL     1      -7.469   7.097  72.319  1.00  0.00    -0.084 A  
HETATM    4  C   UNL     1      -6.372   6.651  71.561  1.00  0.00    -0.042 A  
HETATM    5  C   UNL     1      -6.432   5.462  70.836  1.00  0.00    -0.035 A  
HETATM    6  C   UNL     1      -7.590   4.694  70.866  1.00  0.00    -0.068 A  
HETATM    7  C   UNL     1      -8.673   5.109  71.640  1.00  0.00    -0.140 A  
HETATM    8  C   UNL     1      -8.625   6.296  72.385  1.00  0.00    -0.121 A  
BRANCH   8   9
HETATM    9  O   UNL     1      -9.781   6.509  73.094  1.00  0.00    -0.152 OA 
BRANCH   9  10
HETATM   10  C   UNL     1     -10.632   7.584  72.701  1.00  0.00    -0.286 C  
BRANCH  10  11
HETATM   11  C   UNL     1     -10.655   7.698  71.165  1.00  0.00    -0.221 C  
HETATM   12  H   UNL     1     -11.840   7.156  69.654  1.00  0.00     0.000 HD 
HETATM   13  O   UNL     1     -11.826   7.086  70.601  1.00  0.00    -0.339 OA 
BRANCH  11  14
HETATM   14  C   UNL     1     -10.618   9.182  70.717  1.00  0.00    -0.260 C  
BRANCH  14  15
HETATM   15  N   UNL     1     -10.943   9.414  69.294  1.00  0.00    -0.170 NA 
HETATM   16  C   UNL     1     -11.749  10.629  69.106  1.00  0.00    -0.253 C  
HETATM   17  C   UNL     1     -10.968  11.902  69.468  1.00  0.00    -0.028 C  
HETATM   18  N   UNL     1      -9.760  12.131  68.643  1.00  0.00    -0.138 NA 
HETATM   19  C   UNL     1      -8.957  10.891  68.570  1.00  0.00    -0.157 C  
HETATM   20  C   UNL     1      -9.726   9.544  68.461  1.00  0.00    -0.151 C  
BRANCH  18  21
HETATM   21  C   UNL     1     -10.134  12.655  67.305  1.00  0.00    -0.214 C  
BRANCH  21  22
HETATM   22  C   UNL     1      -9.632  14.112  67.148  1.00  0.00    -0.244 C  
HETATM   23  N   UNL     1     -10.629  15.027  67.434  1.00  0.00    -0.266 N  
HETATM   24  O   UNL     1      -8.469  14.370  66.856  1.00  0.00    -0.202 OA 
HETATM   25  H   UNL     1     -11.526  14.640  67.727  1.00  0.00     0.000 HD 
BRANCH  23  26
HETATM   26  C   UNL     1     -10.551  16.428  67.367  1.00  0.00    -0.306 A  
HETATM   27  C   UNL     1     -10.712  17.156  66.169  1.00  0.00    -0.094 A  
HETATM   28  C   UNL     1     -10.654  18.560  66.218  1.00  0.00    -0.370 A  
HETATM   29  C   UNL     1     -11.007  16.539  64.830  1.00  0.00    -0.192 C  
HETATM   30  C   UNL     1     -10.489  19.232  67.425  1.00  0.00    -0.564 A  
HETATM   31  C   UNL     1     -10.371  18.513  68.609  1.00  0.00    -0.271 A  
HETATM   32  C   UNL     1     -10.401  17.111  68.595  1.00  0.00    -0.359 A  
HETATM   33  C   UNL     1     -10.192  16.369  69.889  1.00  0.00    -0.045 C  
ENDBRANCH  23  26
ENDBRANCH  21  22
ENDBRANCH  18  21
ENDBRANCH  14  15
ENDBRANCH  11  14
ENDBRANCH  10  11
ENDBRANCH   9  10
ENDBRANCH   8   9
ENDBRANCH   2   3
TORSDOF 9
ENDMDL
MODEL      230
REMARK 921   NORMALIZED FREE ENERGY PREDICTED BY IDOCK:   -3.62 KCAL/MOL
REMARK 922        TOTAL FREE ENERGY PREDICTED BY IDOCK:   -6.61 KCAL/MOL
REMARK 923 INTER-LIGAND FREE ENERGY PREDICTED BY IDOCK:   -6.37 KCAL/MOL
REMARK 924 INTRA-LIGAND FREE ENERGY PREDICTED BY IDOCK:   -0.24 KCAL/MOL
REMARK 927      BINDING AFFINITY PREDICTED BY RF-SCORE:    0.00 PKD
ROOT
HETATM    1  C   UNL     1     -10.624   5.204  67.501  1.00  0.00    -0.011 C  
HETATM    2  O   UNL     1      -9.407   4.976  68.207  1.00  0.00    -0.116 OA 
ENDROOT
BRANCH   2   3
HETATM    3  C   UNL     1      -9.420   3.956  69.121  1.00  0.00    -0.176 A  
HETATM    4  C   UNL     1      -9.057   2.647  68.755  1.00  0.00    -0.209 A  
HETATM    5  C   UNL     1      -9.083   1.607  69.683  1.00  0.00    -0.152 A  
HETATM    6  C   UNL     1      -9.461   1.862  70.995  1.00  0.00    -0.206 A  
HETATM    7  C   UNL     1      -9.791   3.162  71.378  1.00  0.00    -0.178 A  
HETATM    8  C   UNL     1      -9.760   4.223  70.460  1.00  0.00    -0.212 A  
BRANCH   8   9
HETATM    9  O   UNL     1     -10.094   5.419  71.043  1.00  0.00    -0.194 OA 
BRANCH   9  10
HETATM   10  C   UNL     1     -11.165   5.442  71.985  1.00  0.00    -0.089 C  
BRANCH  10  11
HETATM   11  C   UNL     1     -10.887   6.501  73.068  1.00  0.00    -0.261 C  
HETATM   12  H   UNL     1      -9.308   7.405  73.888  1.00  0.00     0.000 HD 
HETATM   13  O   UNL     1      -9.480   6.752  73.220  1.00  0.00    -0.140 OA 
BRANCH  11  14
HETATM   14  C   UNL     1     -11.586   7.842  72.727  1.00  0.00    -0.314 C  
BRANCH  14  15
HETATM   15  N   UNL     1     -12.133   7.931  71.357  1.00  0.00    -0.302 NA 
HETATM   16  C   UNL     1     -13.292   8.832  71.287  1.00  0.00    -0.156 C  
HETATM   17  C   UNL     1     -12.907  10.292  71.573  1.00  0.00    -0.452 C  
HETATM   18  N   UNL     1     -11.937  10.865  70.612  1.00  0.00    -0.347 NA 
HETATM   19  C   UNL     1     -10.803   9.933  70.423  1.00  0.00    -0.319 C  
HETATM   20  C   UNL     1     -11.125   8.411  70.386  1.00  0.00    -0.231 C  
BRANCH  18  21
HETATM   21  C   UNL     1     -12.611  11.218  69.337  1.00  0.00     0.181 C  
BRANCH  21  22
HETATM   22  C   UNL     1     -11.636  11.995  68.419  1.00  0.00    -0.311 C  
HETATM   23  N   UNL     1     -10.475  12.342  69.089  1.00  0.00    -0.432 N  
HETATM   24  O   UNL     1     -11.884  12.206  67.237  1.00  0.00    -0.530 OA 
HETATM   25  H   UNL     1     -10.403  12.028  70.057  1.00  0.00     0.000 HD 
BRANCH  23  26
HETATM   26  C   UNL     1      -9.386  13.075  68.591  1.00  0.00     0.014 A  
HETATM   27  C   UNL     1      -9.368  14.484  68.521  1.00  0.00    -0.203 A  
HETATM   28  C   UNL     1      -8.211  15.123  68.041  1.00  0.00    -0.144 A  
HETATM   29  C   UNL     1     -10.488  15.375  68.984  1.00  0.00    -0.249 C  
HETATM   30  C   UNL     1      -7.081  14.394  67.685  1.00  0.00    -0.202 A  
HETATM   31  C   UNL     1      -7.088  13.008  67.794  1.00  0.00    -0.139 A  
HETATM   32  C   UNL     1      -8.232  12.336  68.246  1.00  0.00    -0.167 A  
HETATM   33  C   UNL     1      -8.224  10.829  68.275  1.00  0.00    -0.124 C  
ENDBRANCH  23  26
ENDBRANCH  21  22
ENDBRANCH  18  21
ENDBRANCH  14  15
ENDBRANCH  11  14
ENDBRANCH  10  11
ENDBRANCH   9  10
ENDBRANCH   8   9
ENDBRANCH   2   3
TORSDOF 9
ENDMDL
MODEL      231
REMARK 921   NORMALIZED FREE ENERGY PREDICTED BY IDOCK:   -3.62 KCAL/MOL
REMARK 922        TOTAL FREE ENERGY PREDICTED BY IDOCK:   -6.61 KCAL/MOL
REMARK 923 INTER-LIGAND FREE ENERGY PREDICTED BY IDOCK:   -5.95 KCAL/MOL
REMARK 924 INTRA-LIGAND FREE ENERGY PREDICTED BY IDOCK:   -0.67 KCAL/MOL
REMARK 927      BINDING AFFINITY PREDICTED BY RF-SCORE:    0.00 PKD
ROOT
HETATM    1  C   UNL     1      -9.028   4.230  65.223  1.00  0.00    -0.137 C  
HETATM    2  O   UNL     1      -7.610   4.280  65.357  1.00  0.00    -0.083 OA 
ENDROOT
BRANCH   2   3
HETATM    3  C   UNL     1      -7.052   3.367  66.213  1.00  0.00    -0.063 A  
HETATM    4  C   UNL     1      -5.931   2.607  65.835  1.00  0.00    -0.023 A  
HETATM    5  C   UNL     1      -5.371   1.669  66.701  1.00  0.00    -0.012 A  
HETATM    6  C   UNL     1      -5.918   1.486  67.966  1.00  0.00    -0.023 A  
HETATM    7  C   UNL     1      -7.009   2.257  68.364  1.00  0.00    -0.043 A  
HETATM    8  C   UNL     1      -7.578   3.213  67.509  1.00  0.00    -0.065 A  
BRANCH   8   9
HETATM    9  O   UNL     1      -8.622   3.878  68.101  1.00  0.00    -0.091 OA 
BRANCH   9  10
HETATM   10  C   UNL     1      -9.180   3.340  69.299  1.00  0.00    -0.149 C  
BRANCH  10  11
HETATM   11  C   UNL     1      -9.901   4.452  70.084  1.00  0.00    -0.217 C  
HETATM   12  H   UNL     1      -9.880   5.223  71.924  1.00  0.00     0.000 HD 
HETATM   13  O   UNL     1      -9.435   4.538  71.440  1.00  0.00    -0.139 OA 
BRANCH  11  14
HETATM   14  C   UNL     1      -9.693   5.833  69.410  1.00  0.00    -0.155 C  
BRANCH  14  15
HETATM   15  N   UNL     1     -10.935   6.561  69.080  1.00  0.00    -0.304 NA 
HETATM   16  C   UNL     1     -10.985   7.882  69.724  1.00  0.00    -0.148 C  
HETATM   17  C   UNL     1      -9.904   8.830  69.183  1.00  0.00    -0.181 C  
HETATM   18  N   UNL     1     -10.020   9.122  67.736  1.00  0.00    -0.178 NA 
HETATM   19  C   UNL     1     -10.200   7.864  66.980  1.00  0.00    -0.312 C  
HETATM   20  C   UNL     1     -11.091   6.762  67.622  1.00  0.00    -0.230 C  
BRANCH  18  21
HETATM   21  C   UNL     1     -11.107  10.104  67.488  1.00  0.00    -0.181 C  
BRANCH  21  22
HETATM   22  C   UNL     1     -10.545  11.337  66.738  1.00  0.00    -0.260 C  
HETATM   23  N   UNL     1     -11.437  12.395  66.759  1.00  0.00    -0.341 N  
HETATM   24  O   UNL     1      -9.420  11.343  66.248  1.00  0.00    -0.196 OA 
HETATM   25  H   UNL     1     -12.306  12.241  67.271  1.00  0.00     0.000 HD 
BRANCH  23  26
HETATM   26  C   UNL     1     -11.286  13.655  66.158  1.00  0.00    -0.302 A  
HETATM   27  C   UNL     1     -11.755  13.956  64.862  1.00  0.00    -0.378 A  
HETATM   28  C   UNL     1     -11.586  15.262  64.368  1.00  0.00    -0.265 A  
HETATM   29  C   UNL     1     -12.489  12.989  63.975  1.00  0.00    -0.369 C  
HETATM   30  C   UNL     1     -11.013  16.259  65.151  1.00  0.00    -0.285 A  
HETATM   31  C   UNL     1     -10.588  15.969  66.442  1.00  0.00    -0.284 A  
HETATM   32  C   UNL     1     -10.719  14.672  66.960  1.00  0.00    -0.290 A  
HETATM   33  C   UNL     1     -10.175  14.381  68.334  1.00  0.00    -0.243 C  
ENDBRANCH  23  26
ENDBRANCH  21  22
ENDBRANCH  18  21
ENDBRANCH  14  15
ENDBRANCH  11  14
ENDBRANCH  10  11
ENDBRANCH   9  10
ENDBRANCH   8   9
ENDBRANCH   2   3
TORSDOF 9
ENDMDL
MODEL      232
REMARK 921   NORMALIZED FREE ENERGY PREDICTED BY IDOCK:   -3.61 KCAL/MOL
REMARK 922        TOTAL FREE ENERGY PREDICTED BY IDOCK:   -6.60 KCAL/MOL
REMARK 923 INTER-LIGAND FREE ENERGY PREDICTED BY IDOCK:   -5.78 KCAL/MOL
REMARK 924 INTRA-LIGAND FREE ENERGY PREDICTED BY IDOCK:   -0.82 KCAL/MOL
REMARK 927      BINDING AFFINITY PREDICTED BY RF-SCORE:    0.00 PKD
ROOT
HETATM    1  C   UNL     1     -12.201  13.541  64.515  1.00  0.00    -0.398 C  
HETATM    2  O   UNL     1     -10.783  13.426  64.448  1.00  0.00    -0.396 OA 
ENDROOT
BRANCH   2   3
HETATM    3  C   UNL     1     -10.283  12.154  64.355  1.00  0.00    -0.306 A  
HETATM    4  C   UNL     1      -9.728  11.676  63.154  1.00  0.00    -0.385 A  
HETATM    5  C   UNL     1      -9.232  10.378  63.056  1.00  0.00    -0.312 A  
HETATM    6  C   UNL     1      -9.272   9.539  64.163  1.00  0.00    -0.142 A  
HETATM    7  C   UNL     1      -9.789  10.011  65.369  1.00  0.00    -0.384 A  
HETATM    8  C   UNL     1     -10.283  11.319  65.488  1.00  0.00    -0.260 A  
BRANCH   8   9
HETATM    9  O   UNL     1     -10.722  11.591  66.759  1.00  0.00    -0.245 OA 
BRANCH   9  10
HETATM   10  C   UNL     1      -9.836  12.258  67.657  1.00  0.00    -0.196 C  
BRANCH  10  11
HETATM   11  C   UNL     1      -9.712  11.451  68.963  1.00  0.00    -0.012 C  
HETATM   12  H   UNL     1     -10.820  10.188  70.039  1.00  0.00     0.000 HD 
HETATM   13  O   UNL     1     -10.897  10.685  69.233  1.00  0.00    -0.208 OA 
BRANCH  11  14
HETATM   14  C   UNL     1      -8.507  10.476  68.902  1.00  0.00    -0.152 C  
BRANCH  14  15
HETATM   15  N   UNL     1      -8.024   9.997  70.213  1.00  0.00    -0.184 NA 
HETATM   16  C   UNL     1      -8.759   8.807  70.668  1.00  0.00    -0.180 C  
HETATM   17  C   UNL     1      -8.502   7.590  69.766  1.00  0.00    -0.135 C  
HETATM   18  N   UNL     1      -7.087   7.153  69.722  1.00  0.00    -0.071 NA 
HETATM   19  C   UNL     1      -6.207   8.318  69.485  1.00  0.00    -0.033 C  
HETATM   20  C   UNL     1      -6.584   9.656  70.183  1.00  0.00    -0.081 C  
BRANCH  18  21
HETATM   21  C   UNL     1      -6.734   6.405  70.955  1.00  0.00    -0.055 C  
BRANCH  21  22
HETATM   22  C   UNL     1      -7.737   5.246  71.177  1.00  0.00    -0.101 C  
HETATM   23  N   UNL     1      -8.263   5.267  72.456  1.00  0.00    -0.113 N  
HETATM   24  O   UNL     1      -8.035   4.464  70.280  1.00  0.00    -0.061 OA 
HETATM   25  H   UNL     1      -7.955   6.031  73.058  1.00  0.00     0.000 HD 
BRANCH  23  26
HETATM   26  C   UNL     1      -9.172   4.359  73.024  1.00  0.00    -0.118 A  
HETATM   27  C   UNL     1     -10.572   4.505  72.933  1.00  0.00    -0.275 A  
HETATM   28  C   UNL     1     -11.394   3.518  73.504  1.00  0.00    -0.222 A  
HETATM   29  C   UNL     1     -11.266   5.624  72.207  1.00  0.00    -0.317 C  
HETATM   30  C   UNL     1     -10.850   2.389  74.108  1.00  0.00    -0.227 A  
HETATM   31  C   UNL     1      -9.470   2.228  74.160  1.00  0.00    -0.097 A  
HETATM   32  C   UNL     1      -8.619   3.203  73.622  1.00  0.00    -0.074 A  
HETATM   33  C   UNL     1      -7.130   3.027  73.769  1.00  0.00    -0.037 C  
ENDBRANCH  23  26
ENDBRANCH  21  22
ENDBRANCH  18  21
ENDBRANCH  14  15
ENDBRANCH  11  14
ENDBRANCH  10  11
ENDBRANCH   9  10
ENDBRANCH   8   9
ENDBRANCH   2   3
TORSDOF 9
ENDMDL
MODEL      233
REMARK 921   NORMALIZED FREE ENERGY PREDICTED BY IDOCK:   -3.60 KCAL/MOL
REMARK 922        TOTAL FREE ENERGY PREDICTED BY IDOCK:   -6.59 KCAL/MOL
REMARK 923 INTER-LIGAND FREE ENERGY PREDICTED BY IDOCK:   -5.34 KCAL/MOL
REMARK 924 INTRA-LIGAND FREE ENERGY PREDICTED BY IDOCK:   -1.25 KCAL/MOL
REMARK 927      BINDING AFFINITY PREDICTED BY RF-SCORE:    0.00 PKD
ROOT
HETATM    1  C   UNL     1     -10.812  16.760  65.121  1.00  0.00    -0.138 C  
HETATM    2  O   UNL     1     -10.046  15.569  65.282  1.00  0.00    -0.348 OA 
ENDROOT
BRANCH   2   3
HETATM    3  C   UNL     1     -10.674  14.527  65.912  1.00  0.00    -0.305 A  
HETATM    4  C   UNL     1     -11.178  13.434  65.184  1.00  0.00    -0.321 A  
HETATM    5  C   UNL     1     -11.828  12.381  65.824  1.00  0.00    -0.467 A  
HETATM    6  C   UNL     1     -11.973  12.398  67.207  1.00  0.00    -0.246 A  
HETATM    7  C   UNL     1     -11.449  13.460  67.942  1.00  0.00    -0.350 A  
HETATM    8  C   UNL     1     -10.782  14.523  67.315  1.00  0.00    -0.287 A  
BRANCH   8   9
HETATM    9  O   UNL     1     -10.323  15.449  68.218  1.00  0.00    -0.232 OA 
BRANCH   9  10
HETATM   10  C   UNL     1      -9.301  15.058  69.134  1.00  0.00    -0.189 C  
BRANCH  10  11
HETATM   11  C   UNL     1      -8.015  14.705  68.362  1.00  0.00    -0.137 C  
HETATM   12  H   UNL     1      -6.177  15.444  68.124  1.00  0.00     0.000 HD 
HETATM   13  O   UNL     1      -6.970  15.662  68.600  1.00  0.00    -0.118 OA 
BRANCH  11  14
HETATM   14  C   UNL     1      -7.491  13.303  68.767  1.00  0.00    -0.053 C  
BRANCH  14  15
HETATM   15  N   UNL     1      -7.803  12.220  67.811  1.00  0.00    -0.139 NA 
HETATM   16  C   UNL     1      -6.585  11.600  67.269  1.00  0.00    -0.122 C  
HETATM   17  C   UNL     1      -5.786  10.854  68.349  1.00  0.00    -0.043 C  
HETATM   18  N   UNL     1      -6.518   9.734  68.983  1.00  0.00    -0.045 NA 
HETATM   19  C   UNL     1      -7.870  10.178  69.385  1.00  0.00    -0.150 C  
HETATM   20  C   UNL     1      -8.619  11.151  68.429  1.00  0.00    -0.152 C  
BRANCH  18  21
HETATM   21  C   UNL     1      -6.543   8.552  68.084  1.00  0.00    -0.061 C  
BRANCH  21  22
HETATM   22  C   UNL     1      -6.723   7.258  68.916  1.00  0.00    -0.060 C  
HETATM   23  N   UNL     1      -7.902   6.607  68.595  1.00  0.00    -0.112 N  
HETATM   24  O   UNL     1      -5.872   6.872  69.711  1.00  0.00    -0.022 OA 
HETATM   25  H   UNL     1      -8.465   7.033  67.859  1.00  0.00     0.000 HD 
BRANCH  23  26
HETATM   26  C   UNL     1      -8.412   5.429  69.163  1.00  0.00    -0.103 A  
HETATM   27  C   UNL     1      -9.026   5.385  70.433  1.00  0.00    -0.155 A  
HETATM   28  C   UNL     1      -9.539   4.160  70.894  1.00  0.00    -0.250 A  
HETATM   29  C   UNL     1      -9.234   6.580  71.321  1.00  0.00    -0.155 C  
HETATM   30  C   UNL     1      -9.491   3.016  70.103  1.00  0.00    -0.206 A  
HETATM   31  C   UNL     1      -8.921   3.072  68.836  1.00  0.00    -0.186 A  
HETATM   32  C   UNL     1      -8.379   4.271  68.353  1.00  0.00    -0.098 A  
HETATM   33  C   UNL     1      -7.701   4.270  67.008  1.00  0.00    -0.092 C  
ENDBRANCH  23  26
ENDBRANCH  21  22
ENDBRANCH  18  21
ENDBRANCH  14  15
ENDBRANCH  11  14
ENDBRANCH  10  11
ENDBRANCH   9  10
ENDBRANCH   8   9
ENDBRANCH   2   3
TORSDOF 9
ENDMDL
MODEL      234
REMARK 921   NORMALIZED FREE ENERGY PREDICTED BY IDOCK:   -3.59 KCAL/MOL
REMARK 922        TOTAL FREE ENERGY PREDICTED BY IDOCK:   -6.57 KCAL/MOL
REMARK 923 INTER-LIGAND FREE ENERGY PREDICTED BY IDOCK:   -6.26 KCAL/MOL
REMARK 924 INTRA-LIGAND FREE ENERGY PREDICTED BY IDOCK:   -0.32 KCAL/MOL
REMARK 927      BINDING AFFINITY PREDICTED BY RF-SCORE:    0.00 PKD
ROOT
HETATM    1  C   UNL     1     -10.450   7.391  67.019  1.00  0.00    -0.333 C  
HETATM    2  O   UNL     1      -9.242   7.614  66.296  1.00  0.00    -0.174 OA 
ENDROOT
BRANCH   2   3
HETATM    3  C   UNL     1      -8.528   8.731  66.643  1.00  0.00    -0.108 A  
HETATM    4  C   UNL     1      -7.716   8.749  67.790  1.00  0.00    -0.102 A  
HETATM    5  C   UNL     1      -7.000   9.890  68.149  1.00  0.00    -0.076 A  
HETATM    6  C   UNL     1      -7.077  11.029  67.357  1.00  0.00    -0.095 A  
HETATM    7  C   UNL     1      -7.853  11.013  66.199  1.00  0.00    -0.117 A  
HETATM    8  C   UNL     1      -8.571   9.870  65.817  1.00  0.00    -0.139 A  
BRANCH   8   9
HETATM    9  O   UNL     1      -9.248  10.055  64.638  1.00  0.00    -0.218 OA 
BRANCH   9  10
HETATM   10  C   UNL     1     -10.576  10.575  64.690  1.00  0.00     0.029 C  
BRANCH  10  11
HETATM   11  C   UNL     1     -10.709  11.767  63.723  1.00  0.00    -0.419 C  
HETATM   12  H   UNL     1     -12.164  12.869  62.918  1.00  0.00     0.000 HD 
HETATM   13  O   UNL     1     -12.082  12.134  63.514  1.00  0.00    -0.502 OA 
BRANCH  11  14
HETATM   14  C   UNL     1      -9.952  13.007  64.264  1.00  0.00    -0.058 C  
BRANCH  14  15
HETATM   15  N   UNL     1     -10.799  14.015  64.933  1.00  0.00    -0.387 NA 
HETATM   16  C   UNL     1     -11.530  13.447  66.075  1.00  0.00    -0.326 C  
HETATM   17  C   UNL     1     -10.586  13.018  67.209  1.00  0.00    -0.242 C  
HETATM   18  N   UNL     1      -9.794  14.125  67.793  1.00  0.00    -0.227 NA 
HETATM   19  C   UNL     1      -9.172  14.924  66.715  1.00  0.00    -0.259 C  
HETATM   20  C   UNL     1     -10.010  15.165  65.427  1.00  0.00    -0.330 C  
BRANCH  18  21
HETATM   21  C   UNL     1     -10.635  14.943  68.705  1.00  0.00    -0.251 C  
BRANCH  21  22
HETATM   22  C   UNL     1     -11.760  14.070  69.313  1.00  0.00    -0.326 C  
HETATM   23  N   UNL     1     -11.257  13.141  70.207  1.00  0.00    -0.248 N  
HETATM   24  O   UNL     1     -12.943  14.254  69.043  1.00  0.00     0.587 OA 
HETATM   25  H   UNL     1     -10.249  13.169  70.365  1.00  0.00     0.000 HD 
BRANCH  23  26
HETATM   26  C   UNL     1     -11.970  12.165  70.921  1.00  0.00     0.108 A  
HETATM   27  C   UNL     1     -12.927  12.476  71.911  1.00  0.00    -0.406 A  
HETATM   28  C   UNL     1     -13.614  11.423  72.541  1.00  0.00     0.569 A  
HETATM   29  C   UNL     1     -13.320  13.872  72.309  1.00  0.00    -0.599 C  
HETATM   30  C   UNL     1     -13.399  10.099  72.170  1.00  0.00    -0.431 A  
HETATM   31  C   UNL     1     -12.485   9.800  71.167  1.00  0.00    -0.443 A  
HETATM   32  C   UNL     1     -11.764  10.822  70.533  1.00  0.00    -0.449 A  
HETATM   33  C   UNL     1     -10.728  10.449  69.506  1.00  0.00    -0.284 C  
ENDBRANCH  23  26
ENDBRANCH  21  22
ENDBRANCH  18  21
ENDBRANCH  14  15
ENDBRANCH  11  14
ENDBRANCH  10  11
ENDBRANCH   9  10
ENDBRANCH   8   9
ENDBRANCH   2   3
TORSDOF 9
ENDMDL
MODEL      235
REMARK 921   NORMALIZED FREE ENERGY PREDICTED BY IDOCK:   -3.57 KCAL/MOL
REMARK 922        TOTAL FREE ENERGY PREDICTED BY IDOCK:   -6.54 KCAL/MOL
REMARK 923 INTER-LIGAND FREE ENERGY PREDICTED BY IDOCK:   -5.29 KCAL/MOL
REMARK 924 INTRA-LIGAND FREE ENERGY PREDICTED BY IDOCK:   -1.25 KCAL/MOL
REMARK 927      BINDING AFFINITY PREDICTED BY RF-SCORE:    0.00 PKD
ROOT
HETATM    1  C   UNL     1      -8.350   5.468  67.260  1.00  0.00    -0.104 C  
HETATM    2  O   UNL     1      -7.508   5.765  68.371  1.00  0.00    -0.078 OA 
ENDROOT
BRANCH   2   3
HETATM    3  C   UNL     1      -7.320   4.752  69.274  1.00  0.00    -0.053 A  
HETATM    4  C   UNL     1      -6.530   3.633  68.959  1.00  0.00    -0.033 A  
HETATM    5  C   UNL     1      -6.350   2.597  69.874  1.00  0.00    -0.028 A  
HETATM    6  C   UNL     1      -6.950   2.670  71.125  1.00  0.00    -0.032 A  
HETATM    7  C   UNL     1      -7.709   3.790  71.462  1.00  0.00    -0.060 A  
HETATM    8  C   UNL     1      -7.892   4.847  70.557  1.00  0.00    -0.066 A  
BRANCH   8   9
HETATM    9  O   UNL     1      -8.648   5.859  71.092  1.00  0.00    -0.126 OA 
BRANCH   9  10
HETATM   10  C   UNL     1     -10.069   5.775  70.987  1.00  0.00    -0.205 C  
BRANCH  10  11
HETATM   11  C   UNL     1     -10.664   7.183  70.799  1.00  0.00    -0.231 C  
HETATM   12  H   UNL     1     -10.886   8.855  71.865  1.00  0.00     0.000 HD 
HETATM   13  O   UNL     1     -10.519   7.987  71.981  1.00  0.00    -0.215 OA 
BRANCH  11  14
HETATM   14  C   UNL     1      -9.977   7.923  69.621  1.00  0.00    -0.191 C  
BRANCH  14  15
HETATM   15  N   UNL     1     -10.897   8.620  68.700  1.00  0.00    -0.039 NA 
HETATM   16  C   UNL     1     -10.943  10.066  68.959  1.00  0.00    -0.212 C  
HETATM   17  C   UNL     1      -9.602  10.751  68.651  1.00  0.00    -0.187 C  
HETATM   18  N   UNL     1      -9.174  10.644  67.237  1.00  0.00    -0.143 NA 
HETATM   19  C   UNL     1      -9.293   9.243  66.779  1.00  0.00    -0.156 C  
HETATM   20  C   UNL     1     -10.517   8.425  67.283  1.00  0.00    -0.303 C  
BRANCH  18  21
HETATM   21  C   UNL     1      -9.936  11.595  66.389  1.00  0.00    -0.206 C  
BRANCH  21  22
HETATM   22  C   UNL     1      -9.452  13.043  66.650  1.00  0.00    -0.256 C  
HETATM   23  N   UNL     1     -10.509  13.889  66.936  1.00  0.00    -0.274 N  
HETATM   24  O   UNL     1      -8.262  13.341  66.646  1.00  0.00     0.071 OA 
HETATM   25  H   UNL     1     -11.434  13.460  66.964  1.00  0.00     0.000 HD 
BRANCH  23  26
HETATM   26  C   UNL     1     -10.457  15.269  67.192  1.00  0.00    -0.280 A  
HETATM   27  C   UNL     1     -10.527  16.247  66.178  1.00  0.00    -0.330 A  
HETATM   28  C   UNL     1     -10.504  17.604  66.545  1.00  0.00    -0.283 A  
HETATM   29  C   UNL     1     -10.688  15.947  64.714  1.00  0.00    -0.255 C  
HETATM   30  C   UNL     1     -10.462  17.988  67.882  1.00  0.00    -0.408 A  
HETATM   31  C   UNL     1     -10.434  17.021  68.880  1.00  0.00    -0.347 A  
HETATM   32  C   UNL     1     -10.431  15.658  68.551  1.00  0.00    -0.236 A  
HETATM   33  C   UNL     1     -10.321  14.644  69.659  1.00  0.00    -0.025 C  
ENDBRANCH  23  26
ENDBRANCH  21  22
ENDBRANCH  18  21
ENDBRANCH  14  15
ENDBRANCH  11  14
ENDBRANCH  10  11
ENDBRANCH   9  10
ENDBRANCH   8   9
ENDBRANCH   2   3
TORSDOF 9
ENDMDL
MODEL      236
REMARK 921   NORMALIZED FREE ENERGY PREDICTED BY IDOCK:   -3.56 KCAL/MOL
REMARK 922        TOTAL FREE ENERGY PREDICTED BY IDOCK:   -6.53 KCAL/MOL
REMARK 923 INTER-LIGAND FREE ENERGY PREDICTED BY IDOCK:   -6.38 KCAL/MOL
REMARK 924 INTRA-LIGAND FREE ENERGY PREDICTED BY IDOCK:   -0.15 KCAL/MOL
REMARK 927      BINDING AFFINITY PREDICTED BY RF-SCORE:    0.00 PKD
ROOT
HETATM    1  C   UNL     1      -9.251   5.098  68.853  1.00  0.00    -0.118 C  
HETATM    2  O   UNL     1      -9.647   5.579  67.572  1.00  0.00    -0.115 OA 
ENDROOT
BRANCH   2   3
HETATM    3  C   UNL     1      -9.195   4.868  66.492  1.00  0.00    -0.135 A  
HETATM    4  C   UNL     1      -9.506   3.505  66.336  1.00  0.00    -0.164 A  
HETATM    5  C   UNL     1      -9.034   2.779  65.245  1.00  0.00    -0.137 A  
HETATM    6  C   UNL     1      -8.252   3.409  64.283  1.00  0.00    -0.089 A  
HETATM    7  C   UNL     1      -7.965   4.767  64.409  1.00  0.00    -0.100 A  
HETATM    8  C   UNL     1      -8.441   5.516  65.495  1.00  0.00    -0.144 A  
BRANCH   8   9
HETATM    9  O   UNL     1      -8.067   6.834  65.417  1.00  0.00    -0.118 OA 
BRANCH   9  10
HETATM   10  C   UNL     1      -6.729   7.140  65.026  1.00  0.00    -0.047 C  
BRANCH  10  11
HETATM   11  C   UNL     1      -6.722   8.386  64.121  1.00  0.00    -0.071 C  
HETATM   12  H   UNL     1      -7.305   8.887  62.279  1.00  0.00     0.000 HD 
HETATM   13  O   UNL     1      -7.309   8.118  62.837  1.00  0.00    -0.093 OA 
BRANCH  11  14
HETATM   14  C   UNL     1      -7.502   9.554  64.778  1.00  0.00    -0.112 C  
BRANCH  14  15
HETATM   15  N   UNL     1      -8.963   9.356  64.870  1.00  0.00    -0.213 NA 
HETATM   16  C   UNL     1      -9.449   9.495  66.251  1.00  0.00    -0.210 C  
HETATM   17  C   UNL     1      -9.286  10.928  66.780  1.00  0.00    -0.165 C  
HETATM   18  N   UNL     1     -10.044  11.947  66.019  1.00  0.00    -0.224 NA 
HETATM   19  C   UNL     1      -9.809  11.774  64.569  1.00  0.00    -0.202 C  
HETATM   20  C   UNL     1      -9.709  10.318  64.029  1.00  0.00    -0.278 C  
BRANCH  18  21
HETATM   21  C   UNL     1     -11.484  11.902  66.379  1.00  0.00    -0.304 C  
BRANCH  21  22
HETATM   22  C   UNL     1     -11.884  13.199  67.126  1.00  0.00    -0.369 C  
HETATM   23  N   UNL     1     -11.233  13.305  68.343  1.00  0.00    -0.263 N  
HETATM   24  O   UNL     1     -12.647  14.023  66.634  1.00  0.00    -0.358 OA 
HETATM   25  H   UNL     1     -10.577  12.558  68.569  1.00  0.00     0.000 HD 
BRANCH  23  26
HETATM   26  C   UNL     1     -11.370  14.322  69.301  1.00  0.00    -0.283 A  
HETATM   27  C   UNL     1     -12.071  14.154  70.514  1.00  0.00    -0.420 A  
HETATM   28  C   UNL     1     -12.116  15.225  71.424  1.00  0.00    -0.415 A  
HETATM   29  C   UNL     1     -12.734  12.875  70.945  1.00  0.00    -0.291 C  
HETATM   30  C   UNL     1     -11.446  16.417  71.166  1.00  0.00    -0.252 A  
HETATM   31  C   UNL     1     -10.723  16.565  69.988  1.00  0.00    -0.222 A  
HETATM   32  C   UNL     1     -10.675  15.527  69.047  1.00  0.00    -0.243 A  
HETATM   33  C   UNL     1      -9.945  15.757  67.750  1.00  0.00    -0.227 C  
ENDBRANCH  23  26
ENDBRANCH  21  22
ENDBRANCH  18  21
ENDBRANCH  14  15
ENDBRANCH  11  14
ENDBRANCH  10  11
ENDBRANCH   9  10
ENDBRANCH   8   9
ENDBRANCH   2   3
TORSDOF 9
ENDMDL
MODEL      237
REMARK 921   NORMALIZED FREE ENERGY PREDICTED BY IDOCK:   -3.55 KCAL/MOL
REMARK 922        TOTAL FREE ENERGY PREDICTED BY IDOCK:   -6.51 KCAL/MOL
REMARK 923 INTER-LIGAND FREE ENERGY PREDICTED BY IDOCK:   -5.39 KCAL/MOL
REMARK 924 INTRA-LIGAND FREE ENERGY PREDICTED BY IDOCK:   -1.11 KCAL/MOL
REMARK 927      BINDING AFFINITY PREDICTED BY RF-SCORE:    0.00 PKD
ROOT
HETATM    1  C   UNL     1     -12.393  14.435  69.206  1.00  0.00    -0.153 C  
HETATM    2  O   UNL     1     -11.678  13.705  68.213  1.00  0.00    -0.321 OA 
ENDROOT
BRANCH   2   3
HETATM    3  C   UNL     1     -11.504  14.333  67.008  1.00  0.00    -0.361 A  
HETATM    4  C   UNL     1     -12.432  14.173  65.963  1.00  0.00    -0.454 A  
HETATM    5  C   UNL     1     -12.248  14.802  64.734  1.00  0.00    -0.356 A  
HETATM    6  C   UNL     1     -11.136  15.612  64.533  1.00  0.00    -0.303 A  
HETATM    7  C   UNL     1     -10.227  15.805  65.572  1.00  0.00    -0.407 A  
HETATM    8  C   UNL     1     -10.402  15.188  66.820  1.00  0.00    -0.273 A  
BRANCH   8   9
HETATM    9  O   UNL     1      -9.412  15.527  67.707  1.00  0.00    -0.203 OA 
BRANCH   9  10
HETATM   10  C   UNL     1      -8.080  15.673  67.217  1.00  0.00    -0.195 C  
BRANCH  10  11
HETATM   11  C   UNL     1      -7.419  14.289  67.080  1.00  0.00     0.093 C  
HETATM   12  H   UNL     1      -5.580  13.515  67.095  1.00  0.00     0.000 HD 
HETATM   13  O   UNL     1      -5.988  14.368  67.179  1.00  0.00    -0.194 OA 
BRANCH  11  14
HETATM   14  C   UNL     1      -7.929  13.319  68.177  1.00  0.00    -0.150 C  
BRANCH  14  15
HETATM   15  N   UNL     1      -8.591  12.099  67.674  1.00  0.00    -0.157 NA 
HETATM   16  C   UNL     1      -7.653  11.218  66.963  1.00  0.00    -0.143 C  
HETATM   17  C   UNL     1      -6.582  10.637  67.901  1.00  0.00    -0.060 C  
HETATM   18  N   UNL     1      -7.122   9.795  68.993  1.00  0.00    -0.065 NA 
HETATM   19  C   UNL     1      -8.242  10.492  69.661  1.00  0.00    -0.015 C  
HETATM   20  C   UNL     1      -9.213  11.314  68.764  1.00  0.00    -0.126 C  
BRANCH  18  21
HETATM   21  C   UNL     1      -7.501   8.455  68.479  1.00  0.00    -0.094 C  
BRANCH  21  22
HETATM   22  C   UNL     1      -7.405   7.406  69.614  1.00  0.00    -0.091 C  
HETATM   23  N   UNL     1      -8.582   6.691  69.747  1.00  0.00    -0.135 N  
HETATM   24  O   UNL     1      -6.372   7.232  70.253  1.00  0.00    -0.033 OA 
HETATM   25  H   UNL     1      -9.325   6.919  69.086  1.00  0.00     0.000 HD 
BRANCH  23  26
HETATM   26  C   UNL     1      -8.874   5.687  70.685  1.00  0.00    -0.138 A  
HETATM   27  C   UNL     1      -9.442   5.951  71.950  1.00  0.00    -0.166 A  
HETATM   28  C   UNL     1      -9.731   4.870  72.801  1.00  0.00    -0.173 A  
HETATM   29  C   UNL     1      -9.826   7.319  72.443  1.00  0.00    -0.188 C  
HETATM   30  C   UNL     1      -9.510   3.557  72.396  1.00  0.00    -0.183 A  
HETATM   31  C   UNL     1      -8.988   3.299  71.134  1.00  0.00    -0.163 A  
HETATM   32  C   UNL     1      -8.666   4.353  70.268  1.00  0.00    -0.119 A  
HETATM   33  C   UNL     1      -8.030   4.033  68.941  1.00  0.00    -0.067 C  
ENDBRANCH  23  26
ENDBRANCH  21  22
ENDBRANCH  18  21
ENDBRANCH  14  15
ENDBRANCH  11  14
ENDBRANCH  10  11
ENDBRANCH   9  10
ENDBRANCH   8   9
ENDBRANCH   2   3
TORSDOF 9
ENDMDL
MODEL      238
REMARK 921   NORMALIZED FREE ENERGY PREDICTED BY IDOCK:   -3.53 KCAL/MOL
REMARK 922        TOTAL FREE ENERGY PREDICTED BY IDOCK:   -6.48 KCAL/MOL
REMARK 923 INTER-LIGAND FREE ENERGY PREDICTED BY IDOCK:   -6.22 KCAL/MOL
REMARK 924 INTRA-LIGAND FREE ENERGY PREDICTED BY IDOCK:   -0.25 KCAL/MOL
REMARK 927      BINDING AFFINITY PREDICTED BY RF-SCORE:    0.00 PKD
ROOT
HETATM    1  C   UNL     1     -11.764   6.706  71.662  1.00  0.00    -0.316 C  
HETATM    2  O   UNL     1     -10.454   6.539  72.198  1.00  0.00    -0.201 OA 
ENDROOT
BRANCH   2   3
HETATM    3  C   UNL     1      -9.666   5.600  71.587  1.00  0.00    -0.159 A  
HETATM    4  C   UNL     1     -10.044   4.246  71.548  1.00  0.00    -0.205 A  
HETATM    5  C   UNL     1      -9.235   3.289  70.938  1.00  0.00    -0.202 A  
HETATM    6  C   UNL     1      -8.039   3.675  70.345  1.00  0.00    -0.062 A  
HETATM    7  C   UNL     1      -7.669   5.019  70.348  1.00  0.00    -0.070 A  
HETATM    8  C   UNL     1      -8.476   5.996  70.949  1.00  0.00    -0.127 A  
BRANCH   8   9
HETATM    9  O   UNL     1      -7.945   7.255  70.820  1.00  0.00    -0.096 OA 
BRANCH   9  10
HETATM   10  C   UNL     1      -7.688   7.755  69.508  1.00  0.00    -0.105 C  
BRANCH  10  11
HETATM   11  C   UNL     1      -6.187   8.065  69.352  1.00  0.00    -0.034 C  
HETATM   12  H   UNL     1      -4.772   7.885  67.957  1.00  0.00     0.000 HD 
HETATM   13  O   UNL     1      -5.698   7.694  68.053  1.00  0.00    -0.030 OA 
BRANCH  11  14
HETATM   14  C   UNL     1      -5.907   9.575  69.564  1.00  0.00    -0.033 C  
BRANCH  14  15
HETATM   15  N   UNL     1      -5.860  10.381  68.327  1.00  0.00    -0.040 NA 
HETATM   16  C   UNL     1      -7.202  10.622  67.777  1.00  0.00    -0.088 C  
HETATM   17  C   UNL     1      -8.056  11.504  68.701  1.00  0.00    -0.132 C  
HETATM   18  N   UNL     1      -7.505  12.858  68.930  1.00  0.00    -0.038 NA 
HETATM   19  C   UNL     1      -6.071  12.767  69.285  1.00  0.00    -0.099 C  
HETATM   20  C   UNL     1      -5.218  11.697  68.545  1.00  0.00    -0.042 C  
BRANCH  18  21
HETATM   21  C   UNL     1      -7.753  13.729  67.753  1.00  0.00    -0.168 C  
BRANCH  21  22
HETATM   22  C   UNL     1      -9.187  13.496  67.216  1.00  0.00    -0.233 C  
HETATM   23  N   UNL     1      -9.190  13.284  65.849  1.00  0.00    -0.457 N  
HETATM   24  O   UNL     1     -10.162  13.461  67.961  1.00  0.00    -0.230 OA 
HETATM   25  H   UNL     1      -8.279  13.281  65.392  1.00  0.00     0.000 HD 
BRANCH  23  26
HETATM   26  C   UNL     1     -10.302  13.074  65.017  1.00  0.00    -0.318 A  
HETATM   27  C   UNL     1     -10.671  11.804  64.525  1.00  0.00    -0.369 A  
HETATM   28  C   UNL     1     -11.826  11.696  63.730  1.00  0.00    -0.382 A  
HETATM   29  C   UNL     1      -9.947  10.524  64.841  1.00  0.00    -0.401 C  
HETATM   30  C   UNL     1     -12.624  12.805  63.466  1.00  0.00    -0.359 A  
HETATM   31  C   UNL     1     -12.279  14.047  63.986  1.00  0.00    -0.395 A  
HETATM   32  C   UNL     1     -11.122  14.196  64.763  1.00  0.00    -0.393 A  
HETATM   33  C   UNL     1     -10.743  15.574  65.242  1.00  0.00    -0.440 C  
ENDBRANCH  23  26
ENDBRANCH  21  22
ENDBRANCH  18  21
ENDBRANCH  14  15
ENDBRANCH  11  14
ENDBRANCH  10  11
ENDBRANCH   9  10
ENDBRANCH   8   9
ENDBRANCH   2   3
TORSDOF 9
ENDMDL
MODEL      239
REMARK 921   NORMALIZED FREE ENERGY PREDICTED BY IDOCK:   -3.52 KCAL/MOL
REMARK 922        TOTAL FREE ENERGY PREDICTED BY IDOCK:   -6.47 KCAL/MOL
REMARK 923 INTER-LIGAND FREE ENERGY PREDICTED BY IDOCK:   -5.75 KCAL/MOL
REMARK 924 INTRA-LIGAND FREE ENERGY PREDICTED BY IDOCK:   -0.72 KCAL/MOL
REMARK 927      BINDING AFFINITY PREDICTED BY RF-SCORE:    0.00 PKD
ROOT
HETATM    1  C   UNL     1      -9.570   1.573  70.276  1.00  0.00    -0.044 C  
HETATM    2  O   UNL     1      -9.297   2.887  70.756  1.00  0.00    -0.127 OA 
ENDROOT
BRANCH   2   3
HETATM    3  C   UNL     1      -8.734   2.970  72.002  1.00  0.00    -0.081 A  
HETATM    4  C   UNL     1      -8.801   1.893  72.904  1.00  0.00    -0.066 A  
HETATM    5  C   UNL     1      -8.240   1.983  74.177  1.00  0.00    -0.057 A  
HETATM    6  C   UNL     1      -7.592   3.151  74.564  1.00  0.00    -0.056 A  
HETATM    7  C   UNL     1      -7.491   4.214  73.667  1.00  0.00    -0.076 A  
HETATM    8  C   UNL     1      -8.041   4.136  72.378  1.00  0.00    -0.095 A  
BRANCH   8   9
HETATM    9  O   UNL     1      -7.811   5.275  71.649  1.00  0.00    -0.105 OA 
BRANCH   9  10
HETATM   10  C   UNL     1      -8.704   6.377  71.809  1.00  0.00    -0.132 C  
BRANCH  10  11
HETATM   11  C   UNL     1      -7.903   7.660  72.100  1.00  0.00    -0.104 C  
HETATM   12  H   UNL     1      -6.035   8.326  71.879  1.00  0.00     0.000 HD 
HETATM   13  O   UNL     1      -6.529   7.535  71.700  1.00  0.00    -0.039 OA 
BRANCH  11  14
HETATM   14  C   UNL     1      -8.516   8.877  71.360  1.00  0.00    -0.153 C  
BRANCH  14  15
HETATM   15  N   UNL     1      -9.148   8.565  70.062  1.00  0.00    -0.145 NA 
HETATM   16  C   UNL     1     -10.557   8.982  70.023  1.00  0.00    -0.228 C  
HETATM   17  C   UNL     1     -10.710  10.510  70.095  1.00  0.00    -0.171 C  
HETATM   18  N   UNL     1     -10.080  11.238  68.970  1.00  0.00    -0.172 NA 
HETATM   19  C   UNL     1      -8.701  10.746  68.759  1.00  0.00    -0.163 C  
HETATM   20  C   UNL     1      -8.451   9.220  68.932  1.00  0.00    -0.129 C  
BRANCH  18  21
HETATM   21  C   UNL     1     -10.921  11.140  67.750  1.00  0.00    -0.262 C  
BRANCH  21  22
HETATM   22  C   UNL     1     -11.394  12.550  67.318  1.00  0.00    -0.315 C  
HETATM   23  N   UNL     1     -10.393  13.493  67.477  1.00  0.00    -0.236 N  
HETATM   24  O   UNL     1     -12.510  12.746  66.849  1.00  0.00    -0.307 OA 
HETATM   25  H   UNL     1      -9.497  13.146  67.820  1.00  0.00     0.000 HD 
BRANCH  23  26
HETATM   26  C   UNL     1     -10.467  14.872  67.223  1.00  0.00    -0.263 A  
HETATM   27  C   UNL     1     -10.543  15.845  68.242  1.00  0.00    -0.276 A  
HETATM   28  C   UNL     1     -10.574  17.203  67.880  1.00  0.00    -0.376 A  
HETATM   29  C   UNL     1     -10.531  15.539  69.714  1.00  0.00    -0.308 C  
HETATM   30  C   UNL     1     -10.485  17.595  66.547  1.00  0.00    -0.283 A  
HETATM   31  C   UNL     1     -10.369  16.635  65.549  1.00  0.00    -0.268 A  
HETATM   32  C   UNL     1     -10.358  15.271  65.871  1.00  0.00    -0.346 A  
HETATM   33  C   UNL     1     -10.311  14.262  64.753  1.00  0.00    -0.373 C  
ENDBRANCH  23  26
ENDBRANCH  21  22
ENDBRANCH  18  21
ENDBRANCH  14  15
ENDBRANCH  11  14
ENDBRANCH  10  11
ENDBRANCH   9  10
ENDBRANCH   8   9
ENDBRANCH   2   3
TORSDOF 9
ENDMDL
MODEL      240
REMARK 921   NORMALIZED FREE ENERGY PREDICTED BY IDOCK:   -3.52 KCAL/MOL
REMARK 922        TOTAL FREE ENERGY PREDICTED BY IDOCK:   -6.46 KCAL/MOL
REMARK 923 INTER-LIGAND FREE ENERGY PREDICTED BY IDOCK:   -6.59 KCAL/MOL
REMARK 924 INTRA-LIGAND FREE ENERGY PREDICTED BY IDOCK:    0.12 KCAL/MOL
REMARK 927      BINDING AFFINITY PREDICTED BY RF-SCORE:    0.00 PKD
ROOT
HETATM    1  C   UNL     1     -13.394  11.996  71.811  1.00  0.00    -0.237 C  
HETATM    2  O   UNL     1     -12.175  12.625  71.427  1.00  0.00    -0.081 OA 
ENDROOT
BRANCH   2   3
HETATM    3  C   UNL     1     -12.119  13.105  70.145  1.00  0.00    -0.321 A  
HETATM    4  C   UNL     1     -12.210  14.483  69.879  1.00  0.00    -0.379 A  
HETATM    5  C   UNL     1     -12.166  14.969  68.574  1.00  0.00    -0.063 A  
HETATM    6  C   UNL     1     -12.018  14.084  67.513  1.00  0.00    -0.430 A  
HETATM    7  C   UNL     1     -11.894  12.718  67.766  1.00  0.00    -0.387 A  
HETATM    8  C   UNL     1     -11.925  12.213  69.074  1.00  0.00    -0.247 A  
BRANCH   8   9
HETATM    9  O   UNL     1     -11.762  10.851  69.105  1.00  0.00    -0.292 OA 
BRANCH   9  10
HETATM   10  C   UNL     1     -11.117  10.268  70.237  1.00  0.00    -0.319 C  
BRANCH  10  11
HETATM   11  C   UNL     1     -10.274   9.058  69.792  1.00  0.00    -0.205 C  
HETATM   12  H   UNL     1     -10.463   7.074  69.690  1.00  0.00     0.000 HD 
HETATM   13  O   UNL     1     -10.983   7.821  69.964  1.00  0.00    -0.249 OA 
BRANCH  11  14
HETATM   14  C   UNL     1      -9.868   9.182  68.300  1.00  0.00    -0.160 C  
BRANCH  14  15
HETATM   15  N   UNL     1      -8.472   9.603  68.065  1.00  0.00    -0.118 NA 
HETATM   16  C   UNL     1      -8.299  10.219  66.742  1.00  0.00    -0.124 C  
HETATM   17  C   UNL     1      -9.060  11.549  66.620  1.00  0.00    -0.190 C  
HETATM   18  N   UNL     1      -8.616  12.593  67.572  1.00  0.00    -0.174 NA 
HETATM   19  C   UNL     1      -8.535  12.029  68.937  1.00  0.00     0.177 C  
HETATM   20  C   UNL     1      -8.006  10.573  69.081  1.00  0.00    -0.145 C  
BRANCH  18  21
HETATM   21  C   UNL     1      -7.338  13.200  67.122  1.00  0.00     0.067 C  
BRANCH  21  22
HETATM   22  C   UNL     1      -7.457  14.744  67.121  1.00  0.00    -0.034 C  
HETATM   23  N   UNL     1      -8.779  15.153  67.111  1.00  0.00    -0.201 N  
HETATM   24  O   UNL     1      -6.471  15.472  67.178  1.00  0.00    -0.302 OA 
HETATM   25  H   UNL     1      -9.479  14.411  67.132  1.00  0.00     0.000 HD 
BRANCH  23  26
HETATM   26  C   UNL     1      -9.269  16.468  67.075  1.00  0.00    -0.218 A  
HETATM   27  C   UNL     1     -10.092  16.959  66.040  1.00  0.00    -0.336 A  
HETATM   28  C   UNL     1     -10.561  18.283  66.118  1.00  0.00    -0.326 A  
HETATM   29  C   UNL     1     -10.565  16.145  64.867  1.00  0.00    -0.203 C  
HETATM   30  C   UNL     1     -10.266  19.087  67.215  1.00  0.00    -0.476 A  
HETATM   31  C   UNL     1      -9.489  18.586  68.253  1.00  0.00    -0.360 A  
HETATM   32  C   UNL     1      -8.984  17.279  68.197  1.00  0.00    -0.254 A  
HETATM   33  C   UNL     1      -8.082  16.802  69.305  1.00  0.00    -0.001 C  
ENDBRANCH  23  26
ENDBRANCH  21  22
ENDBRANCH  18  21
ENDBRANCH  14  15
ENDBRANCH  11  14
ENDBRANCH  10  11
ENDBRANCH   9  10
ENDBRANCH   8   9
ENDBRANCH   2   3
TORSDOF 9
ENDMDL
MODEL      241
REMARK 921   NORMALIZED FREE ENERGY PREDICTED BY IDOCK:   -3.52 KCAL/MOL
REMARK 922        TOTAL FREE ENERGY PREDICTED BY IDOCK:   -6.46 KCAL/MOL
REMARK 923 INTER-LIGAND FREE ENERGY PREDICTED BY IDOCK:   -6.46 KCAL/MOL
REMARK 924 INTRA-LIGAND FREE ENERGY PREDICTED BY IDOCK:   -0.00 KCAL/MOL
REMARK 927      BINDING AFFINITY PREDICTED BY RF-SCORE:    0.00 PKD
ROOT
HETATM    1  C   UNL     1      -7.008  15.799  68.180  1.00  0.00    -0.118 C  
HETATM    2  O   UNL     1      -7.155  17.109  68.721  1.00  0.00    -0.206 OA 
ENDROOT
BRANCH   2   3
HETATM    3  C   UNL     1      -8.302  17.777  68.384  1.00  0.00    -0.295 A  
HETATM    4  C   UNL     1      -8.421  19.165  68.583  1.00  0.00    -0.397 A  
HETATM    5  C   UNL     1      -9.594  19.842  68.252  1.00  0.00    -0.467 A  
HETATM    6  C   UNL     1     -10.663  19.142  67.705  1.00  0.00    -0.514 A  
HETATM    7  C   UNL     1     -10.545  17.773  67.472  1.00  0.00    -0.365 A  
HETATM    8  C   UNL     1      -9.369  17.077  67.789  1.00  0.00    -0.237 A  
BRANCH   8   9
HETATM    9  O   UNL     1      -9.450  15.748  67.459  1.00  0.00    -0.216 OA 
BRANCH   9  10
HETATM   10  C   UNL     1     -10.706  15.087  67.604  1.00  0.00    -0.274 C  
BRANCH  10  11
HETATM   11  C   UNL     1     -10.966  14.185  66.383  1.00  0.00    -0.311 C  
HETATM   12  H   UNL     1     -10.237  13.932  64.543  1.00  0.00     0.000 HD 
HETATM   13  O   UNL     1     -10.077  14.488  65.296  1.00  0.00    -0.369 OA 
BRANCH  11  14
HETATM   14  C   UNL     1     -10.791  12.688  66.751  1.00  0.00    -0.250 C  
BRANCH  14  15
HETATM   15  N   UNL     1     -10.048  11.884  65.759  1.00  0.00    -0.233 NA 
HETATM   16  C   UNL     1      -8.694  11.549  66.227  1.00  0.00    -0.159 C  
HETATM   17  C   UNL     1      -8.719  10.613  67.445  1.00  0.00    -0.125 C  
HETATM   18  N   UNL     1      -9.355   9.300  67.191  1.00  0.00    -0.129 NA 
HETATM   19  C   UNL     1     -10.654   9.493  66.510  1.00  0.00    -0.062 C  
HETATM   20  C   UNL     1     -10.742  10.617  65.439  1.00  0.00    -0.036 C  
BRANCH  18  21
HETATM   21  C   UNL     1      -8.435   8.412  66.437  1.00  0.00    -0.123 C  
BRANCH  21  22
HETATM   22  C   UNL     1      -8.768   6.929  66.736  1.00  0.00    -0.122 C  
HETATM   23  N   UNL     1      -8.358   6.562  68.005  1.00  0.00    -0.116 N  
HETATM   24  O   UNL     1      -9.370   6.224  65.933  1.00  0.00    -0.100 OA 
HETATM   25  H   UNL     1      -7.930   7.295  68.570  1.00  0.00     0.000 HD 
BRANCH  23  26
HETATM   26  C   UNL     1      -8.462   5.297  68.607  1.00  0.00    -0.088 A  
HETATM   27  C   UNL     1      -9.575   4.894  69.374  1.00  0.00    -0.239 A  
HETATM   28  C   UNL     1      -9.597   3.591  69.901  1.00  0.00    -0.219 A  
HETATM   29  C   UNL     1     -10.789   5.744  69.627  1.00  0.00    -0.418 C  
HETATM   30  C   UNL     1      -8.569   2.690  69.638  1.00  0.00    -0.115 A  
HETATM   31  C   UNL     1      -7.493   3.078  68.848  1.00  0.00    -0.048 A  
HETATM   32  C   UNL     1      -7.426   4.377  68.325  1.00  0.00    -0.065 A  
HETATM   33  C   UNL     1      -6.206   4.780  67.539  1.00  0.00    -0.039 C  
ENDBRANCH  23  26
ENDBRANCH  21  22
ENDBRANCH  18  21
ENDBRANCH  14  15
ENDBRANCH  11  14
ENDBRANCH  10  11
ENDBRANCH   9  10
ENDBRANCH   8   9
ENDBRANCH   2   3
TORSDOF 9
ENDMDL
MODEL      242
REMARK 921   NORMALIZED FREE ENERGY PREDICTED BY IDOCK:   -3.49 KCAL/MOL
REMARK 922        TOTAL FREE ENERGY PREDICTED BY IDOCK:   -6.43 KCAL/MOL
REMARK 923 INTER-LIGAND FREE ENERGY PREDICTED BY IDOCK:   -5.80 KCAL/MOL
REMARK 924 INTRA-LIGAND FREE ENERGY PREDICTED BY IDOCK:   -0.63 KCAL/MOL
REMARK 927      BINDING AFFINITY PREDICTED BY RF-SCORE:    0.00 PKD
ROOT
HETATM    1  C   UNL     1      -9.367   5.200  69.886  1.00  0.00    -0.143 C  
HETATM    2  O   UNL     1      -9.861   5.607  68.613  1.00  0.00    -0.129 OA 
ENDROOT
BRANCH   2   3
HETATM    3  C   UNL     1      -9.567   4.783  67.558  1.00  0.00    -0.158 A  
HETATM    4  C   UNL     1      -9.693   3.387  67.669  1.00  0.00    -0.037 A  
HETATM    5  C   UNL     1      -9.382   2.549  66.600  1.00  0.00     0.003 A  
HETATM    6  C   UNL     1      -8.949   3.096  65.398  1.00  0.00    -0.142 A  
HETATM    7  C   UNL     1      -8.852   4.480  65.265  1.00  0.00    -0.140 A  
HETATM    8  C   UNL     1      -9.172   5.339  66.327  1.00  0.00    -0.149 A  
BRANCH   8   9
HETATM    9  O   UNL     1      -9.032   6.660  65.983  1.00  0.00    -0.154 OA 
BRANCH   9  10
HETATM   10  C   UNL     1      -7.717   7.209  65.910  1.00  0.00    -0.101 C  
BRANCH  10  11
HETATM   11  C   UNL     1      -7.579   8.070  64.641  1.00  0.00    -0.111 C  
HETATM   12  H   UNL     1      -8.207   8.033  62.747  1.00  0.00     0.000 HD 
HETATM   13  O   UNL     1      -8.291   7.502  63.530  1.00  0.00     0.002 OA 
BRANCH  11  14
HETATM   14  C   UNL     1      -8.119   9.504  64.881  1.00  0.00    -0.131 C  
BRANCH  14  15
HETATM   15  N   UNL     1      -9.590   9.612  64.969  1.00  0.00    -0.266 NA 
HETATM   16  C   UNL     1     -10.044   9.819  66.352  1.00  0.00    -0.243 C  
HETATM   17  C   UNL     1      -9.589  11.175  66.912  1.00  0.00    -0.186 C  
HETATM   18  N   UNL     1     -10.115  12.346  66.174  1.00  0.00    -0.243 NA 
HETATM   19  C   UNL     1      -9.913  12.158  64.721  1.00  0.00    -0.200 C  
HETATM   20  C   UNL     1     -10.115  10.726  64.148  1.00  0.00    -0.353 C  
BRANCH  18  21
HETATM   21  C   UNL     1     -11.535  12.593  66.532  1.00  0.00    -0.353 C  
BRANCH  21  22
HETATM   22  C   UNL     1     -11.776  14.111  66.722  1.00  0.00    -0.410 C  
HETATM   23  N   UNL     1     -10.590  14.823  66.690  1.00  0.00    -0.293 N  
HETATM   24  O   UNL     1     -12.904  14.582  66.829  1.00  0.00     0.220 OA 
HETATM   25  H   UNL     1      -9.743  14.279  66.525  1.00  0.00     0.000 HD 
BRANCH  23  26
HETATM   26  C   UNL     1     -10.415  16.206  66.860  1.00  0.00    -0.300 A  
HETATM   27  C   UNL     1      -9.916  16.783  68.047  1.00  0.00    -0.272 A  
HETATM   28  C   UNL     1      -9.743  18.177  68.100  1.00  0.00    -0.331 A  
HETATM   29  C   UNL     1      -9.488  16.004  69.259  1.00  0.00    -0.245 C  
HETATM   30  C   UNL     1     -10.011  18.978  66.994  1.00  0.00    -0.405 A  
HETATM   31  C   UNL     1     -10.465  18.402  65.814  1.00  0.00    -0.250 A  
HETATM   32  C   UNL     1     -10.671  17.018  65.732  1.00  0.00    -0.146 A  
HETATM   33  C   UNL     1     -11.238  16.443  64.460  1.00  0.00    -0.136 C  
ENDBRANCH  23  26
ENDBRANCH  21  22
ENDBRANCH  18  21
ENDBRANCH  14  15
ENDBRANCH  11  14
ENDBRANCH  10  11
ENDBRANCH   9  10
ENDBRANCH   8   9
ENDBRANCH   2   3
TORSDOF 9
ENDMDL
MODEL      243
REMARK 921   NORMALIZED FREE ENERGY PREDICTED BY IDOCK:   -3.47 KCAL/MOL
REMARK 922        TOTAL FREE ENERGY PREDICTED BY IDOCK:   -6.38 KCAL/MOL
REMARK 923 INTER-LIGAND FREE ENERGY PREDICTED BY IDOCK:   -4.99 KCAL/MOL
REMARK 924 INTRA-LIGAND FREE ENERGY PREDICTED BY IDOCK:   -1.39 KCAL/MOL
REMARK 927      BINDING AFFINITY PREDICTED BY RF-SCORE:    0.00 PKD
ROOT
HETATM    1  C   UNL     1     -10.587  13.519  66.098  1.00  0.00    -0.290 C  
HETATM    2  O   UNL     1     -10.851  12.383  66.917  1.00  0.00    -0.239 OA 
ENDROOT
BRANCH   2   3
HETATM    3  C   UNL     1     -10.178  11.235  66.593  1.00  0.00    -0.229 A  
HETATM    4  C   UNL     1      -9.340  11.176  65.465  1.00  0.00    -0.247 A  
HETATM    5  C   UNL     1      -8.666  10.004  65.128  1.00  0.00    -0.183 A  
HETATM    6  C   UNL     1      -8.811   8.873  65.923  1.00  0.00    -0.215 A  
HETATM    7  C   UNL     1      -9.613   8.928  67.062  1.00  0.00    -0.232 A  
HETATM    8  C   UNL     1     -10.289  10.103  67.422  1.00  0.00    -0.238 A  
BRANCH   8   9
HETATM    9  O   UNL     1     -11.001   9.953  68.585  1.00  0.00    -0.225 OA 
BRANCH   9  10
HETATM   10  C   UNL     1     -10.375  10.311  69.817  1.00  0.00    -0.246 C  
BRANCH  10  11
HETATM   11  C   UNL     1     -10.739   9.283  70.905  1.00  0.00    -0.301 C  
HETATM   12  H   UNL     1     -12.068   9.091  72.381  1.00  0.00     0.000 HD 
HETATM   13  O   UNL     1     -11.844   9.725  71.710  1.00  0.00    -0.383 OA 
BRANCH  11  14
HETATM   14  C   UNL     1     -11.113   7.916  70.276  1.00  0.00    -0.229 C  
BRANCH  14  15
HETATM   15  N   UNL     1     -10.392   6.753  70.832  1.00  0.00    -0.199 NA 
HETATM   16  C   UNL     1     -10.781   5.498  70.173  1.00  0.00    -0.278 C  
HETATM   17  C   UNL     1     -10.353   5.464  68.697  1.00  0.00    -0.158 C  
HETATM   18  N   UNL     1      -8.890   5.552  68.486  1.00  0.00    -0.104 NA 
HETATM   19  C   UNL     1      -8.331   6.663  69.285  1.00  0.00    -0.124 C  
HETATM   20  C   UNL     1      -8.924   6.896  70.704  1.00  0.00    -0.151 C  
BRANCH  18  21
HETATM   21  C   UNL     1      -8.242   4.248  68.779  1.00  0.00    -0.079 C  
BRANCH  21  22
HETATM   22  C   UNL     1      -7.436   3.769  67.546  1.00  0.00    -0.067 C  
HETATM   23  N   UNL     1      -7.891   4.360  66.380  1.00  0.00    -0.098 N  
HETATM   24  O   UNL     1      -6.485   3.001  67.650  1.00  0.00    -0.035 OA 
HETATM   25  H   UNL     1      -8.652   5.031  66.483  1.00  0.00     0.000 HD 
BRANCH  23  26
HETATM   26  C   UNL     1      -7.427   4.144  65.072  1.00  0.00    -0.073 A  
HETATM   27  C   UNL     1      -6.339   4.845  64.511  1.00  0.00    -0.034 A  
HETATM   28  C   UNL     1      -5.929   4.525  63.205  1.00  0.00    -0.017 A  
HETATM   29  C   UNL     1      -5.530   5.886  65.236  1.00  0.00    -0.016 C  
HETATM   30  C   UNL     1      -6.546   3.505  62.487  1.00  0.00    -0.022 A  
HETATM   31  C   UNL     1      -7.591   2.789  63.058  1.00  0.00    -0.062 A  
HETATM   32  C   UNL     1      -8.041   3.096  64.350  1.00  0.00    -0.082 A  
HETATM   33  C   UNL     1      -9.227   2.348  64.901  1.00  0.00    -0.133 C  
ENDBRANCH  23  26
ENDBRANCH  21  22
ENDBRANCH  18  21
ENDBRANCH  14  15
ENDBRANCH  11  14
ENDBRANCH  10  11
ENDBRANCH   9  10
ENDBRANCH   8   9
ENDBRANCH   2   3
TORSDOF 9
ENDMDL
MODEL      244
REMARK 921   NORMALIZED FREE ENERGY PREDICTED BY IDOCK:   -3.42 KCAL/MOL
REMARK 922        TOTAL FREE ENERGY PREDICTED BY IDOCK:   -6.32 KCAL/MOL
REMARK 923 INTER-LIGAND FREE ENERGY PREDICTED BY IDOCK:   -5.48 KCAL/MOL
REMARK 924 INTRA-LIGAND FREE ENERGY PREDICTED BY IDOCK:   -0.83 KCAL/MOL
REMARK 927      BINDING AFFINITY PREDICTED BY RF-SCORE:    0.00 PKD
ROOT
HETATM    1  C   UNL     1      -6.951  16.300  68.047  1.00  0.00    -0.130 C  
HETATM    2  O   UNL     1      -7.813  17.243  68.678  1.00  0.00    -0.255 OA 
ENDROOT
BRANCH   2   3
HETATM    3  C   UNL     1      -8.637  17.958  67.850  1.00  0.00    -0.252 A  
HETATM    4  C   UNL     1      -8.509  19.353  67.724  1.00  0.00    -0.345 A  
HETATM    5  C   UNL     1      -9.356  20.082  66.891  1.00  0.00    -0.515 A  
HETATM    6  C   UNL     1     -10.338  19.424  66.160  1.00  0.00    -0.595 A  
HETATM    7  C   UNL     1     -10.453  18.037  66.251  1.00  0.00    -0.340 A  
HETATM    8  C   UNL     1      -9.602  17.287  67.076  1.00  0.00    -0.261 A  
BRANCH   8   9
HETATM    9  O   UNL     1      -9.866  15.942  67.003  1.00  0.00    -0.226 OA 
BRANCH   9  10
HETATM   10  C   UNL     1     -11.226  15.512  67.049  1.00  0.00    -0.177 C  
BRANCH  10  11
HETATM   11  C   UNL     1     -11.444  14.363  66.047  1.00  0.00    -0.349 C  
HETATM   12  H   UNL     1     -10.973  13.932  64.156  1.00  0.00     0.000 HD 
HETATM   13  O   UNL     1     -10.838  14.641  64.774  1.00  0.00    -0.399 OA 
BRANCH  11  14
HETATM   14  C   UNL     1     -10.852  13.035  66.587  1.00  0.00    -0.275 C  
BRANCH  14  15
HETATM   15  N   UNL     1     -11.666  12.362  67.619  1.00  0.00    -0.386 NA 
HETATM   16  C   UNL     1     -12.018  10.988  67.232  1.00  0.00     0.815 C  
HETATM   17  C   UNL     1     -10.784  10.076  67.152  1.00  0.00    -0.212 C  
HETATM   18  N   UNL     1     -10.057   9.922  68.433  1.00  0.00    -0.161 NA 
HETATM   19  C   UNL     1      -9.829  11.248  69.046  1.00  0.00    -0.082 C  
HETATM   20  C   UNL     1     -10.969  12.301  68.923  1.00  0.00    -0.219 C  
BRANCH  18  21
HETATM   21  C   UNL     1     -10.779   8.987  69.333  1.00  0.00    -0.191 C  
BRANCH  21  22
HETATM   22  C   UNL     1      -9.769   8.232  70.232  1.00  0.00    -0.175 C  
HETATM   23  N   UNL     1      -8.605   7.929  69.547  1.00  0.00    -0.136 N  
HETATM   24  O   UNL     1      -9.998   8.002  71.415  1.00  0.00    -0.172 OA 
HETATM   25  H   UNL     1      -8.554   8.254  68.581  1.00  0.00     0.000 HD 
BRANCH  23  26
HETATM   26  C   UNL     1      -7.488   7.226  70.025  1.00  0.00    -0.085 A  
HETATM   27  C   UNL     1      -7.343   5.828  69.905  1.00  0.00    -0.070 A  
HETATM   28  C   UNL     1      -6.166   5.226  70.383  1.00  0.00    -0.023 A  
HETATM   29  C   UNL     1      -8.340   4.922  69.238  1.00  0.00    -0.085 C  
HETATM   30  C   UNL     1      -5.135   5.990  70.924  1.00  0.00    -0.013 A  
HETATM   31  C   UNL     1      -5.265   7.372  71.003  1.00  0.00    -0.027 A  
HETATM   32  C   UNL     1      -6.434   8.003  70.558  1.00  0.00    -0.037 A  
HETATM   33  C   UNL     1      -6.565   9.494  70.734  1.00  0.00    -0.104 C  
ENDBRANCH  23  26
ENDBRANCH  21  22
ENDBRANCH  18  21
ENDBRANCH  14  15
ENDBRANCH  11  14
ENDBRANCH  10  11
ENDBRANCH   9  10
ENDBRANCH   8   9
ENDBRANCH   2   3
TORSDOF 9
ENDMDL
MODEL      245
REMARK 921   NORMALIZED FREE ENERGY PREDICTED BY IDOCK:   -3.42 KCAL/MOL
REMARK 922        TOTAL FREE ENERGY PREDICTED BY IDOCK:   -6.31 KCAL/MOL
REMARK 923 INTER-LIGAND FREE ENERGY PREDICTED BY IDOCK:   -6.28 KCAL/MOL
REMARK 924 INTRA-LIGAND FREE ENERGY PREDICTED BY IDOCK:   -0.04 KCAL/MOL
REMARK 927      BINDING AFFINITY PREDICTED BY RF-SCORE:    0.00 PKD
ROOT
HETATM    1  C   UNL     1     -12.127  15.672  69.382  1.00  0.00    -0.266 C  
HETATM    2  O   UNL     1     -11.210  14.861  68.652  1.00  0.00    -0.251 OA 
ENDROOT
BRANCH   2   3
HETATM    3  C   UNL     1     -11.284  14.945  67.286  1.00  0.00    -0.345 A  
HETATM    4  C   UNL     1     -11.768  13.872  66.516  1.00  0.00    -0.414 A  
HETATM    5  C   UNL     1     -11.830  13.953  65.126  1.00  0.00    -0.370 A  
HETATM    6  C   UNL     1     -11.418  15.115  64.484  1.00  0.00    -0.319 A  
HETATM    7  C   UNL     1     -10.967  16.197  65.239  1.00  0.00    -0.280 A  
HETATM    8  C   UNL     1     -10.909  16.137  66.639  1.00  0.00    -0.149 A  
BRANCH   8   9
HETATM    9  O   UNL     1     -10.461  17.312  67.188  1.00  0.00    -0.325 OA 
BRANCH   9  10
HETATM   10  C   UNL     1      -9.431  18.031  66.511  1.00  0.00    -0.301 C  
BRANCH  10  11
HETATM   11  C   UNL     1      -8.093  17.282  66.650  1.00  0.00    -0.265 C  
HETATM   12  H   UNL     1      -6.528  16.812  65.504  1.00  0.00     0.000 HD 
HETATM   13  O   UNL     1      -7.354  17.274  65.418  1.00  0.00     0.069 OA 
BRANCH  11  14
HETATM   14  C   UNL     1      -7.206  17.928  67.745  1.00  0.00    -0.209 C  
BRANCH  14  15
HETATM   15  N   UNL     1      -6.939  17.073  68.919  1.00  0.00    -0.208 NA 
HETATM   16  C   UNL     1      -7.919  15.984  69.040  1.00  0.00    -0.224 C  
HETATM   17  C   UNL     1      -7.813  14.980  67.881  1.00  0.00    -0.138 C  
HETATM   18  N   UNL     1      -6.506  14.290  67.791  1.00  0.00    -0.168 NA 
HETATM   19  C   UNL     1      -5.408  15.276  67.881  1.00  0.00    -0.113 C  
HETATM   20  C   UNL     1      -5.590  16.465  68.868  1.00  0.00    -0.122 C  
BRANCH  18  21
HETATM   21  C   UNL     1      -6.409  13.222  68.819  1.00  0.00    -0.094 C  
BRANCH  21  22
HETATM   22  C   UNL     1      -6.782  11.853  68.197  1.00  0.00    -0.062 C  
HETATM   23  N   UNL     1      -7.141  11.980  66.867  1.00  0.00    -0.338 N  
HETATM   24  O   UNL     1      -6.700  10.807  68.833  1.00  0.00    -0.056 OA 
HETATM   25  H   UNL     1      -7.089  12.920  66.474  1.00  0.00     0.000 HD 
BRANCH  23  26
HETATM   26  C   UNL     1      -7.568  10.965  65.995  1.00  0.00    -0.094 A  
HETATM   27  C   UNL     1      -8.911  10.548  65.891  1.00  0.00    -0.185 A  
HETATM   28  C   UNL     1      -9.240   9.550  64.958  1.00  0.00    -0.297 A  
HETATM   29  C   UNL     1     -10.051  11.142  66.673  1.00  0.00    -0.256 C  
HETATM   30  C   UNL     1      -8.275   9.009  64.113  1.00  0.00    -0.166 A  
HETATM   31  C   UNL     1      -6.960   9.451  64.190  1.00  0.00    -0.099 A  
HETATM   32  C   UNL     1      -6.591  10.429  65.125  1.00  0.00    -0.090 A  
HETATM   33  C   UNL     1      -5.141  10.823  65.228  1.00  0.00    -0.142 C  
ENDBRANCH  23  26
ENDBRANCH  21  22
ENDBRANCH  18  21
ENDBRANCH  14  15
ENDBRANCH  11  14
ENDBRANCH  10  11
ENDBRANCH   9  10
ENDBRANCH   8   9
ENDBRANCH   2   3
TORSDOF 9
ENDMDL
MODEL      246
REMARK 921   NORMALIZED FREE ENERGY PREDICTED BY IDOCK:   -3.42 KCAL/MOL
REMARK 922        TOTAL FREE ENERGY PREDICTED BY IDOCK:   -6.31 KCAL/MOL
REMARK 923 INTER-LIGAND FREE ENERGY PREDICTED BY IDOCK:   -5.25 KCAL/MOL
REMARK 924 INTRA-LIGAND FREE ENERGY PREDICTED BY IDOCK:   -1.06 KCAL/MOL
REMARK 927      BINDING AFFINITY PREDICTED BY RF-SCORE:    0.00 PKD
ROOT
HETATM    1  C   UNL     1      -9.245   4.576  67.746  1.00  0.00    -0.131 C  
HETATM    2  O   UNL     1      -9.969   4.596  66.520  1.00  0.00    -0.200 OA 
ENDROOT
BRANCH   2   3
HETATM    3  C   UNL     1      -9.313   4.104  65.422  1.00  0.00    -0.163 A  
HETATM    4  C   UNL     1      -9.346   2.734  65.108  1.00  0.00    -0.111 A  
HETATM    5  C   UNL     1      -8.667   2.233  63.998  1.00  0.00    -0.091 A  
HETATM    6  C   UNL     1      -7.953   3.098  63.178  1.00  0.00    -0.072 A  
HETATM    7  C   UNL     1      -7.940   4.463  63.460  1.00  0.00    -0.086 A  
HETATM    8  C   UNL     1      -8.627   4.986  64.566  1.00  0.00    -0.143 A  
BRANCH   8   9
HETATM    9  O   UNL     1      -8.506   6.351  64.651  1.00  0.00    -0.059 OA 
BRANCH   9  10
HETATM   10  C   UNL     1      -7.428   6.983  63.962  1.00  0.00    -0.099 C  
BRANCH  10  11
HETATM   11  C   UNL     1      -7.599   8.513  64.016  1.00  0.00    -0.124 C  
HETATM   12  H   UNL     1      -8.931   9.879  63.433  1.00  0.00     0.000 HD 
HETATM   13  O   UNL     1      -8.826   8.935  63.400  1.00  0.00    -0.106 OA 
BRANCH  11  14
HETATM   14  C   UNL     1      -7.591   9.021  65.481  1.00  0.00    -0.090 C  
BRANCH  14  15
HETATM   15  N   UNL     1      -8.923   9.314  66.048  1.00  0.00    -0.164 NA 
HETATM   16  C   UNL     1      -9.315   8.328  67.066  1.00  0.00    -0.160 C  
HETATM   17  C   UNL     1      -8.416   8.393  68.311  1.00  0.00    -0.135 C  
HETATM   18  N   UNL     1      -8.455   9.692  69.022  1.00  0.00    -0.125 NA 
HETATM   19  C   UNL     1      -8.288  10.801  68.057  1.00  0.00    -0.120 C  
HETATM   20  C   UNL     1      -8.980  10.655  66.671  1.00  0.00    -0.150 C  
BRANCH  18  21
HETATM   21  C   UNL     1      -9.698   9.809  69.826  1.00  0.00    -0.229 C  
BRANCH  21  22
HETATM   22  C   UNL     1      -9.662   8.804  71.004  1.00  0.00    -0.230 C  
HETATM   23  N   UNL     1     -10.192   7.577  70.642  1.00  0.00    -0.202 N  
HETATM   24  O   UNL     1      -9.167   9.091  72.089  1.00  0.00    -0.365 OA 
HETATM   25  H   UNL     1     -10.500   7.488  69.674  1.00  0.00     0.000 HD 
BRANCH  23  26
HETATM   26  C   UNL     1     -10.354   6.442  71.452  1.00  0.00    -0.206 A  
HETATM   27  C   UNL     1      -9.293   5.576  71.793  1.00  0.00    -0.162 A  
HETATM   28  C   UNL     1      -9.555   4.487  72.643  1.00  0.00    -0.175 A  
HETATM   29  C   UNL     1      -7.866   5.765  71.360  1.00  0.00    -0.112 C  
HETATM   30  C   UNL     1     -10.822   4.284  73.182  1.00  0.00    -0.303 A  
HETATM   31  C   UNL     1     -11.855   5.162  72.877  1.00  0.00    -0.147 A  
HETATM   32  C   UNL     1     -11.636   6.245  72.014  1.00  0.00    -0.372 A  
HETATM   33  C   UNL     1     -12.801   7.127  71.647  1.00  0.00    -0.420 C  
ENDBRANCH  23  26
ENDBRANCH  21  22
ENDBRANCH  18  21
ENDBRANCH  14  15
ENDBRANCH  11  14
ENDBRANCH  10  11
ENDBRANCH   9  10
ENDBRANCH   8   9
ENDBRANCH   2   3
TORSDOF 9
ENDMDL
MODEL      247
REMARK 921   NORMALIZED FREE ENERGY PREDICTED BY IDOCK:   -3.40 KCAL/MOL
REMARK 922        TOTAL FREE ENERGY PREDICTED BY IDOCK:   -6.28 KCAL/MOL
REMARK 923 INTER-LIGAND FREE ENERGY PREDICTED BY IDOCK:   -6.21 KCAL/MOL
REMARK 924 INTRA-LIGAND FREE ENERGY PREDICTED BY IDOCK:   -0.07 KCAL/MOL
REMARK 927      BINDING AFFINITY PREDICTED BY RF-SCORE:    0.00 PKD
ROOT
HETATM    1  C   UNL     1      -6.693  15.556  68.429  1.00  0.00    -0.116 C  
HETATM    2  O   UNL     1      -6.984  16.900  68.798  1.00  0.00    -0.181 OA 
ENDROOT
BRANCH   2   3
HETATM    3  C   UNL     1      -8.197  17.391  68.391  1.00  0.00    -0.262 A  
HETATM    4  C   UNL     1      -8.539  18.741  68.588  1.00  0.00    -0.358 A  
HETATM    5  C   UNL     1      -9.778  19.235  68.185  1.00  0.00    -0.441 A  
HETATM    6  C   UNL     1     -10.691  18.389  67.567  1.00  0.00    -0.399 A  
HETATM    7  C   UNL     1     -10.350  17.057  67.336  1.00  0.00    -0.319 A  
HETATM    8  C   UNL     1      -9.103  16.545  67.725  1.00  0.00    -0.204 A  
BRANCH   8   9
HETATM    9  O   UNL     1      -8.959  15.223  67.385  1.00  0.00    -0.173 OA 
BRANCH   9  10
HETATM   10  C   UNL     1     -10.135  14.437  67.198  1.00  0.00    -0.253 C  
BRANCH  10  11
HETATM   11  C   UNL     1      -9.768  13.099  66.527  1.00  0.00    -0.268 C  
HETATM   12  H   UNL     1      -8.120  12.124  65.965  1.00  0.00     0.000 HD 
HETATM   13  O   UNL     1      -8.347  12.949  66.379  1.00  0.00     0.169 OA 
BRANCH  11  14
HETATM   14  C   UNL     1     -10.300  11.900  67.353  1.00  0.00    -0.207 C  
BRANCH  14  15
HETATM   15  N   UNL     1      -9.278  10.906  67.741  1.00  0.00    -0.151 NA 
HETATM   16  C   UNL     1      -9.104  10.837  69.199  1.00  0.00    -0.095 C  
HETATM   17  C   UNL     1     -10.359  10.300  69.906  1.00  0.00    -0.233 C  
HETATM   18  N   UNL     1     -10.734   8.922  69.515  1.00  0.00    -0.224 NA 
HETATM   19  C   UNL     1     -10.732   8.797  68.041  1.00  0.00    -0.090 C  
HETATM   20  C   UNL     1      -9.615   9.547  67.260  1.00  0.00    -0.150 C  
BRANCH  18  21
HETATM   21  C   UNL     1      -9.848   7.932  70.179  1.00  0.00    -0.184 C  
BRANCH  21  22
HETATM   22  C   UNL     1     -10.290   6.494  69.809  1.00  0.00    -0.195 C  
HETATM   23  N   UNL     1      -9.220   5.729  69.379  1.00  0.00    -0.125 N  
HETATM   24  O   UNL     1     -11.448   6.114  69.948  1.00  0.00    -0.421 OA 
HETATM   25  H   UNL     1      -8.308   6.185  69.388  1.00  0.00     0.000 HD 
BRANCH  23  26
HETATM   26  C   UNL     1      -9.244   4.397  68.933  1.00  0.00    -0.140 A  
HETATM   27  C   UNL     1      -9.179   3.288  69.802  1.00  0.00    -0.221 A  
HETATM   28  C   UNL     1      -9.249   1.995  69.254  1.00  0.00    -0.188 A  
HETATM   29  C   UNL     1      -9.102   3.383  71.301  1.00  0.00    -0.175 C  
HETATM   30  C   UNL     1      -9.427   1.800  67.888  1.00  0.00    -0.164 A  
HETATM   31  C   UNL     1      -9.531   2.896  67.040  1.00  0.00    -0.065 A  
HETATM   32  C   UNL     1      -9.442   4.200  67.547  1.00  0.00    -0.225 A  
HETATM   33  C   UNL     1      -9.481   5.357  66.584  1.00  0.00    -0.151 C  
ENDBRANCH  23  26
ENDBRANCH  21  22
ENDBRANCH  18  21
ENDBRANCH  14  15
ENDBRANCH  11  14
ENDBRANCH  10  11
ENDBRANCH   9  10
ENDBRANCH   8   9
ENDBRANCH   2   3
TORSDOF 9
ENDMDL
MODEL      248
REMARK 921   NORMALIZED FREE ENERGY PREDICTED BY IDOCK:   -3.40 KCAL/MOL
REMARK 922        TOTAL FREE ENERGY PREDICTED BY IDOCK:   -6.28 KCAL/MOL
REMARK 923 INTER-LIGAND FREE ENERGY PREDICTED BY IDOCK:   -6.46 KCAL/MOL
REMARK 924 INTRA-LIGAND FREE ENERGY PREDICTED BY IDOCK:    0.18 KCAL/MOL
REMARK 927      BINDING AFFINITY PREDICTED BY RF-SCORE:    0.00 PKD
ROOT
HETATM    1  C   UNL     1      -9.528  15.900  65.870  1.00  0.00    -0.337 C  
HETATM    2  O   UNL     1      -9.194  15.681  67.237  1.00  0.00    -0.198 OA 
ENDROOT
BRANCH   2   3
HETATM    3  C   UNL     1     -10.141  15.046  67.997  1.00  0.00    -0.223 A  
HETATM    4  C   UNL     1     -11.155  15.769  68.651  1.00  0.00    -0.327 A  
HETATM    5  C   UNL     1     -12.109  15.123  69.434  1.00  0.00    -0.293 A  
HETATM    6  C   UNL     1     -12.072  13.740  69.566  1.00  0.00    -0.386 A  
HETATM    7  C   UNL     1     -11.092  13.009  68.896  1.00  0.00    -0.307 A  
HETATM    8  C   UNL     1     -10.130  13.642  68.095  1.00  0.00    -0.245 A  
BRANCH   8   9
HETATM    9  O   UNL     1      -9.275  12.743  67.507  1.00  0.00    -0.177 OA 
BRANCH   9  10
HETATM   10  C   UNL     1      -9.308  12.601  66.088  1.00  0.00    -0.112 C  
BRANCH  10  11
HETATM   11  C   UNL     1      -9.819  11.197  65.714  1.00  0.00    -0.235 C  
HETATM   12  H   UNL     1     -11.382  10.388  64.773  1.00  0.00     0.000 HD 
HETATM   13  O   UNL     1     -11.066  11.254  65.003  1.00  0.00    -0.206 OA 
BRANCH  11  14
HETATM   14  C   UNL     1      -8.789  10.448  64.830  1.00  0.00    -0.193 C  
BRANCH  14  15
HETATM   15  N   UNL     1      -8.782   8.979  64.986  1.00  0.00    -0.189 NA 
HETATM   16  C   UNL     1      -7.419   8.449  65.135  1.00  0.00    -0.084 C  
HETATM   17  C   UNL     1      -6.758   8.914  66.442  1.00  0.00    -0.074 C  
HETATM   18  N   UNL     1      -7.459   8.472  67.669  1.00  0.00    -0.092 NA 
HETATM   19  C   UNL     1      -8.906   8.756  67.552  1.00  0.00    -0.134 C  
HETATM   20  C   UNL     1      -9.569   8.542  66.161  1.00  0.00    -0.206 C  
BRANCH  18  21
HETATM   21  C   UNL     1      -7.172   7.042  67.948  1.00  0.00    -0.091 C  
BRANCH  21  22
HETATM   22  C   UNL     1      -8.118   6.520  69.058  1.00  0.00    -0.112 C  
HETATM   23  N   UNL     1      -8.431   7.514  69.969  1.00  0.00    -0.136 N  
HETATM   24  O   UNL     1      -8.550   5.372  69.056  1.00  0.00    -0.101 OA 
HETATM   25  H   UNL     1      -8.036   8.435  69.783  1.00  0.00     0.000 HD 
BRANCH  23  26
HETATM   26  C   UNL     1      -9.230   7.401  71.119  1.00  0.00    -0.155 A  
HETATM   27  C   UNL     1     -10.605   7.090  71.079  1.00  0.00    -0.239 A  
HETATM   28  C   UNL     1     -11.305   6.964  72.291  1.00  0.00    -0.306 A  
HETATM   29  C   UNL     1     -11.381   6.819  69.820  1.00  0.00    -0.350 C  
HETATM   30  C   UNL     1     -10.655   7.093  73.515  1.00  0.00    -0.416 A  
HETATM   31  C   UNL     1      -9.292   7.359  73.551  1.00  0.00    -0.287 A  
HETATM   32  C   UNL     1      -8.566   7.515  72.361  1.00  0.00    -0.152 A  
HETATM   33  C   UNL     1      -7.107   7.881  72.445  1.00  0.00    -0.095 C  
ENDBRANCH  23  26
ENDBRANCH  21  22
ENDBRANCH  18  21
ENDBRANCH  14  15
ENDBRANCH  11  14
ENDBRANCH  10  11
ENDBRANCH   9  10
ENDBRANCH   8   9
ENDBRANCH   2   3
TORSDOF 9
ENDMDL
MODEL      249
REMARK 921   NORMALIZED FREE ENERGY PREDICTED BY IDOCK:   -3.35 KCAL/MOL
REMARK 922        TOTAL FREE ENERGY PREDICTED BY IDOCK:   -6.21 KCAL/MOL
REMARK 923 INTER-LIGAND FREE ENERGY PREDICTED BY IDOCK:   -6.37 KCAL/MOL
REMARK 924 INTRA-LIGAND FREE ENERGY PREDICTED BY IDOCK:    0.16 KCAL/MOL
REMARK 927      BINDING AFFINITY PREDICTED BY RF-SCORE:    0.00 PKD
ROOT
HETATM    1  C   UNL     1      -6.908  13.591  68.861  1.00  0.00    -0.111 C  
HETATM    2  O   UNL     1      -6.432  14.843  68.375  1.00  0.00    -0.093 OA 
ENDROOT
BRANCH   2   3
HETATM    3  C   UNL     1      -7.386  15.786  68.097  1.00  0.00    -0.124 A  
HETATM    4  C   UNL     1      -7.260  17.107  68.561  1.00  0.00    -0.220 A  
HETATM    5  C   UNL     1      -8.237  18.063  68.289  1.00  0.00    -0.298 A  
HETATM    6  C   UNL     1      -9.352  17.714  67.537  1.00  0.00    -0.248 A  
HETATM    7  C   UNL     1      -9.473  16.416  67.043  1.00  0.00    -0.240 A  
HETATM    8  C   UNL     1      -8.494  15.444  67.298  1.00  0.00    -0.192 A  
BRANCH   8   9
HETATM    9  O   UNL     1      -8.790  14.243  66.704  1.00  0.00    -0.223 OA 
BRANCH   9  10
HETATM   10  C   UNL     1     -10.036  13.620  67.014  1.00  0.00    -0.248 C  
BRANCH  10  11
HETATM   11  C   UNL     1     -10.016  12.153  66.546  1.00  0.00    -0.213 C  
HETATM   12  H   UNL     1      -8.944  10.999  65.321  1.00  0.00     0.000 HD 
HETATM   13  O   UNL     1      -8.956  11.904  65.609  1.00  0.00    -0.059 OA 
BRANCH  11  14
HETATM   14  C   UNL     1      -9.838  11.189  67.748  1.00  0.00    -0.171 C  
BRANCH  14  15
HETATM   15  N   UNL     1     -10.934  10.218  67.939  1.00  0.00    -0.286 NA 
HETATM   16  C   UNL     1     -10.883   9.131  66.950  1.00  0.00     0.056 C  
HETATM   17  C   UNL     1      -9.637   8.248  67.126  1.00  0.00    -0.180 C  
HETATM   18  N   UNL     1      -9.561   7.558  68.434  1.00  0.00    -0.148 NA 
HETATM   19  C   UNL     1      -9.818   8.521  69.528  1.00  0.00    -0.187 C  
HETATM   20  C   UNL     1     -10.906   9.606  69.286  1.00  0.00    -0.205 C  
BRANCH  18  21
HETATM   21  C   UNL     1     -10.480   6.392  68.464  1.00  0.00    -0.224 C  
BRANCH  21  22
HETATM   22  C   UNL     1     -10.938   6.116  69.917  1.00  0.00    -0.389 C  
HETATM   23  N   UNL     1      -9.985   5.404  70.624  1.00  0.00    -0.200 N  
HETATM   24  O   UNL     1     -12.000   6.544  70.356  1.00  0.00    -0.397 OA 
HETATM   25  H   UNL     1      -9.124   5.184  70.123  1.00  0.00     0.000 HD 
BRANCH  23  26
HETATM   26  C   UNL     1     -10.065   4.948  71.950  1.00  0.00    -0.199 A  
HETATM   27  C   UNL     1     -10.239   5.807  73.055  1.00  0.00    -0.209 A  
HETATM   28  C   UNL     1     -10.345   5.244  74.339  1.00  0.00    -0.302 A  
HETATM   29  C   UNL     1     -10.383   7.301  72.959  1.00  0.00    -0.334 C  
HETATM   30  C   UNL     1     -10.329   3.865  74.524  1.00  0.00    -0.266 A  
HETATM   31  C   UNL     1     -10.198   3.020  73.429  1.00  0.00    -0.205 A  
HETATM   32  C   UNL     1     -10.066   3.546  72.136  1.00  0.00    -0.205 A  
HETATM   33  C   UNL     1      -9.848   2.598  70.986  1.00  0.00    -0.053 C  
ENDBRANCH  23  26
ENDBRANCH  21  22
ENDBRANCH  18  21
ENDBRANCH  14  15
ENDBRANCH  11  14
ENDBRANCH  10  11
ENDBRANCH   9  10
ENDBRANCH   8   9
ENDBRANCH   2   3
TORSDOF 9
ENDMDL
MODEL      250
REMARK 921   NORMALIZED FREE ENERGY PREDICTED BY IDOCK:   -3.35 KCAL/MOL
REMARK 922        TOTAL FREE ENERGY PREDICTED BY IDOCK:   -6.20 KCAL/MOL
REMARK 923 INTER-LIGAND FREE ENERGY PREDICTED BY IDOCK:   -4.87 KCAL/MOL
REMARK 924 INTRA-LIGAND FREE ENERGY PREDICTED BY IDOCK:   -1.33 KCAL/MOL
REMARK 927      BINDING AFFINITY PREDICTED BY RF-SCORE:    0.00 PKD
ROOT
HETATM    1  C   UNL     1      -5.942  13.973  70.751  1.00  0.00    -0.188 C  
HETATM    2  O   UNL     1      -5.373  12.694  70.486  1.00  0.00    -0.113 OA 
ENDROOT
BRANCH   2   3
HETATM    3  C   UNL     1      -5.931  11.985  69.455  1.00  0.00    -0.100 A  
HETATM    4  C   UNL     1      -5.730  12.368  68.117  1.00  0.00    -0.063 A  
HETATM    5  C   UNL     1      -6.309  11.654  67.069  1.00  0.00    -0.149 A  
HETATM    6  C   UNL     1      -7.090  10.538  67.344  1.00  0.00    -0.090 A  
HETATM    7  C   UNL     1      -7.270  10.129  68.664  1.00  0.00    -0.080 A  
HETATM    8  C   UNL     1      -6.686  10.829  69.731  1.00  0.00    -0.139 A  
BRANCH   8   9
HETATM    9  O   UNL     1      -6.964  10.250  70.943  1.00  0.00    -0.321 OA 
BRANCH   9  10
HETATM   10  C   UNL     1      -6.627   8.877  71.135  1.00  0.00    -0.077 C  
BRANCH  10  11
HETATM   11  C   UNL     1      -7.672   8.204  72.044  1.00  0.00    -0.108 C  
HETATM   12  H   UNL     1      -8.173   8.195  73.976  1.00  0.00     0.000 HD 
HETATM   13  O   UNL     1      -7.528   8.610  73.415  1.00  0.00    -0.357 OA 
BRANCH  11  14
HETATM   14  C   UNL     1      -9.112   8.548  71.584  1.00  0.00    -0.229 C  
BRANCH  14  15
HETATM   15  N   UNL     1      -9.948   7.385  71.223  1.00  0.00    -0.187 NA 
HETATM   16  C   UNL     1     -11.100   7.772  70.396  1.00  0.00    -0.251 C  
HETATM   17  C   UNL     1     -10.671   8.299  69.017  1.00  0.00    -0.079 C  
HETATM   18  N   UNL     1      -9.940   7.313  68.190  1.00  0.00    -0.153 NA 
HETATM   19  C   UNL     1      -8.870   6.678  68.989  1.00  0.00    -0.128 C  
HETATM   20  C   UNL     1      -9.181   6.360  70.480  1.00  0.00    -0.158 C  
BRANCH  18  21
HETATM   21  C   UNL     1     -10.881   6.327  67.599  1.00  0.00    -0.346 C  
BRANCH  21  22
HETATM   22  C   UNL     1     -10.091   5.216  66.864  1.00  0.00    -0.226 C  
HETATM   23  N   UNL     1      -9.569   5.671  65.666  1.00  0.00    -0.366 N  
HETATM   24  O   UNL     1      -9.932   4.102  67.351  1.00  0.00    -0.151 OA 
HETATM   25  H   UNL     1      -9.741   6.652  65.443  1.00  0.00     0.000 HD 
BRANCH  23  26
HETATM   26  C   UNL     1      -8.829   4.941  64.722  1.00  0.00    -0.147 A  
HETATM   27  C   UNL     1      -9.403   3.982  63.862  1.00  0.00    -0.151 A  
HETATM   28  C   UNL     1      -8.580   3.333  62.925  1.00  0.00    -0.088 A  
HETATM   29  C   UNL     1     -10.867   3.636  63.828  1.00  0.00    -0.213 C  
HETATM   30  C   UNL     1      -7.232   3.658  62.806  1.00  0.00    -0.048 A  
HETATM   31  C   UNL     1      -6.678   4.633  63.627  1.00  0.00    -0.042 A  
HETATM   32  C   UNL     1      -7.464   5.283  64.589  1.00  0.00    -0.069 A  
HETATM   33  C   UNL     1      -6.806   6.277  65.511  1.00  0.00    -0.052 C  
ENDBRANCH  23  26
ENDBRANCH  21  22
ENDBRANCH  18  21
ENDBRANCH  14  15
ENDBRANCH  11  14
ENDBRANCH  10  11
ENDBRANCH   9  10
ENDBRANCH   8   9
ENDBRANCH   2   3
TORSDOF 9
ENDMDL
MODEL      251
REMARK 921   NORMALIZED FREE ENERGY PREDICTED BY IDOCK:   -3.32 KCAL/MOL
REMARK 922        TOTAL FREE ENERGY PREDICTED BY IDOCK:   -6.17 KCAL/MOL
REMARK 923 INTER-LIGAND FREE ENERGY PREDICTED BY IDOCK:   -6.08 KCAL/MOL
REMARK 924 INTRA-LIGAND FREE ENERGY PREDICTED BY IDOCK:   -0.09 KCAL/MOL
REMARK 927      BINDING AFFINITY PREDICTED BY RF-SCORE:    0.00 PKD
ROOT
HETATM    1  C   UNL     1     -10.859   5.527  67.739  1.00  0.00     0.014 C  
HETATM    2  O   UNL     1     -10.522   5.500  69.123  1.00  0.00    -0.238 OA 
ENDROOT
BRANCH   2   3
HETATM    3  C   UNL     1     -11.055   6.499  69.894  1.00  0.00    -0.371 A  
HETATM    4  C   UNL     1     -11.640   6.221  71.143  1.00  0.00    -0.339 A  
HETATM    5  C   UNL     1     -12.194   7.236  71.921  1.00  0.00    -0.348 A  
HETATM    6  C   UNL     1     -12.160   8.549  71.467  1.00  0.00    -0.351 A  
HETATM    7  C   UNL     1     -11.554   8.842  70.247  1.00  0.00    -0.027 A  
HETATM    8  C   UNL     1     -10.982   7.835  69.456  1.00  0.00    -0.084 A  
BRANCH   8   9
HETATM    9  O   UNL     1     -10.418   8.336  68.309  1.00  0.00    -0.205 OA 
BRANCH   9  10
HETATM   10  C   UNL     1      -8.996   8.431  68.236  1.00  0.00    -0.139 C  
BRANCH  10  11
HETATM   11  C   UNL     1      -8.576   8.899  66.830  1.00  0.00    -0.115 C  
HETATM   12  H   UNL     1      -8.917   8.387  64.932  1.00  0.00     0.000 HD 
HETATM   13  O   UNL     1      -9.177   8.098  65.799  1.00  0.00    -0.139 OA 
BRANCH  11  14
HETATM   14  C   UNL     1      -8.978  10.377  66.593  1.00  0.00    -0.141 C  
BRANCH  14  15
HETATM   15  N   UNL     1      -8.362  11.348  67.520  1.00  0.00    -0.133 NA 
HETATM   16  C   UNL     1      -8.397  12.717  66.985  1.00  0.00    -0.120 C  
HETATM   17  C   UNL     1      -9.832  13.254  66.865  1.00  0.00    -0.247 C  
HETATM   18  N   UNL     1     -10.558  13.344  68.153  1.00  0.00    -0.238 NA 
HETATM   19  C   UNL     1     -10.413  12.078  68.904  1.00  0.00    -0.125 C  
HETATM   20  C   UNL     1      -9.034  11.360  68.839  1.00  0.00    -0.006 C  
BRANCH  18  21
HETATM   21  C   UNL     1     -10.103  14.528  68.926  1.00  0.00    -0.224 C  
BRANCH  21  22
HETATM   22  C   UNL     1     -10.800  15.805  68.396  1.00  0.00    -0.297 C  
HETATM   23  N   UNL     1      -9.884  16.712  67.891  1.00  0.00    -0.243 N  
HETATM   24  O   UNL     1     -12.021  15.928  68.398  1.00  0.00    -0.251 OA 
HETATM   25  H   UNL     1      -8.907  16.420  67.907  1.00  0.00     0.000 HD 
BRANCH  23  26
HETATM   26  C   UNL     1     -10.144  17.985  67.359  1.00  0.00    -0.349 A  
HETATM   27  C   UNL     1     -10.026  19.175  68.108  1.00  0.00    -0.468 A  
HETATM   28  C   UNL     1     -10.272  20.403  67.469  1.00  0.00    -0.421 A  
HETATM   29  C   UNL     1      -9.591  19.238  69.546  1.00  0.00     0.000 C  
HETATM   30  C   UNL     1     -10.579  20.460  66.113  1.00  0.00    -0.060 A  
HETATM   31  C   UNL     1     -10.654  19.289  65.369  1.00  0.00     0.036 A  
HETATM   32  C   UNL     1     -10.438  18.044  65.978  1.00  0.00    -0.317 A  
HETATM   33  C   UNL     1     -10.606  16.795  65.154  1.00  0.00    -0.134 C  
ENDBRANCH  23  26
ENDBRANCH  21  22
ENDBRANCH  18  21
ENDBRANCH  14  15
ENDBRANCH  11  14
ENDBRANCH  10  11
ENDBRANCH   9  10
ENDBRANCH   8   9
ENDBRANCH   2   3
TORSDOF 9
ENDMDL
MODEL      252
REMARK 921   NORMALIZED FREE ENERGY PREDICTED BY IDOCK:   -3.30 KCAL/MOL
REMARK 922        TOTAL FREE ENERGY PREDICTED BY IDOCK:   -6.13 KCAL/MOL
REMARK 923 INTER-LIGAND FREE ENERGY PREDICTED BY IDOCK:   -6.22 KCAL/MOL
REMARK 924 INTRA-LIGAND FREE ENERGY PREDICTED BY IDOCK:    0.09 KCAL/MOL
REMARK 927      BINDING AFFINITY PREDICTED BY RF-SCORE:    0.00 PKD
ROOT
HETATM    1  C   UNL     1     -12.197  15.725  71.690  1.00  0.00    -0.456 C  
HETATM    2  O   UNL     1     -12.321  14.315  71.522  1.00  0.00    -0.341 OA 
ENDROOT
BRANCH   2   3
HETATM    3  C   UNL     1     -12.040  13.828  70.273  1.00  0.00    -0.355 A  
HETATM    4  C   UNL     1     -11.882  14.692  69.174  1.00  0.00    -0.347 A  
HETATM    5  C   UNL     1     -11.609  14.195  67.901  1.00  0.00    -0.370 A  
HETATM    6  C   UNL     1     -11.479  12.825  67.709  1.00  0.00    -0.376 A  
HETATM    7  C   UNL     1     -11.601  11.961  68.796  1.00  0.00    -0.366 A  
HETATM    8  C   UNL     1     -11.864  12.444  70.086  1.00  0.00    -0.262 A  
BRANCH   8   9
HETATM    9  O   UNL     1     -11.922  11.435  71.015  1.00  0.00    -0.271 OA 
BRANCH   9  10
HETATM   10  C   UNL     1     -12.778  10.323  70.758  1.00  0.00    -0.346 C  
BRANCH  10  11
HETATM   11  C   UNL     1     -12.723   9.338  71.941  1.00  0.00    -0.394 C  
HETATM   12  H   UNL     1     -13.987   8.199  72.983  1.00  0.00     0.000 HD 
HETATM   13  O   UNL     1     -14.021   8.807  72.254  1.00  0.00    -0.430 OA 
BRANCH  11  14
HETATM   14  C   UNL     1     -11.774   8.151  71.632  1.00  0.00    -0.287 C  
BRANCH  14  15
HETATM   15  N   UNL     1     -10.334   8.480  71.655  1.00  0.00    -0.238 NA 
HETATM   16  C   UNL     1      -9.685   8.018  72.890  1.00  0.00    -0.283 C  
HETATM   17  C   UNL     1      -9.666   6.485  72.994  1.00  0.00    -0.155 C  
HETATM   18  N   UNL     1      -8.914   5.811  71.911  1.00  0.00    -0.139 NA 
HETATM   19  C   UNL     1      -9.326   6.354  70.598  1.00  0.00    -0.162 C  
HETATM   20  C   UNL     1      -9.610   7.882  70.511  1.00  0.00    -0.170 C  
BRANCH  18  21
HETATM   21  C   UNL     1      -7.452   5.917  72.146  1.00  0.00    -0.096 C  
BRANCH  21  22
HETATM   22  C   UNL     1      -6.691   4.970  71.185  1.00  0.00    -0.039 C  
HETATM   23  N   UNL     1      -7.301   4.907  69.944  1.00  0.00    -0.054 N  
HETATM   24  O   UNL     1      -5.651   4.409  71.514  1.00  0.00    -0.010 OA 
HETATM   25  H   UNL     1      -8.126   5.493  69.818  1.00  0.00     0.000 HD 
BRANCH  23  26
HETATM   26  C   UNL     1      -6.915   4.132  68.839  1.00  0.00    -0.047 A  
HETATM   27  C   UNL     1      -6.070   4.609  67.815  1.00  0.00    -0.031 A  
HETATM   28  C   UNL     1      -5.714   3.738  66.771  1.00  0.00    -0.022 A  
HETATM   29  C   UNL     1      -5.460   5.983  67.785  1.00  0.00    -0.005 C  
HETATM   30  C   UNL     1      -6.141   2.414  66.761  1.00  0.00    -0.024 A  
HETATM   31  C   UNL     1      -6.941   1.936  67.792  1.00  0.00    -0.039 A  
HETATM   32  C   UNL     1      -7.335   2.782  68.837  1.00  0.00    -0.048 A  
HETATM   33  C   UNL     1      -8.266   2.245  69.893  1.00  0.00    -0.063 C  
ENDBRANCH  23  26
ENDBRANCH  21  22
ENDBRANCH  18  21
ENDBRANCH  14  15
ENDBRANCH  11  14
ENDBRANCH  10  11
ENDBRANCH   9  10
ENDBRANCH   8   9
ENDBRANCH   2   3
TORSDOF 9
ENDMDL
MODEL      253
REMARK 921   NORMALIZED FREE ENERGY PREDICTED BY IDOCK:   -3.27 KCAL/MOL
REMARK 922        TOTAL FREE ENERGY PREDICTED BY IDOCK:   -6.09 KCAL/MOL
REMARK 923 INTER-LIGAND FREE ENERGY PREDICTED BY IDOCK:   -5.80 KCAL/MOL
REMARK 924 INTRA-LIGAND FREE ENERGY PREDICTED BY IDOCK:   -0.29 KCAL/MOL
REMARK 927      BINDING AFFINITY PREDICTED BY RF-SCORE:    0.00 PKD
ROOT
HETATM    1  C   UNL     1      -9.685   4.372  69.834  1.00  0.00    -0.221 C  
HETATM    2  O   UNL     1      -9.180   5.286  70.802  1.00  0.00    -0.145 OA 
ENDROOT
BRANCH   2   3
HETATM    3  C   UNL     1      -8.135   6.077  70.400  1.00  0.00    -0.111 A  
HETATM    4  C   UNL     1      -7.205   6.581  71.327  1.00  0.00    -0.079 A  
HETATM    5  C   UNL     1      -6.151   7.396  70.920  1.00  0.00    -0.035 A  
HETATM    6  C   UNL     1      -6.003   7.711  69.574  1.00  0.00    -0.030 A  
HETATM    7  C   UNL     1      -6.900   7.191  68.641  1.00  0.00    -0.076 A  
HETATM    8  C   UNL     1      -7.960   6.360  69.033  1.00  0.00    -0.111 A  
BRANCH   8   9
HETATM    9  O   UNL     1      -8.708   5.938  67.962  1.00  0.00    -0.112 OA 
BRANCH   9  10
HETATM   10  C   UNL     1      -8.799   6.787  66.819  1.00  0.00    -0.124 C  
BRANCH  10  11
HETATM   11  C   UNL     1     -10.165   7.499  66.806  1.00  0.00    -0.254 C  
HETATM   12  H   UNL     1     -11.965   7.272  67.636  1.00  0.00     0.000 HD 
HETATM   13  O   UNL     1     -11.123   6.833  67.644  1.00  0.00    -0.274 OA 
BRANCH  11  14
HETATM   14  C   UNL     1     -10.032   8.966  67.290  1.00  0.00    -0.216 C  
BRANCH  14  15
HETATM   15  N   UNL     1      -9.809   9.959  66.220  1.00  0.00    -0.228 NA 
HETATM   16  C   UNL     1     -10.453  11.246  66.522  1.00  0.00    -0.253 C  
HETATM   17  C   UNL     1      -9.818  11.938  67.739  1.00  0.00    -0.184 C  
HETATM   18  N   UNL     1      -8.386  12.275  67.569  1.00  0.00    -0.159 NA 
HETATM   19  C   UNL     1      -7.651  11.102  67.048  1.00  0.00    -0.135 C  
HETATM   20  C   UNL     1      -8.370  10.216  65.990  1.00  0.00    -0.130 C  
BRANCH  18  21
HETATM   21  C   UNL     1      -8.231  13.479  66.714  1.00  0.00     0.207 C  
BRANCH  21  22
HETATM   22  C   UNL     1      -8.396  14.760  67.568  1.00  0.00    -0.183 C  
HETATM   23  N   UNL     1      -8.905  15.807  66.821  1.00  0.00    -0.242 N  
HETATM   24  O   UNL     1      -8.143  14.777  68.768  1.00  0.00    -0.145 OA 
HETATM   25  H   UNL     1      -9.124  15.601  65.846  1.00  0.00     0.000 HD 
BRANCH  23  26
HETATM   26  C   UNL     1      -9.156  17.122  67.248  1.00  0.00    -0.222 A  
HETATM   27  C   UNL     1     -10.242  17.473  68.076  1.00  0.00    -0.354 A  
HETATM   28  C   UNL     1     -10.381  18.813  68.478  1.00  0.00    -0.312 A  
HETATM   29  C   UNL     1     -11.248  16.497  68.622  1.00  0.00    -0.297 C  
HETATM   30  C   UNL     1      -9.444  19.775  68.111  1.00  0.00    -0.454 A  
HETATM   31  C   UNL     1      -8.353  19.417  67.329  1.00  0.00    -0.324 A  
HETATM   32  C   UNL     1      -8.195  18.095  66.890  1.00  0.00    -0.258 A  
HETATM   33  C   UNL     1      -7.041  17.766  65.980  1.00  0.00    -0.335 C  
ENDBRANCH  23  26
ENDBRANCH  21  22
ENDBRANCH  18  21
ENDBRANCH  14  15
ENDBRANCH  11  14
ENDBRANCH  10  11
ENDBRANCH   9  10
ENDBRANCH   8   9
ENDBRANCH   2   3
TORSDOF 9
ENDMDL
MODEL      254
REMARK 921   NORMALIZED FREE ENERGY PREDICTED BY IDOCK:   -3.23 KCAL/MOL
REMARK 922        TOTAL FREE ENERGY PREDICTED BY IDOCK:   -6.02 KCAL/MOL
REMARK 923 INTER-LIGAND FREE ENERGY PREDICTED BY IDOCK:   -5.43 KCAL/MOL
REMARK 924 INTRA-LIGAND FREE ENERGY PREDICTED BY IDOCK:   -0.59 KCAL/MOL
REMARK 927      BINDING AFFINITY PREDICTED BY RF-SCORE:    0.00 PKD
ROOT
HETATM    1  C   UNL     1      -9.369   5.232  69.903  1.00  0.00    -0.141 C  
HETATM    2  O   UNL     1      -9.730   5.727  68.617  1.00  0.00    -0.122 OA 
ENDROOT
BRANCH   2   3
HETATM    3  C   UNL     1      -9.235   5.036  67.543  1.00  0.00    -0.120 A  
HETATM    4  C   UNL     1      -9.292   3.632  67.491  1.00  0.00    -0.244 A  
HETATM    5  C   UNL     1      -8.776   2.929  66.404  1.00  0.00    -0.135 A  
HETATM    6  C   UNL     1      -8.205   3.622  65.343  1.00  0.00    -0.097 A  
HETATM    7  C   UNL     1      -8.172   5.016  65.367  1.00  0.00    -0.120 A  
HETATM    8  C   UNL     1      -8.696   5.739  66.449  1.00  0.00    -0.128 A  
BRANCH   8   9
HETATM    9  O   UNL     1      -8.587   7.095  66.265  1.00  0.00    -0.127 OA 
BRANCH   9  10
HETATM   10  C   UNL     1      -7.311   7.706  66.451  1.00  0.00    -0.079 C  
BRANCH  10  11
HETATM   11  C   UNL     1      -6.996   8.631  65.260  1.00  0.00    -0.075 C  
HETATM   12  H   UNL     1      -7.408   8.733  63.310  1.00  0.00     0.000 HD 
HETATM   13  O   UNL     1      -7.602   8.162  64.044  1.00  0.00    -0.113 OA 
BRANCH  11  14
HETATM   14  C   UNL     1      -7.498  10.073  65.529  1.00  0.00    -0.137 C  
BRANCH  14  15
HETATM   15  N   UNL     1      -8.427  10.209  66.669  1.00  0.00    -0.126 NA 
HETATM   16  C   UNL     1      -7.752  10.732  67.867  1.00  0.00    -0.100 C  
HETATM   17  C   UNL     1      -7.269  12.178  67.673  1.00  0.00    -0.123 C  
HETATM   18  N   UNL     1      -8.353  13.151  67.407  1.00  0.00    -0.180 NA 
HETATM   19  C   UNL     1      -9.248  12.633  66.350  1.00  0.00    -0.160 C  
HETATM   20  C   UNL     1      -9.560  11.108  66.359  1.00  0.00    -0.200 C  
BRANCH  18  21
HETATM   21  C   UNL     1      -9.074  13.485  68.661  1.00  0.00    -0.008 C  
BRANCH  21  22
HETATM   22  C   UNL     1      -9.284  15.016  68.760  1.00  0.00    -0.200 C  
HETATM   23  N   UNL     1      -8.711  15.678  67.688  1.00  0.00    -0.172 N  
HETATM   24  O   UNL     1      -9.934  15.526  69.667  1.00  0.00    -0.262 OA 
HETATM   25  H   UNL     1      -8.263  15.091  66.984  1.00  0.00     0.000 HD 
BRANCH  23  26
HETATM   26  C   UNL     1      -8.672  17.063  67.458  1.00  0.00    -0.210 A  
HETATM   27  C   UNL     1      -9.579  17.732  66.609  1.00  0.00    -0.311 A  
HETATM   28  C   UNL     1      -9.478  19.128  66.477  1.00  0.00    -0.395 A  
HETATM   29  C   UNL     1     -10.704  17.064  65.868  1.00  0.00    -0.140 C  
HETATM   30  C   UNL     1      -8.537  19.853  67.202  1.00  0.00    -0.384 A  
HETATM   31  C   UNL     1      -7.672  19.195  68.068  1.00  0.00    -0.318 A  
HETATM   32  C   UNL     1      -7.728  17.801  68.207  1.00  0.00    -0.266 A  
HETATM   33  C   UNL     1      -6.721  17.120  69.097  1.00  0.00    -0.238 C  
ENDBRANCH  23  26
ENDBRANCH  21  22
ENDBRANCH  18  21
ENDBRANCH  14  15
ENDBRANCH  11  14
ENDBRANCH  10  11
ENDBRANCH   9  10
ENDBRANCH   8   9
ENDBRANCH   2   3
TORSDOF 9
ENDMDL
MODEL      255
REMARK 921   NORMALIZED FREE ENERGY PREDICTED BY IDOCK:   -3.21 KCAL/MOL
REMARK 922        TOTAL FREE ENERGY PREDICTED BY IDOCK:   -6.00 KCAL/MOL
REMARK 923 INTER-LIGAND FREE ENERGY PREDICTED BY IDOCK:   -5.17 KCAL/MOL
REMARK 924 INTRA-LIGAND FREE ENERGY PREDICTED BY IDOCK:   -0.83 KCAL/MOL
REMARK 927      BINDING AFFINITY PREDICTED BY RF-SCORE:    0.00 PKD
ROOT
HETATM    1  C   UNL     1     -13.902  10.675  71.759  1.00  0.00     0.279 C  
HETATM    2  O   UNL     1     -12.686  11.415  71.832  1.00  0.00    -0.323 OA 
ENDROOT
BRANCH   2   3
HETATM    3  C   UNL     1     -12.064  11.675  70.640  1.00  0.00    -0.335 A  
HETATM    4  C   UNL     1     -12.154  12.940  70.032  1.00  0.00    -0.357 A  
HETATM    5  C   UNL     1     -11.531  13.200  68.813  1.00  0.00    -0.348 A  
HETATM    6  C   UNL     1     -10.797  12.200  68.187  1.00  0.00    -0.256 A  
HETATM    7  C   UNL     1     -10.673  10.951  68.795  1.00  0.00    -0.243 A  
HETATM    8  C   UNL     1     -11.284  10.676  70.028  1.00  0.00    -0.309 A  
BRANCH   8   9
HETATM    9  O   UNL     1     -11.018   9.402  70.462  1.00  0.00    -0.235 OA 
BRANCH   9  10
HETATM   10  C   UNL     1     -10.003   9.217  71.448  1.00  0.00    -0.303 C  
BRANCH  10  11
HETATM   11  C   UNL     1     -10.123   7.810  72.063  1.00  0.00    -0.191 C  
HETATM   12  H   UNL     1     -10.891   6.965  73.699  1.00  0.00     0.000 HD 
HETATM   13  O   UNL     1     -10.818   7.833  73.320  1.00  0.00    -0.383 OA 
BRANCH  11  14
HETATM   14  C   UNL     1     -10.877   6.849  71.108  1.00  0.00    -0.240 C  
BRANCH  14  15
HETATM   15  N   UNL     1     -10.209   5.553  70.869  1.00  0.00    -0.215 NA 
HETATM   16  C   UNL     1     -10.383   5.093  69.483  1.00  0.00    -0.222 C  
HETATM   17  C   UNL     1      -9.674   6.011  68.476  1.00  0.00    -0.123 C  
HETATM   18  N   UNL     1      -8.206   6.090  68.654  1.00  0.00    -0.106 NA 
HETATM   19  C   UNL     1      -7.883   6.337  70.076  1.00  0.00    -0.106 C  
HETATM   20  C   UNL     1      -8.756   5.618  71.145  1.00  0.00    -0.135 C  
BRANCH  18  21
HETATM   21  C   UNL     1      -7.548   4.872  68.116  1.00  0.00    -0.082 C  
BRANCH  21  22
HETATM   22  C   UNL     1      -7.848   4.733  66.603  1.00  0.00    -0.099 C  
HETATM   23  N   UNL     1      -8.149   3.426  66.263  1.00  0.00    -0.091 N  
HETATM   24  O   UNL     1      -7.856   5.702  65.851  1.00  0.00    -0.097 OA 
HETATM   25  H   UNL     1      -8.162   2.753  67.029  1.00  0.00     0.000 HD 
BRANCH  23  26
HETATM   26  C   UNL     1      -8.440   2.919  64.986  1.00  0.00    -0.098 A  
HETATM   27  C   UNL     1      -9.647   3.181  64.305  1.00  0.00    -0.150 A  
HETATM   28  C   UNL     1      -9.823   2.656  63.013  1.00  0.00    -0.096 A  
HETATM   29  C   UNL     1     -10.757   4.044  64.839  1.00  0.00    -0.108 C  
HETATM   30  C   UNL     1      -8.813   1.930  62.387  1.00  0.00    -0.073 A  
HETATM   31  C   UNL     1      -7.609   1.708  63.045  1.00  0.00    -0.050 A  
HETATM   32  C   UNL     1      -7.408   2.197  64.344  1.00  0.00    -0.058 A  
HETATM   33  C   UNL     1      -6.119   1.867  65.051  1.00  0.00    -0.018 C  
ENDBRANCH  23  26
ENDBRANCH  21  22
ENDBRANCH  18  21
ENDBRANCH  14  15
ENDBRANCH  11  14
ENDBRANCH  10  11
ENDBRANCH   9  10
ENDBRANCH   8   9
ENDBRANCH   2   3
TORSDOF 9
ENDMDL
MODEL      256
REMARK 921   NORMALIZED FREE ENERGY PREDICTED BY IDOCK:   -3.20 KCAL/MOL
REMARK 922        TOTAL FREE ENERGY PREDICTED BY IDOCK:   -5.98 KCAL/MOL
REMARK 923 INTER-LIGAND FREE ENERGY PREDICTED BY IDOCK:   -5.38 KCAL/MOL
REMARK 924 INTRA-LIGAND FREE ENERGY PREDICTED BY IDOCK:   -0.60 KCAL/MOL
REMARK 927      BINDING AFFINITY PREDICTED BY RF-SCORE:    0.00 PKD
ROOT
HETATM    1  C   UNL     1      -9.129   4.618  68.965  1.00  0.00    -0.118 C  
HETATM    2  O   UNL     1      -9.796   4.796  67.719  1.00  0.00    -0.159 OA 
ENDROOT
BRANCH   2   3
HETATM    3  C   UNL     1      -9.294   4.090  66.658  1.00  0.00    -0.184 A  
HETATM    4  C   UNL     1      -9.350   2.684  66.627  1.00  0.00    -0.026 A  
HETATM    5  C   UNL     1      -8.828   1.966  65.553  1.00  0.00    -0.121 A  
HETATM    6  C   UNL     1      -8.250   2.644  64.486  1.00  0.00    -0.086 A  
HETATM    7  C   UNL     1      -8.218   4.038  64.490  1.00  0.00    -0.094 A  
HETATM    8  C   UNL     1      -8.749   4.777  65.557  1.00  0.00    -0.135 A  
BRANCH   8   9
HETATM    9  O   UNL     1      -8.639   6.130  65.354  1.00  0.00    -0.149 OA 
BRANCH   9  10
HETATM   10  C   UNL     1      -7.542   6.614  64.580  1.00  0.00    -0.105 C  
BRANCH  10  11
HETATM   11  C   UNL     1      -7.763   8.099  64.235  1.00  0.00    -0.128 C  
HETATM   12  H   UNL     1      -9.005   9.196  63.125  1.00  0.00     0.000 HD 
HETATM   13  O   UNL     1      -8.869   8.281  63.337  1.00  0.00     0.208 OA 
BRANCH  11  14
HETATM   14  C   UNL     1      -8.033   8.933  65.515  1.00  0.00    -0.107 C  
BRANCH  14  15
HETATM   15  N   UNL     1      -9.393   9.500  65.615  1.00  0.00    -0.222 NA 
HETATM   16  C   UNL     1     -10.140   8.938  66.750  1.00  0.00    -0.280 C  
HETATM   17  C   UNL     1      -9.526   9.338  68.101  1.00  0.00    -0.138 C  
HETATM   18  N   UNL     1      -9.513  10.796  68.355  1.00  0.00    -0.166 NA 
HETATM   19  C   UNL     1      -8.976  11.510  67.176  1.00  0.00    -0.166 C  
HETATM   20  C   UNL     1      -9.372  10.971  65.771  1.00  0.00    -0.211 C  
BRANCH  18  21
HETATM   21  C   UNL     1     -10.864  11.269  68.749  1.00  0.00    -0.208 C  
BRANCH  21  22
HETATM   22  C   UNL     1     -11.037  12.759  68.366  1.00  0.00    -0.262 C  
HETATM   23  N   UNL     1     -10.098  13.558  68.995  1.00  0.00    -0.427 N  
HETATM   24  O   UNL     1     -11.883  13.129  67.558  1.00  0.00    -0.355 OA 
HETATM   25  H   UNL     1      -9.421  13.076  69.586  1.00  0.00     0.000 HD 
BRANCH  23  26
HETATM   26  C   UNL     1      -9.968  14.954  68.913  1.00  0.00    -0.233 A  
HETATM   27  C   UNL     1      -9.231  15.605  67.902  1.00  0.00    -0.190 A  
HETATM   28  C   UNL     1      -9.196  17.011  67.889  1.00  0.00    -0.239 A  
HETATM   29  C   UNL     1      -8.517  14.903  66.781  1.00  0.00    -0.215 C  
HETATM   30  C   UNL     1      -9.910  17.757  68.822  1.00  0.00    -0.343 A  
HETATM   31  C   UNL     1     -10.668  17.112  69.792  1.00  0.00     0.153 A  
HETATM   32  C   UNL     1     -10.707  15.712  69.850  1.00  0.00    -0.328 A  
HETATM   33  C   UNL     1     -11.477  15.053  70.965  1.00  0.00    -0.344 C  
ENDBRANCH  23  26
ENDBRANCH  21  22
ENDBRANCH  18  21
ENDBRANCH  14  15
ENDBRANCH  11  14
ENDBRANCH  10  11
ENDBRANCH   9  10
ENDBRANCH   8   9
ENDBRANCH   2   3
TORSDOF 9
ENDMDL
MODEL      257
REMARK 921   NORMALIZED FREE ENERGY PREDICTED BY IDOCK:   -3.16 KCAL/MOL
REMARK 922        TOTAL FREE ENERGY PREDICTED BY IDOCK:   -5.92 KCAL/MOL
REMARK 923 INTER-LIGAND FREE ENERGY PREDICTED BY IDOCK:   -5.27 KCAL/MOL
REMARK 924 INTRA-LIGAND FREE ENERGY PREDICTED BY IDOCK:   -0.65 KCAL/MOL
REMARK 927      BINDING AFFINITY PREDICTED BY RF-SCORE:    0.00 PKD
ROOT
HETATM    1  C   UNL     1      -6.461  20.387  69.942  1.00  0.00    -0.138 C  
HETATM    2  O   UNL     1      -7.039  19.226  69.354  1.00  0.00    -0.319 OA 
ENDROOT
BRANCH   2   3
HETATM    3  C   UNL     1      -8.208  19.414  68.665  1.00  0.00    -0.364 A  
HETATM    4  C   UNL     1      -9.355  19.921  69.304  1.00  0.00     0.037 A  
HETATM    5  C   UNL     1     -10.548  20.100  68.606  1.00  0.00    -0.031 A  
HETATM    6  C   UNL     1     -10.609  19.786  67.253  1.00  0.00    -0.565 A  
HETATM    7  C   UNL     1      -9.470  19.315  66.602  1.00  0.00    -0.398 A  
HETATM    8  C   UNL     1      -8.258  19.139  67.286  1.00  0.00    -0.276 A  
BRANCH   8   9
HETATM    9  O   UNL     1      -7.259  18.691  66.459  1.00  0.00    -0.210 OA 
BRANCH   9  10
HETATM   10  C   UNL     1      -7.391  17.397  65.871  1.00  0.00    -0.101 C  
BRANCH  10  11
HETATM   11  C   UNL     1      -6.511  16.386  66.630  1.00  0.00     0.122 C  
HETATM   12  H   UNL     1      -4.591  16.172  67.132  1.00  0.00     0.000 HD 
HETATM   13  O   UNL     1      -5.134  16.796  66.664  1.00  0.00    -0.316 OA 
BRANCH  11  14
HETATM   14  C   UNL     1      -7.001  16.211  68.091  1.00  0.00    -0.128 C  
BRANCH  14  15
HETATM   15  N   UNL     1      -6.974  14.823  68.596  1.00  0.00    -0.104 NA 
HETATM   16  C   UNL     1      -8.089  14.552  69.516  1.00  0.00     0.188 C  
HETATM   17  C   UNL     1      -9.451  14.609  68.807  1.00  0.00    -0.199 C  
HETATM   18  N   UNL     1      -9.616  13.611  67.726  1.00  0.00    -0.217 NA 
HETATM   19  C   UNL     1      -8.434  13.630  66.837  1.00  0.00    -0.054 C  
HETATM   20  C   UNL     1      -7.041  13.831  67.500  1.00  0.00    -0.157 C  
BRANCH  18  21
HETATM   21  C   UNL     1      -9.888  12.266  68.295  1.00  0.00    -0.217 C  
BRANCH  21  22
HETATM   22  C   UNL     1      -9.833  11.197  67.176  1.00  0.00    -0.187 C  
HETATM   23  N   UNL     1      -8.815  10.286  67.393  1.00  0.00    -0.132 N  
HETATM   24  O   UNL     1     -10.648  11.173  66.260  1.00  0.00    -0.253 OA 
HETATM   25  H   UNL     1      -8.269  10.415  68.245  1.00  0.00     0.000 HD 
BRANCH  23  26
HETATM   26  C   UNL     1      -8.444   9.204  66.577  1.00  0.00    -0.123 A  
HETATM   27  C   UNL     1      -9.199   8.016  66.478  1.00  0.00    -0.236 A  
HETATM   28  C   UNL     1      -8.760   7.008  65.601  1.00  0.00    -0.082 A  
HETATM   29  C   UNL     1     -10.492   7.764  67.203  1.00  0.00    -0.413 C  
HETATM   30  C   UNL     1      -7.632   7.186  64.807  1.00  0.00    -0.105 A  
HETATM   31  C   UNL     1      -6.914   8.374  64.878  1.00  0.00    -0.075 A  
HETATM   32  C   UNL     1      -7.308   9.392  65.757  1.00  0.00    -0.095 A  
HETATM   33  C   UNL     1      -6.458  10.631  65.860  1.00  0.00    -0.121 C  
ENDBRANCH  23  26
ENDBRANCH  21  22
ENDBRANCH  18  21
ENDBRANCH  14  15
ENDBRANCH  11  14
ENDBRANCH  10  11
ENDBRANCH   9  10
ENDBRANCH   8   9
ENDBRANCH   2   3
TORSDOF 9
ENDMDL
MODEL      258
REMARK 921   NORMALIZED FREE ENERGY PREDICTED BY IDOCK:   -3.15 KCAL/MOL
REMARK 922        TOTAL FREE ENERGY PREDICTED BY IDOCK:   -5.90 KCAL/MOL
REMARK 923 INTER-LIGAND FREE ENERGY PREDICTED BY IDOCK:   -4.86 KCAL/MOL
REMARK 924 INTRA-LIGAND FREE ENERGY PREDICTED BY IDOCK:   -1.04 KCAL/MOL
REMARK 927      BINDING AFFINITY PREDICTED BY RF-SCORE:    0.00 PKD
ROOT
HETATM    1  C   UNL     1      -9.495   5.105  65.226  1.00  0.00     0.007 C  
HETATM    2  O   UNL     1      -8.481   5.318  66.204  1.00  0.00    -0.113 OA 
ENDROOT
BRANCH   2   3
HETATM    3  C   UNL     1      -8.015   4.201  66.846  1.00  0.00    -0.097 A  
HETATM    4  C   UNL     1      -6.941   3.457  66.325  1.00  0.00    -0.058 A  
HETATM    5  C   UNL     1      -6.477   2.313  66.972  1.00  0.00    -0.031 A  
HETATM    6  C   UNL     1      -7.072   1.902  68.158  1.00  0.00    -0.043 A  
HETATM    7  C   UNL     1      -8.116   2.649  68.702  1.00  0.00    -0.066 A  
HETATM    8  C   UNL     1      -8.589   3.809  68.070  1.00  0.00    -0.097 A  
BRANCH   8   9
HETATM    9  O   UNL     1      -9.600   4.408  68.780  1.00  0.00    -0.152 OA 
BRANCH   9  10
HETATM   10  C   UNL     1      -9.773   4.050  70.150  1.00  0.00    -0.195 C  
BRANCH  10  11
HETATM   11  C   UNL     1      -9.972   5.320  71.000  1.00  0.00    -0.201 C  
HETATM   12  H   UNL     1      -9.371   6.035  72.763  1.00  0.00     0.000 HD 
HETATM   13  O   UNL     1      -9.248   5.252  72.239  1.00  0.00    -0.138 OA 
BRANCH  11  14
HETATM   14  C   UNL     1      -9.502   6.582  70.231  1.00  0.00    -0.162 C  
BRANCH  14  15
HETATM   15  N   UNL     1     -10.478   7.690  70.194  1.00  0.00    -0.222 NA 
HETATM   16  C   UNL     1      -9.987   8.879  70.906  1.00  0.00    -0.242 C  
HETATM   17  C   UNL     1      -8.765   9.504  70.214  1.00  0.00    -0.235 C  
HETATM   18  N   UNL     1      -9.025   9.982  68.837  1.00  0.00    -0.143 NA 
HETATM   19  C   UNL     1      -9.728   8.936  68.064  1.00  0.00    -0.156 C  
HETATM   20  C   UNL     1     -10.805   8.096  68.808  1.00  0.00     0.063 C  
BRANCH  18  21
HETATM   21  C   UNL     1      -9.759  11.272  68.863  1.00  0.00    -0.127 C  
BRANCH  21  22
HETATM   22  C   UNL     1      -9.023  12.318  67.990  1.00  0.00    -0.190 C  
HETATM   23  N   UNL     1      -9.346  13.611  68.365  1.00  0.00    -0.254 N  
HETATM   24  O   UNL     1      -8.221  11.991  67.121  1.00  0.00    -0.168 OA 
HETATM   25  H   UNL     1      -9.982  13.705  69.157  1.00  0.00     0.000 HD 
BRANCH  23  26
HETATM   26  C   UNL     1      -8.899  14.808  67.783  1.00  0.00    -0.175 A  
HETATM   27  C   UNL     1      -9.496  15.384  66.642  1.00  0.00    -0.281 A  
HETATM   28  C   UNL     1      -8.996  16.607  66.161  1.00  0.00    -0.321 A  
HETATM   29  C   UNL     1     -10.686  14.812  65.922  1.00  0.00    -0.320 C  
HETATM   30  C   UNL     1      -7.964  17.271  66.817  1.00  0.00    -0.276 A  
HETATM   31  C   UNL     1      -7.406  16.721  67.965  1.00  0.00    -0.167 A  
HETATM   32  C   UNL     1      -7.863  15.491  68.460  1.00  0.00    -0.135 A  
HETATM   33  C   UNL     1      -7.178  14.893  69.661  1.00  0.00    -0.166 C  
ENDBRANCH  23  26
ENDBRANCH  21  22
ENDBRANCH  18  21
ENDBRANCH  14  15
ENDBRANCH  11  14
ENDBRANCH  10  11
ENDBRANCH   9  10
ENDBRANCH   8   9
ENDBRANCH   2   3
TORSDOF 9
ENDMDL
MODEL      259
REMARK 921   NORMALIZED FREE ENERGY PREDICTED BY IDOCK:   -3.15 KCAL/MOL
REMARK 922        TOTAL FREE ENERGY PREDICTED BY IDOCK:   -5.90 KCAL/MOL
REMARK 923 INTER-LIGAND FREE ENERGY PREDICTED BY IDOCK:   -5.48 KCAL/MOL
REMARK 924 INTRA-LIGAND FREE ENERGY PREDICTED BY IDOCK:   -0.42 KCAL/MOL
REMARK 927      BINDING AFFINITY PREDICTED BY RF-SCORE:    0.00 PKD
ROOT
HETATM    1  C   UNL     1     -12.326  13.648  63.834  1.00  0.00    -0.316 C  
HETATM    2  O   UNL     1     -10.935  13.539  64.120  1.00  0.00    -0.367 OA 
ENDROOT
BRANCH   2   3
HETATM    3  C   UNL     1     -10.420  12.270  64.144  1.00  0.00    -0.375 A  
HETATM    4  C   UNL     1      -9.725  11.746  63.039  1.00  0.00    -0.238 A  
HETATM    5  C   UNL     1      -9.213  10.450  63.059  1.00  0.00    -0.312 A  
HETATM    6  C   UNL     1      -9.377   9.661  64.191  1.00  0.00    -0.148 A  
HETATM    7  C   UNL     1     -10.034  10.181  65.305  1.00  0.00    -0.381 A  
HETATM    8  C   UNL     1     -10.547  11.487  65.307  1.00  0.00    -0.283 A  
BRANCH   8   9
HETATM    9  O   UNL     1     -11.133  11.811  66.504  1.00  0.00    -0.286 OA 
BRANCH   9  10
HETATM   10  C   UNL     1     -10.310  12.336  67.545  1.00  0.00    -0.203 C  
BRANCH  10  11
HETATM   11  C   UNL     1     -10.397  11.430  68.788  1.00  0.00    -0.204 C  
HETATM   12  H   UNL     1     -11.624  10.042  69.529  1.00  0.00     0.000 HD 
HETATM   13  O   UNL     1     -11.570  10.600  68.762  1.00  0.00    -0.276 OA 
BRANCH  11  14
HETATM   14  C   UNL     1      -9.153  10.510  68.893  1.00  0.00    -0.177 C  
BRANCH  14  15
HETATM   15  N   UNL     1      -9.105   9.660  70.100  1.00  0.00    -0.237 NA 
HETATM   16  C   UNL     1      -9.547   8.286  69.821  1.00  0.00    -0.171 C  
HETATM   17  C   UNL     1      -8.586   7.551  68.873  1.00  0.00    -0.129 C  
HETATM   18  N   UNL     1      -7.211   7.395  69.401  1.00  0.00    -0.081 NA 
HETATM   19  C   UNL     1      -6.723   8.689  69.925  1.00  0.00    -0.042 C  
HETATM   20  C   UNL     1      -7.744   9.590  70.677  1.00  0.00    -0.124 C  
BRANCH  18  21
HETATM   21  C   UNL     1      -7.160   6.308  70.411  1.00  0.00    -0.071 C  
BRANCH  21  22
HETATM   22  C   UNL     1      -7.110   4.931  69.704  1.00  0.00    -0.055 C  
HETATM   23  N   UNL     1      -8.081   4.828  68.722  1.00  0.00    -0.083 N  
HETATM   24  O   UNL     1      -6.262   4.089  69.979  1.00  0.00    -0.025 OA 
HETATM   25  H   UNL     1      -8.664   5.652  68.578  1.00  0.00     0.000 HD 
BRANCH  23  26
HETATM   26  C   UNL     1      -8.356   3.722  67.902  1.00  0.00    -0.092 A  
HETATM   27  C   UNL     1      -8.967   2.541  68.374  1.00  0.00    -0.183 A  
HETATM   28  C   UNL     1      -9.234   1.505  67.462  1.00  0.00    -0.144 A  
HETATM   29  C   UNL     1      -9.419   2.324  69.792  1.00  0.00    -0.115 C  
HETATM   30  C   UNL     1      -8.949   1.649  66.107  1.00  0.00    -0.090 A  
HETATM   31  C   UNL     1      -8.384   2.829  65.639  1.00  0.00    -0.093 A  
HETATM   32  C   UNL     1      -8.082   3.874  66.524  1.00  0.00    -0.097 A  
HETATM   33  C   UNL     1      -7.399   5.105  65.987  1.00  0.00    -0.081 C  
ENDBRANCH  23  26
ENDBRANCH  21  22
ENDBRANCH  18  21
ENDBRANCH  14  15
ENDBRANCH  11  14
ENDBRANCH  10  11
ENDBRANCH   9  10
ENDBRANCH   8   9
ENDBRANCH   2   3
TORSDOF 9
ENDMDL
MODEL      260
REMARK 921   NORMALIZED FREE ENERGY PREDICTED BY IDOCK:   -3.13 KCAL/MOL
REMARK 922        TOTAL FREE ENERGY PREDICTED BY IDOCK:   -5.87 KCAL/MOL
REMARK 923 INTER-LIGAND FREE ENERGY PREDICTED BY IDOCK:   -4.58 KCAL/MOL
REMARK 924 INTRA-LIGAND FREE ENERGY PREDICTED BY IDOCK:   -1.29 KCAL/MOL
REMARK 927      BINDING AFFINITY PREDICTED BY RF-SCORE:    0.00 PKD
ROOT
HETATM    1  C   UNL     1      -7.240   8.166  62.350  1.00  0.00    -0.095 C  
HETATM    2  O   UNL     1      -6.763   7.970  63.678  1.00  0.00    -0.072 OA 
ENDROOT
BRANCH   2   3
HETATM    3  C   UNL     1      -7.708   7.986  64.669  1.00  0.00    -0.126 A  
HETATM    4  C   UNL     1      -8.602   9.064  64.806  1.00  0.00    -0.201 A  
HETATM    5  C   UNL     1      -9.554   9.085  65.823  1.00  0.00    -0.287 A  
HETATM    6  C   UNL     1      -9.637   8.020  66.713  1.00  0.00    -0.281 A  
HETATM    7  C   UNL     1      -8.779   6.931  66.568  1.00  0.00    -0.137 A  
HETATM    8  C   UNL     1      -7.821   6.889  65.543  1.00  0.00    -0.112 A  
BRANCH   8   9
HETATM    9  O   UNL     1      -7.097   5.723  65.562  1.00  0.00    -0.066 OA 
BRANCH   9  10
HETATM   10  C   UNL     1      -7.129   4.884  64.407  1.00  0.00    -0.050 C  
BRANCH  10  11
HETATM   11  C   UNL     1      -7.918   3.599  64.717  1.00  0.00    -0.090 C  
HETATM   12  H   UNL     1      -8.975   2.230  63.722  1.00  0.00     0.000 HD 
HETATM   13  O   UNL     1      -8.488   3.023  63.531  1.00  0.00    -0.085 OA 
BRANCH  11  14
HETATM   14  C   UNL     1      -7.009   2.535  65.385  1.00  0.00    -0.052 C  
BRANCH  14  15
HETATM   15  N   UNL     1      -7.657   1.731  66.440  1.00  0.00    -0.061 NA 
HETATM   16  C   UNL     1      -6.835   1.656  67.657  1.00  0.00    -0.035 C  
HETATM   17  C   UNL     1      -6.687   3.024  68.341  1.00  0.00    -0.040 C  
HETATM   18  N   UNL     1      -7.965   3.617  68.798  1.00  0.00    -0.058 NA 
HETATM   19  C   UNL     1      -8.968   3.553  67.712  1.00  0.00    -0.140 C  
HETATM   20  C   UNL     1      -8.979   2.277  66.821  1.00  0.00    -0.119 C  
BRANCH  18  21
HETATM   21  C   UNL     1      -8.427   2.961  70.048  1.00  0.00    -0.050 C  
BRANCH  21  22
HETATM   22  C   UNL     1      -9.074   4.009  70.987  1.00  0.00    -0.116 C  
HETATM   23  N   UNL     1      -8.927   5.293  70.493  1.00  0.00    -0.134 N  
HETATM   24  O   UNL     1      -9.677   3.685  72.005  1.00  0.00    -0.148 OA 
HETATM   25  H   UNL     1      -8.454   5.379  69.594  1.00  0.00     0.000 HD 
BRANCH  23  26
HETATM   26  C   UNL     1      -9.355   6.493  71.086  1.00  0.00    -0.163 A  
HETATM   27  C   UNL     1      -8.620   7.168  72.084  1.00  0.00    -0.120 A  
HETATM   28  C   UNL     1      -9.118   8.383  72.585  1.00  0.00    -0.311 A  
HETATM   29  C   UNL     1      -7.291   6.711  72.620  1.00  0.00    -0.088 C  
HETATM   30  C   UNL     1     -10.288   8.944  72.080  1.00  0.00    -0.378 A  
HETATM   31  C   UNL     1     -10.987   8.297  71.068  1.00  0.00    -0.280 A  
HETATM   32  C   UNL     1     -10.533   7.072  70.561  1.00  0.00    -0.227 A  
HETATM   33  C   UNL     1     -11.362   6.365  69.521  1.00  0.00    -0.460 C  
ENDBRANCH  23  26
ENDBRANCH  21  22
ENDBRANCH  18  21
ENDBRANCH  14  15
ENDBRANCH  11  14
ENDBRANCH  10  11
ENDBRANCH   9  10
ENDBRANCH   8   9
ENDBRANCH   2   3
TORSDOF 9
ENDMDL
MODEL      261
REMARK 921   NORMALIZED FREE ENERGY PREDICTED BY IDOCK:   -3.12 KCAL/MOL
REMARK 922        TOTAL FREE ENERGY PREDICTED BY IDOCK:   -5.86 KCAL/MOL
REMARK 923 INTER-LIGAND FREE ENERGY PREDICTED BY IDOCK:   -5.44 KCAL/MOL
REMARK 924 INTRA-LIGAND FREE ENERGY PREDICTED BY IDOCK:   -0.43 KCAL/MOL
REMARK 927      BINDING AFFINITY PREDICTED BY RF-SCORE:    0.00 PKD
ROOT
HETATM    1  C   UNL     1     -11.968   6.605  71.691  1.00  0.00    -0.347 C  
HETATM    2  O   UNL     1     -10.595   6.777  72.032  1.00  0.00    -0.210 OA 
ENDROOT
BRANCH   2   3
HETATM    3  C   UNL     1      -9.816   5.650  71.992  1.00  0.00    -0.163 A  
HETATM    4  C   UNL     1      -9.116   5.209  73.129  1.00  0.00    -0.127 A  
HETATM    5  C   UNL     1      -8.313   4.070  73.083  1.00  0.00    -0.089 A  
HETATM    6  C   UNL     1      -8.208   3.347  71.901  1.00  0.00    -0.064 A  
HETATM    7  C   UNL     1      -8.924   3.756  70.776  1.00  0.00    -0.157 A  
HETATM    8  C   UNL     1      -9.745   4.893  70.807  1.00  0.00    -0.198 A  
BRANCH   8   9
HETATM    9  O   UNL     1     -10.377   5.106  69.608  1.00  0.00    -0.264 OA 
BRANCH   9  10
HETATM   10  C   UNL     1      -9.843   4.488  68.438  1.00  0.00    -0.084 C  
BRANCH  10  11
HETATM   11  C   UNL     1      -8.939   5.484  67.687  1.00  0.00    -0.108 C  
HETATM   12  H   UNL     1      -7.994   5.600  65.933  1.00  0.00     0.000 HD 
HETATM   13  O   UNL     1      -8.552   4.986  66.397  1.00  0.00    -0.111 OA 
BRANCH  11  14
HETATM   14  C   UNL     1      -9.657   6.844  67.487  1.00  0.00    -0.128 C  
BRANCH  14  15
HETATM   15  N   UNL     1      -8.934   7.814  66.640  1.00  0.00    -0.141 NA 
HETATM   16  C   UNL     1      -9.845   8.785  66.017  1.00  0.00    -0.164 C  
HETATM   17  C   UNL     1     -10.512   9.701  67.056  1.00  0.00    -0.232 C  
HETATM   18  N   UNL     1      -9.564  10.532  67.832  1.00  0.00    -0.149 NA 
HETATM   19  C   UNL     1      -8.457   9.693  68.341  1.00  0.00    -0.118 C  
HETATM   20  C   UNL     1      -7.919   8.572  67.406  1.00  0.00    -0.102 C  
BRANCH  18  21
HETATM   21  C   UNL     1      -9.090  11.681  67.019  1.00  0.00    -0.179 C  
BRANCH  21  22
HETATM   22  C   UNL     1      -9.330  13.006  67.783  1.00  0.00    -0.199 C  
HETATM   23  N   UNL     1      -8.987  14.105  67.016  1.00  0.00    -0.230 N  
HETATM   24  O   UNL     1      -9.817  13.027  68.909  1.00  0.00    -0.034 OA 
HETATM   25  H   UNL     1      -8.659  13.909  66.070  1.00  0.00     0.000 HD 
BRANCH  23  26
HETATM   26  C   UNL     1      -9.039  15.459  67.387  1.00  0.00    -0.197 A  
HETATM   27  C   UNL     1      -7.892  16.223  67.687  1.00  0.00    -0.162 A  
HETATM   28  C   UNL     1      -8.050  17.582  68.010  1.00  0.00    -0.237 A  
HETATM   29  C   UNL     1      -6.482  15.704  67.627  1.00  0.00    -0.191 C  
HETATM   30  C   UNL     1      -9.305  18.185  67.992  1.00  0.00    -0.289 A  
HETATM   31  C   UNL     1     -10.428  17.438  67.656  1.00  0.00    -0.368 A  
HETATM   32  C   UNL     1     -10.310  16.075  67.351  1.00  0.00    -0.294 A  
HETATM   33  C   UNL     1     -11.561  15.285  67.069  1.00  0.00    -0.098 C  
ENDBRANCH  23  26
ENDBRANCH  21  22
ENDBRANCH  18  21
ENDBRANCH  14  15
ENDBRANCH  11  14
ENDBRANCH  10  11
ENDBRANCH   9  10
ENDBRANCH   8   9
ENDBRANCH   2   3
TORSDOF 9
ENDMDL
MODEL      262
REMARK 921   NORMALIZED FREE ENERGY PREDICTED BY IDOCK:   -3.11 KCAL/MOL
REMARK 922        TOTAL FREE ENERGY PREDICTED BY IDOCK:   -5.84 KCAL/MOL
REMARK 923 INTER-LIGAND FREE ENERGY PREDICTED BY IDOCK:   -4.78 KCAL/MOL
REMARK 924 INTRA-LIGAND FREE ENERGY PREDICTED BY IDOCK:   -1.06 KCAL/MOL
REMARK 927      BINDING AFFINITY PREDICTED BY RF-SCORE:    0.00 PKD
ROOT
HETATM    1  C   UNL     1      -9.896  10.967  67.633  1.00  0.00    -0.172 C  
HETATM    2  O   UNL     1     -10.584  10.341  66.554  1.00  0.00    -0.207 OA 
ENDROOT
BRANCH   2   3
HETATM    3  C   UNL     1     -10.324  10.834  65.303  1.00  0.00    -0.258 A  
HETATM    4  C   UNL     1     -11.076  11.895  64.768  1.00  0.00    -0.367 A  
HETATM    5  C   UNL     1     -10.819  12.387  63.490  1.00  0.00    -0.487 A  
HETATM    6  C   UNL     1      -9.797  11.832  62.729  1.00  0.00     0.067 A  
HETATM    7  C   UNL     1      -9.023  10.802  63.261  1.00  0.00    -0.223 A  
HETATM    8  C   UNL     1      -9.260  10.301  64.550  1.00  0.00    -0.250 A  
BRANCH   8   9
HETATM    9  O   UNL     1      -8.375   9.309  64.890  1.00  0.00    -0.139 OA 
BRANCH   9  10
HETATM   10  C   UNL     1      -8.652   7.975  64.467  1.00  0.00     0.145 C  
BRANCH  10  11
HETATM   11  C   UNL     1      -7.357   7.304  63.973  1.00  0.00    -0.088 C  
HETATM   12  H   UNL     1      -6.474   6.882  62.234  1.00  0.00     0.000 HD 
HETATM   13  O   UNL     1      -7.273   7.296  62.538  1.00  0.00    -0.071 OA 
BRANCH  11  14
HETATM   14  C   UNL     1      -6.107   8.034  64.528  1.00  0.00    -0.052 C  
BRANCH  14  15
HETATM   15  N   UNL     1      -5.269   7.231  65.442  1.00  0.00    -0.027 NA 
HETATM   16  C   UNL     1      -5.129   7.867  66.760  1.00  0.00    -0.027 C  
HETATM   17  C   UNL     1      -6.464   7.927  67.519  1.00  0.00    -0.056 C  
HETATM   18  N   UNL     1      -7.057   6.602  67.812  1.00  0.00    -0.082 NA 
HETATM   19  C   UNL     1      -7.055   5.768  66.590  1.00  0.00    -0.069 C  
HETATM   20  C   UNL     1      -5.819   5.873  65.652  1.00  0.00    -0.024 C  
BRANCH  18  21
HETATM   21  C   UNL     1      -6.357   5.958  68.952  1.00  0.00    -0.041 C  
BRANCH  21  22
HETATM   22  C   UNL     1      -7.184   6.133  70.249  1.00  0.00    -0.083 C  
HETATM   23  N   UNL     1      -8.494   6.486  69.973  1.00  0.00    -0.134 N  
HETATM   24  O   UNL     1      -6.706   5.921  71.358  1.00  0.00    -0.054 OA 
HETATM   25  H   UNL     1      -8.743   6.555  68.986  1.00  0.00     0.000 HD 
BRANCH  23  26
HETATM   26  C   UNL     1      -9.519   6.759  70.892  1.00  0.00    -0.157 A  
HETATM   27  C   UNL     1     -10.324   5.757  71.474  1.00  0.00    -0.274 A  
HETATM   28  C   UNL     1     -11.300   6.135  72.414  1.00  0.00    -0.340 A  
HETATM   29  C   UNL     1     -10.177   4.284  71.209  1.00  0.00    -0.106 C  
HETATM   30  C   UNL     1     -11.446   7.462  72.806  1.00  0.00    -0.312 A  
HETATM   31  C   UNL     1     -10.624   8.440  72.261  1.00  0.00    -0.412 A  
HETATM   32  C   UNL     1      -9.656   8.104  71.304  1.00  0.00    -0.203 A  
HETATM   33  C   UNL     1      -8.839   9.206  70.680  1.00  0.00    -0.278 C  
ENDBRANCH  23  26
ENDBRANCH  21  22
ENDBRANCH  18  21
ENDBRANCH  14  15
ENDBRANCH  11  14
ENDBRANCH  10  11
ENDBRANCH   9  10
ENDBRANCH   8   9
ENDBRANCH   2   3
TORSDOF 9
ENDMDL
MODEL      263
REMARK 921   NORMALIZED FREE ENERGY PREDICTED BY IDOCK:   -3.11 KCAL/MOL
REMARK 922        TOTAL FREE ENERGY PREDICTED BY IDOCK:   -5.83 KCAL/MOL
REMARK 923 INTER-LIGAND FREE ENERGY PREDICTED BY IDOCK:   -5.58 KCAL/MOL
REMARK 924 INTRA-LIGAND FREE ENERGY PREDICTED BY IDOCK:   -0.26 KCAL/MOL
REMARK 927      BINDING AFFINITY PREDICTED BY RF-SCORE:    0.00 PKD
ROOT
HETATM    1  C   UNL     1      -9.729   3.750  65.458  1.00  0.00    -0.151 C  
HETATM    2  O   UNL     1      -8.716   4.609  64.942  1.00  0.00    -0.133 OA 
ENDROOT
BRANCH   2   3
HETATM    3  C   UNL     1      -7.920   5.230  65.869  1.00  0.00    -0.105 A  
HETATM    4  C   UNL     1      -7.881   4.791  67.205  1.00  0.00    -0.095 A  
HETATM    5  C   UNL     1      -7.081   5.431  68.149  1.00  0.00    -0.067 A  
HETATM    6  C   UNL     1      -6.297   6.514  67.769  1.00  0.00    -0.043 A  
HETATM    7  C   UNL     1      -6.302   6.938  66.441  1.00  0.00    -0.050 A  
HETATM    8  C   UNL     1      -7.093   6.298  65.475  1.00  0.00    -0.068 A  
BRANCH   8   9
HETATM    9  O   UNL     1      -6.935   6.852  64.229  1.00  0.00    -0.048 OA 
BRANCH   9  10
HETATM   10  C   UNL     1      -7.992   7.652  63.701  1.00  0.00    -0.089 C  
BRANCH  10  11
HETATM   11  C   UNL     1      -7.580   9.136  63.714  1.00  0.00    -0.113 C  
HETATM   12  H   UNL     1      -7.236  10.593  62.394  1.00  0.00     0.000 HD 
HETATM   13  O   UNL     1      -7.490   9.677  62.386  1.00  0.00    -0.108 OA 
BRANCH  11  14
HETATM   14  C   UNL     1      -8.596   9.988  64.518  1.00  0.00    -0.187 C  
BRANCH  14  15
HETATM   15  N   UNL     1      -8.390   9.990  65.981  1.00  0.00    -0.122 NA 
HETATM   16  C   UNL     1      -8.708  11.295  66.578  1.00  0.00    -0.178 C  
HETATM   17  C   UNL     1     -10.202  11.635  66.464  1.00  0.00    -0.214 C  
HETATM   18  N   UNL     1     -11.097  10.685  67.162  1.00  0.00    -0.272 NA 
HETATM   19  C   UNL     1     -10.732   9.296  66.808  1.00  0.00    -0.050 C  
HETATM   20  C   UNL     1      -9.219   8.968  66.659  1.00  0.00    -0.167 C  
BRANCH  18  21
HETATM   21  C   UNL     1     -11.080  10.931  68.626  1.00  0.00    -0.252 C  
BRANCH  21  22
HETATM   22  C   UNL     1     -10.486   9.705  69.362  1.00  0.00    -0.220 C  
HETATM   23  N   UNL     1     -11.444   8.732  69.585  1.00  0.00    -0.407 N  
HETATM   24  O   UNL     1      -9.294   9.630  69.643  1.00  0.00    -0.181 OA 
HETATM   25  H   UNL     1     -12.378   8.928  69.224  1.00  0.00     0.000 HD 
BRANCH  23  26
HETATM   26  C   UNL     1     -11.281   7.505  70.249  1.00  0.00    -0.236 A  
HETATM   27  C   UNL     1     -10.947   6.305  69.587  1.00  0.00    -0.440 A  
HETATM   28  C   UNL     1     -10.769   5.138  70.352  1.00  0.00    -0.129 A  
HETATM   29  C   UNL     1     -10.701   6.186  68.108  1.00  0.00    -0.367 C  
HETATM   30  C   UNL     1     -10.872   5.164  71.739  1.00  0.00    -0.149 A  
HETATM   31  C   UNL     1     -11.161   6.357  72.391  1.00  0.00    -0.313 A  
HETATM   32  C   UNL     1     -11.368   7.535  71.660  1.00  0.00    -0.283 A  
HETATM   33  C   UNL     1     -11.757   8.788  72.399  1.00  0.00    -0.337 C  
ENDBRANCH  23  26
ENDBRANCH  21  22
ENDBRANCH  18  21
ENDBRANCH  14  15
ENDBRANCH  11  14
ENDBRANCH  10  11
ENDBRANCH   9  10
ENDBRANCH   8   9
ENDBRANCH   2   3
TORSDOF 9
ENDMDL
MODEL      264
REMARK 921   NORMALIZED FREE ENERGY PREDICTED BY IDOCK:   -3.09 KCAL/MOL
REMARK 922        TOTAL FREE ENERGY PREDICTED BY IDOCK:   -5.82 KCAL/MOL
REMARK 923 INTER-LIGAND FREE ENERGY PREDICTED BY IDOCK:   -4.94 KCAL/MOL
REMARK 924 INTRA-LIGAND FREE ENERGY PREDICTED BY IDOCK:   -0.87 KCAL/MOL
REMARK 927      BINDING AFFINITY PREDICTED BY RF-SCORE:    0.00 PKD
ROOT
HETATM    1  C   UNL     1     -12.516  14.691  65.550  1.00  0.00    -0.136 C  
HETATM    2  O   UNL     1     -11.272  14.646  64.857  1.00  0.00    -0.360 OA 
ENDROOT
BRANCH   2   3
HETATM    3  C   UNL     1     -10.764  13.398  64.608  1.00  0.00    -0.411 A  
HETATM    4  C   UNL     1     -10.874  12.808  63.335  1.00  0.00    -0.154 A  
HETATM    5  C   UNL     1     -10.369  11.534  63.086  1.00  0.00    -0.376 A  
HETATM    6  C   UNL     1      -9.733  10.833  64.104  1.00  0.00    -0.364 A  
HETATM    7  C   UNL     1      -9.588  11.420  65.360  1.00  0.00    -0.255 A  
HETATM    8  C   UNL     1     -10.081  12.706  65.626  1.00  0.00    -0.272 A  
BRANCH   8   9
HETATM    9  O   UNL     1      -9.814  13.106  66.911  1.00  0.00    -0.237 OA 
BRANCH   9  10
HETATM   10  C   UNL     1      -8.467  13.048  67.375  1.00  0.00    -0.200 C  
BRANCH  10  11
HETATM   11  C   UNL     1      -8.355  12.033  68.529  1.00  0.00    -0.104 C  
HETATM   12  H   UNL     1      -9.578  10.999  69.720  1.00  0.00     0.000 HD 
HETATM   13  O   UNL     1      -9.647  11.625  69.008  1.00  0.00    -0.054 OA 
BRANCH  11  14
HETATM   14  C   UNL     1      -7.581  10.766  68.082  1.00  0.00    -0.093 C  
BRANCH  14  15
HETATM   15  N   UNL     1      -6.419  10.415  68.924  1.00  0.00    -0.051 NA 
HETATM   16  C   UNL     1      -6.815  10.116  70.308  1.00  0.00    -0.148 C  
HETATM   17  C   UNL     1      -7.675   8.847  70.403  1.00  0.00    -0.098 C  
HETATM   18  N   UNL     1      -6.995   7.615  69.942  1.00  0.00    -0.053 NA 
HETATM   19  C   UNL     1      -6.354   7.853  68.630  1.00  0.00    -0.048 C  
HETATM   20  C   UNL     1      -5.688   9.240  68.399  1.00  0.00    -0.041 C  
BRANCH  18  21
HETATM   21  C   UNL     1      -6.040   7.130  70.970  1.00  0.00    -0.036 C  
BRANCH  21  22
HETATM   22  C   UNL     1      -6.731   6.089  71.886  1.00  0.00    -0.064 C  
HETATM   23  N   UNL     1      -7.794   5.476  71.246  1.00  0.00    -0.107 N  
HETATM   24  O   UNL     1      -6.315   5.837  73.012  1.00  0.00    -0.058 OA 
HETATM   25  H   UNL     1      -7.962   5.759  70.281  1.00  0.00     0.000 HD 
BRANCH  23  26
HETATM   26  C   UNL     1      -8.668   4.511  71.771  1.00  0.00    -0.117 A  
HETATM   27  C   UNL     1      -8.318   3.153  71.926  1.00  0.00    -0.070 A  
HETATM   28  C   UNL     1      -9.255   2.274  72.499  1.00  0.00    -0.122 A  
HETATM   29  C   UNL     1      -6.976   2.573  71.577  1.00  0.00    -0.031 C  
HETATM   30  C   UNL     1     -10.488   2.733  72.952  1.00  0.00    -0.239 A  
HETATM   31  C   UNL     1     -10.813   4.079  72.835  1.00  0.00    -0.189 A  
HETATM   32  C   UNL     1      -9.914   4.979  72.247  1.00  0.00    -0.233 A  
HETATM   33  C   UNL     1     -10.336   6.414  72.068  1.00  0.00    -0.222 C  
ENDBRANCH  23  26
ENDBRANCH  21  22
ENDBRANCH  18  21
ENDBRANCH  14  15
ENDBRANCH  11  14
ENDBRANCH  10  11
ENDBRANCH   9  10
ENDBRANCH   8   9
ENDBRANCH   2   3
TORSDOF 9
ENDMDL
MODEL      265
REMARK 921   NORMALIZED FREE ENERGY PREDICTED BY IDOCK:   -3.08 KCAL/MOL
REMARK 922        TOTAL FREE ENERGY PREDICTED BY IDOCK:   -5.80 KCAL/MOL
REMARK 923 INTER-LIGAND FREE ENERGY PREDICTED BY IDOCK:   -5.93 KCAL/MOL
REMARK 924 INTRA-LIGAND FREE ENERGY PREDICTED BY IDOCK:    0.13 KCAL/MOL
REMARK 927      BINDING AFFINITY PREDICTED BY RF-SCORE:    0.00 PKD
ROOT
HETATM    1  C   UNL     1      -9.973  18.861  67.464  1.00  0.00    -0.345 C  
HETATM    2  O   UNL     1     -10.344  17.627  68.071  1.00  0.00    -0.339 OA 
ENDROOT
BRANCH   2   3
HETATM    3  C   UNL     1      -9.383  16.652  68.096  1.00  0.00    -0.224 A  
HETATM    4  C   UNL     1      -8.071  16.934  68.518  1.00  0.00    -0.244 A  
HETATM    5  C   UNL     1      -7.090  15.944  68.531  1.00  0.00    -0.124 A  
HETATM    6  C   UNL     1      -7.409  14.651  68.132  1.00  0.00    -0.127 A  
HETATM    7  C   UNL     1      -8.714  14.352  67.743  1.00  0.00    -0.180 A  
HETATM    8  C   UNL     1      -9.717  15.333  67.735  1.00  0.00    -0.215 A  
BRANCH   8   9
HETATM    9  O   UNL     1     -10.931  14.827  67.344  1.00  0.00    -0.295 OA 
BRANCH   9  10
HETATM   10  C   UNL     1     -11.291  14.909  65.966  1.00  0.00    -0.306 C  
BRANCH  10  11
HETATM   11  C   UNL     1     -11.840  13.552  65.488  1.00  0.00    -0.363 C  
HETATM   12  H   UNL     1     -13.470  12.847  64.578  1.00  0.00     0.000 HD 
HETATM   13  O   UNL     1     -13.131  13.684  64.873  1.00  0.00    -0.713 OA 
BRANCH  11  14
HETATM   14  C   UNL     1     -10.879  12.893  64.464  1.00  0.00    -0.363 C  
BRANCH  14  15
HETATM   15  N   UNL     1     -11.113  11.455  64.223  1.00  0.00    -0.325 NA 
HETATM   16  C   UNL     1     -10.033  10.849  63.430  1.00  0.00    -0.361 C  
HETATM   17  C   UNL     1      -8.697  10.834  64.189  1.00  0.00    -0.072 C  
HETATM   18  N   UNL     1      -8.718  10.047  65.443  1.00  0.00    -0.150 NA 
HETATM   19  C   UNL     1      -9.903  10.413  66.249  1.00  0.00    -0.218 C  
HETATM   20  C   UNL     1     -11.230  10.692  65.486  1.00  0.00     0.522 C  
BRANCH  18  21
HETATM   21  C   UNL     1      -8.648   8.593  65.147  1.00  0.00    -0.173 C  
BRANCH  21  22
HETATM   22  C   UNL     1      -8.565   7.788  66.468  1.00  0.00    -0.143 C  
HETATM   23  N   UNL     1      -8.152   8.583  67.523  1.00  0.00    -0.106 N  
HETATM   24  O   UNL     1      -8.888   6.606  66.530  1.00  0.00    -0.128 OA 
HETATM   25  H   UNL     1      -7.988   9.567  67.308  1.00  0.00     0.000 HD 
BRANCH  23  26
HETATM   26  C   UNL     1      -7.932   8.194  68.854  1.00  0.00    -0.114 A  
HETATM   27  C   UNL     1      -7.156   7.072  69.214  1.00  0.00    -0.083 A  
HETATM   28  C   UNL     1      -6.966   6.791  70.579  1.00  0.00    -0.063 A  
HETATM   29  C   UNL     1      -6.453   6.172  68.236  1.00  0.00    -0.049 C  
HETATM   30  C   UNL     1      -7.487   7.623  71.564  1.00  0.00    -0.079 A  
HETATM   31  C   UNL     1      -8.217   8.750  71.205  1.00  0.00    -0.212 A  
HETATM   32  C   UNL     1      -8.447   9.048  69.855  1.00  0.00    -0.139 A  
HETATM   33  C   UNL     1      -9.309  10.235  69.511  1.00  0.00    -0.200 C  
ENDBRANCH  23  26
ENDBRANCH  21  22
ENDBRANCH  18  21
ENDBRANCH  14  15
ENDBRANCH  11  14
ENDBRANCH  10  11
ENDBRANCH   9  10
ENDBRANCH   8   9
ENDBRANCH   2   3
TORSDOF 9
ENDMDL
MODEL      266
REMARK 921   NORMALIZED FREE ENERGY PREDICTED BY IDOCK:   -3.06 KCAL/MOL
REMARK 922        TOTAL FREE ENERGY PREDICTED BY IDOCK:   -5.77 KCAL/MOL
REMARK 923 INTER-LIGAND FREE ENERGY PREDICTED BY IDOCK:   -5.76 KCAL/MOL
REMARK 924 INTRA-LIGAND FREE ENERGY PREDICTED BY IDOCK:   -0.01 KCAL/MOL
REMARK 927      BINDING AFFINITY PREDICTED BY RF-SCORE:    0.00 PKD
ROOT
HETATM    1  C   UNL     1     -11.232   5.819  73.040  1.00  0.00    -0.246 C  
HETATM    2  O   UNL     1     -10.836   6.753  72.039  1.00  0.00    -0.219 OA 
ENDROOT
BRANCH   2   3
HETATM    3  C   UNL     1      -9.557   7.234  72.133  1.00  0.00    -0.138 A  
HETATM    4  C   UNL     1      -9.245   8.310  72.984  1.00  0.00    -0.316 A  
HETATM    5  C   UNL     1      -7.946   8.807  73.069  1.00  0.00     0.206 A  
HETATM    6  C   UNL     1      -6.934   8.227  72.312  1.00  0.00    -0.104 A  
HETATM    7  C   UNL     1      -7.225   7.139  71.491  1.00  0.00    -0.077 A  
HETATM    8  C   UNL     1      -8.524   6.618  71.401  1.00  0.00    -0.124 A  
BRANCH   8   9
HETATM    9  O   UNL     1      -8.590   5.537  70.559  1.00  0.00    -0.120 OA 
BRANCH   9  10
HETATM   10  C   UNL     1      -7.404   5.132  69.878  1.00  0.00    -0.060 C  
BRANCH  10  11
HETATM   11  C   UNL     1      -6.917   6.267  68.958  1.00  0.00    -0.068 C  
HETATM   12  H   UNL     1      -5.249   6.782  67.990  1.00  0.00     0.000 HD 
HETATM   13  O   UNL     1      -5.550   6.081  68.557  1.00  0.00    -0.010 OA 
BRANCH  11  14
HETATM   14  C   UNL     1      -7.789   6.359  67.679  1.00  0.00    -0.106 C  
BRANCH  14  15
HETATM   15  N   UNL     1      -7.502   7.517  66.809  1.00  0.00    -0.091 NA 
HETATM   16  C   UNL     1      -8.676   7.915  66.019  1.00  0.00    -0.158 C  
HETATM   17  C   UNL     1      -9.812   8.453  66.903  1.00  0.00    -0.245 C  
HETATM   18  N   UNL     1      -9.460   9.667  67.674  1.00  0.00    -0.133 NA 
HETATM   19  C   UNL     1      -8.161   9.473  68.355  1.00  0.00    -0.113 C  
HETATM   20  C   UNL     1      -7.056   8.697  67.582  1.00  0.00    -0.080 C  
BRANCH  18  21
HETATM   21  C   UNL     1      -9.478  10.866  66.798  1.00  0.00    -0.177 C  
BRANCH  21  22
HETATM   22  C   UNL     1     -10.622  11.818  67.226  1.00  0.00    -0.224 C  
HETATM   23  N   UNL     1     -10.176  12.780  68.115  1.00  0.00    -0.235 N  
HETATM   24  O   UNL     1     -11.755  11.722  66.765  1.00  0.00    -0.555 OA 
HETATM   25  H   UNL     1      -9.183  12.756  68.344  1.00  0.00     0.000 HD 
BRANCH  23  26
HETATM   26  C   UNL     1     -10.932  13.785  68.740  1.00  0.00    -0.264 A  
HETATM   27  C   UNL     1     -10.945  15.127  68.305  1.00  0.00    -0.276 A  
HETATM   28  C   UNL     1     -11.767  16.049  68.977  1.00  0.00    -0.322 A  
HETATM   29  C   UNL     1     -10.181  15.646  67.118  1.00  0.00    -0.270 C  
HETATM   30  C   UNL     1     -12.593  15.647  70.022  1.00  0.00    -0.181 A  
HETATM   31  C   UNL     1     -12.608  14.316  70.422  1.00  0.00    -0.405 A  
HETATM   32  C   UNL     1     -11.784  13.374  69.790  1.00  0.00    -0.355 A  
HETATM   33  C   UNL     1     -11.773  11.959  70.305  1.00  0.00    -0.293 C  
ENDBRANCH  23  26
ENDBRANCH  21  22
ENDBRANCH  18  21
ENDBRANCH  14  15
ENDBRANCH  11  14
ENDBRANCH  10  11
ENDBRANCH   9  10
ENDBRANCH   8   9
ENDBRANCH   2   3
TORSDOF 9
ENDMDL
MODEL      267
REMARK 921   NORMALIZED FREE ENERGY PREDICTED BY IDOCK:   -3.04 KCAL/MOL
REMARK 922        TOTAL FREE ENERGY PREDICTED BY IDOCK:   -5.74 KCAL/MOL
REMARK 923 INTER-LIGAND FREE ENERGY PREDICTED BY IDOCK:   -5.35 KCAL/MOL
REMARK 924 INTRA-LIGAND FREE ENERGY PREDICTED BY IDOCK:   -0.39 KCAL/MOL
REMARK 927      BINDING AFFINITY PREDICTED BY RF-SCORE:    0.00 PKD
ROOT
HETATM    1  C   UNL     1      -8.395  13.625  67.830  1.00  0.00    -0.174 C  
HETATM    2  O   UNL     1      -7.853  14.912  67.551  1.00  0.00    -0.154 OA 
ENDROOT
BRANCH   2   3
HETATM    3  C   UNL     1      -8.672  15.981  67.805  1.00  0.00    -0.167 A  
HETATM    4  C   UNL     1      -8.366  16.907  68.819  1.00  0.00    -0.240 A  
HETATM    5  C   UNL     1      -9.205  17.986  69.087  1.00  0.00     0.059 A  
HETATM    6  C   UNL     1     -10.360  18.164  68.334  1.00  0.00    -0.371 A  
HETATM    7  C   UNL     1     -10.657  17.272  67.305  1.00  0.00    -0.283 A  
HETATM    8  C   UNL     1      -9.818  16.187  67.015  1.00  0.00    -0.245 A  
BRANCH   8   9
HETATM    9  O   UNL     1     -10.277  15.448  65.953  1.00  0.00    -0.296 OA 
BRANCH   9  10
HETATM   10  C   UNL     1     -11.486  14.707  66.111  1.00  0.00    -0.339 C  
BRANCH  10  11
HETATM   11  C   UNL     1     -11.554  13.587  65.056  1.00  0.00    -0.327 C  
HETATM   12  H   UNL     1     -11.307  13.386  63.087  1.00  0.00     0.000 HD 
HETATM   13  O   UNL     1     -11.265  14.077  63.737  1.00  0.00     0.091 OA 
BRANCH  11  14
HETATM   14  C   UNL     1     -10.549  12.453  65.385  1.00  0.00    -0.284 C  
BRANCH  14  15
HETATM   15  N   UNL     1     -10.899  11.128  64.833  1.00  0.00    -0.240 NA 
HETATM   16  C   UNL     1     -10.725  11.078  63.374  1.00  0.00    -0.097 C  
HETATM   17  C   UNL     1      -9.251  11.217  62.963  1.00  0.00    -0.292 C  
HETATM   18  N   UNL     1      -8.372  10.141  63.475  1.00  0.00    -0.161 NA 
HETATM   19  C   UNL     1      -8.612   9.938  64.920  1.00  0.00    -0.169 C  
HETATM   20  C   UNL     1     -10.080  10.046  65.424  1.00  0.00    -0.247 C  
BRANCH  18  21
HETATM   21  C   UNL     1      -8.550   8.899  62.680  1.00  0.00    -0.180 C  
BRANCH  21  22
HETATM   22  C   UNL     1      -7.671   7.766  63.264  1.00  0.00    -0.135 C  
HETATM   23  N   UNL     1      -8.441   6.758  63.816  1.00  0.00    -0.332 N  
HETATM   24  O   UNL     1      -6.447   7.782  63.175  1.00  0.00    -0.065 OA 
HETATM   25  H   UNL     1      -9.452   6.873  63.746  1.00  0.00     0.000 HD 
BRANCH  23  26
HETATM   26  C   UNL     1      -7.993   5.594  64.463  1.00  0.00    -0.124 A  
HETATM   27  C   UNL     1      -7.255   4.583  63.813  1.00  0.00    -0.050 A  
HETATM   28  C   UNL     1      -6.821   3.475  64.561  1.00  0.00    -0.048 A  
HETATM   29  C   UNL     1      -6.836   4.627  62.369  1.00  0.00    -0.030 C  
HETATM   30  C   UNL     1      -7.067   3.389  65.928  1.00  0.00    -0.063 A  
HETATM   31  C   UNL     1      -7.759   4.407  66.574  1.00  0.00    -0.094 A  
HETATM   32  C   UNL     1      -8.228   5.515  65.855  1.00  0.00    -0.121 A  
HETATM   33  C   UNL     1      -9.041   6.557  66.577  1.00  0.00    -0.166 C  
ENDBRANCH  23  26
ENDBRANCH  21  22
ENDBRANCH  18  21
ENDBRANCH  14  15
ENDBRANCH  11  14
ENDBRANCH  10  11
ENDBRANCH   9  10
ENDBRANCH   8   9
ENDBRANCH   2   3
TORSDOF 9
ENDMDL
MODEL      268
REMARK 921   NORMALIZED FREE ENERGY PREDICTED BY IDOCK:   -3.03 KCAL/MOL
REMARK 922        TOTAL FREE ENERGY PREDICTED BY IDOCK:   -5.72 KCAL/MOL
REMARK 923 INTER-LIGAND FREE ENERGY PREDICTED BY IDOCK:   -7.10 KCAL/MOL
REMARK 924 INTRA-LIGAND FREE ENERGY PREDICTED BY IDOCK:    1.38 KCAL/MOL
REMARK 927      BINDING AFFINITY PREDICTED BY RF-SCORE:    0.00 PKD
ROOT
HETATM    1  C   UNL     1      -9.043   4.973  70.815  1.00  0.00    -0.134 C  
HETATM    2  O   UNL     1     -10.162   5.481  70.094  1.00  0.00    -0.218 OA 
ENDROOT
BRANCH   2   3
HETATM    3  C   UNL     1     -10.610   6.720  70.466  1.00  0.00    -0.225 A  
HETATM    4  C   UNL     1     -11.501   6.879  71.543  1.00  0.00    -0.315 A  
HETATM    5  C   UNL     1     -11.967   8.139  71.912  1.00  0.00    -0.367 A  
HETATM    6  C   UNL     1     -11.539   9.264  71.217  1.00  0.00    -0.419 A  
HETATM    7  C   UNL     1     -10.631   9.123  70.169  1.00  0.00    -0.258 A  
HETATM    8  C   UNL     1     -10.143   7.863  69.790  1.00  0.00    -0.199 A  
BRANCH   8   9
HETATM    9  O   UNL     1      -9.244   7.947  68.757  1.00  0.00    -0.144 OA 
BRANCH   9  10
HETATM   10  C   UNL     1      -9.746   8.020  67.423  1.00  0.00    -0.166 C  
BRANCH  10  11
HETATM   11  C   UNL     1      -8.996   9.117  66.643  1.00  0.00    -0.137 C  
HETATM   12  H   UNL     1      -7.470   9.249  65.365  1.00  0.00     0.000 HD 
HETATM   13  O   UNL     1      -7.932   8.573  65.846  1.00  0.00    -0.098 OA 
BRANCH  11  14
HETATM   14  C   UNL     1      -9.960   9.889  65.705  1.00  0.00    -0.283 C  
BRANCH  14  15
HETATM   15  N   UNL     1     -10.716  10.982  66.349  1.00  0.00    -0.252 NA 
HETATM   16  C   UNL     1      -9.841  11.873  67.124  1.00  0.00    -0.194 C  
HETATM   17  C   UNL     1      -8.861  12.646  66.227  1.00  0.00     0.106 C  
HETATM   18  N   UNL     1      -9.513  13.538  65.241  1.00  0.00     0.203 NA 
HETATM   19  C   UNL     1     -10.586  12.808  64.532  1.00  0.00    -0.360 C  
HETATM   20  C   UNL     1     -11.445  11.810  65.361  1.00  0.00    -0.176 C  
BRANCH  18  21
HETATM   21  C   UNL     1      -9.998  14.777  65.901  1.00  0.00    -0.326 C  
BRANCH  21  22
HETATM   22  C   UNL     1      -9.962  14.606  67.440  1.00  0.00    -0.231 C  
HETATM   23  N   UNL     1     -11.205  14.830  68.005  1.00  0.00    -0.286 N  
HETATM   24  O   UNL     1      -8.945  14.262  68.032  1.00  0.00    -0.169 OA 
HETATM   25  H   UNL     1     -11.963  15.044  67.357  1.00  0.00     0.000 HD 
BRANCH  23  26
HETATM   26  C   UNL     1     -11.545  14.798  69.368  1.00  0.00    -0.310 A  
HETATM   27  C   UNL     1     -12.036  13.645  70.016  1.00  0.00    -0.413 A  
HETATM   28  C   UNL     1     -12.310  13.709  71.394  1.00  0.00    -0.301 A  
HETATM   29  C   UNL     1     -12.235  12.312  69.349  1.00  0.00    -0.120 C  
HETATM   30  C   UNL     1     -12.060  14.866  72.124  1.00  0.00    -0.424 A  
HETATM   31  C   UNL     1     -11.538  15.987  71.490  1.00  0.00    -0.529 A  
HETATM   32  C   UNL     1     -11.275  15.968  70.114  1.00  0.00    -0.376 A  
HETATM   33  C   UNL     1     -10.784  17.229  69.451  1.00  0.00     0.019 C  
ENDBRANCH  23  26
ENDBRANCH  21  22
ENDBRANCH  18  21
ENDBRANCH  14  15
ENDBRANCH  11  14
ENDBRANCH  10  11
ENDBRANCH   9  10
ENDBRANCH   8   9
ENDBRANCH   2   3
TORSDOF 9
ENDMDL
MODEL      269
REMARK 921   NORMALIZED FREE ENERGY PREDICTED BY IDOCK:   -3.02 KCAL/MOL
REMARK 922        TOTAL FREE ENERGY PREDICTED BY IDOCK:   -5.70 KCAL/MOL
REMARK 923 INTER-LIGAND FREE ENERGY PREDICTED BY IDOCK:   -6.22 KCAL/MOL
REMARK 924 INTRA-LIGAND FREE ENERGY PREDICTED BY IDOCK:    0.52 KCAL/MOL
REMARK 927      BINDING AFFINITY PREDICTED BY RF-SCORE:    0.00 PKD
ROOT
HETATM    1  C   UNL     1      -8.733  20.637  67.007  1.00  0.00    -0.167 C  
HETATM    2  O   UNL     1      -7.311  20.563  66.961  1.00  0.00    -0.295 OA 
ENDROOT
BRANCH   2   3
HETATM    3  C   UNL     1      -6.772  19.306  66.895  1.00  0.00    -0.196 A  
HETATM    4  C   UNL     1      -5.797  18.982  65.934  1.00  0.00    -0.190 A  
HETATM    5  C   UNL     1      -5.259  17.699  65.859  1.00  0.00    -0.200 A  
HETATM    6  C   UNL     1      -5.679  16.721  66.752  1.00  0.00    -0.123 A  
HETATM    7  C   UNL     1      -6.621  17.038  67.730  1.00  0.00    -0.160 A  
HETATM    8  C   UNL     1      -7.165  18.328  67.827  1.00  0.00    -0.215 A  
BRANCH   8   9
HETATM    9  O   UNL     1      -8.052  18.436  68.869  1.00  0.00    -0.274 OA 
BRANCH   9  10
HETATM   10  C   UNL     1      -9.447  18.315  68.590  1.00  0.00    -0.327 C  
BRANCH  10  11
HETATM   11  C   UNL     1      -9.897  16.857  68.801  1.00  0.00    -0.269 C  
HETATM   12  H   UNL     1     -11.203  15.855  69.927  1.00  0.00     0.000 HD 
HETATM   13  O   UNL     1     -10.926  16.754  69.797  1.00  0.00    -0.293 OA 
BRANCH  11  14
HETATM   14  C   UNL     1     -10.435  16.246  67.481  1.00  0.00    -0.302 C  
BRANCH  14  15
HETATM   15  N   UNL     1     -11.292  15.055  67.648  1.00  0.00    -0.327 NA 
HETATM   16  C   UNL     1     -11.842  14.590  66.366  1.00  0.00    -0.349 C  
HETATM   17  C   UNL     1     -10.747  14.067  65.423  1.00  0.00    -0.337 C  
HETATM   18  N   UNL     1      -9.999  12.901  65.946  1.00  0.00    -0.275 NA 
HETATM   19  C   UNL     1      -9.569  13.161  67.338  1.00  0.00    -0.219 C  
HETATM   20  C   UNL     1     -10.559  13.925  68.263  1.00  0.00    -0.257 C  
BRANCH  18  21
HETATM   21  C   UNL     1     -10.805  11.662  65.813  1.00  0.00    -0.281 C  
BRANCH  21  22
HETATM   22  C   UNL     1      -9.883  10.420  65.894  1.00  0.00    -0.235 C  
HETATM   23  N   UNL     1      -8.550  10.780  65.977  1.00  0.00    -0.173 N  
HETATM   24  O   UNL     1     -10.332   9.278  65.930  1.00  0.00    -0.154 OA 
HETATM   25  H   UNL     1      -8.355  11.781  66.002  1.00  0.00     0.000 HD 
BRANCH  23  26
HETATM   26  C   UNL     1      -7.434   9.930  66.032  1.00  0.00    -0.106 A  
HETATM   27  C   UNL     1      -6.735   9.494  64.887  1.00  0.00    -0.094 A  
HETATM   28  C   UNL     1      -5.606   8.673  65.054  1.00  0.00    -0.047 A  
HETATM   29  C   UNL     1      -7.074   9.897  63.478  1.00  0.00    -0.120 C  
HETATM   30  C   UNL     1      -5.148   8.329  66.322  1.00  0.00    -0.024 A  
HETATM   31  C   UNL     1      -5.815   8.793  67.450  1.00  0.00    -0.043 A  
HETATM   32  C   UNL     1      -6.958   9.594  67.321  1.00  0.00    -0.085 A  
HETATM   33  C   UNL     1      -7.696  10.011  68.566  1.00  0.00    -0.089 C  
ENDBRANCH  23  26
ENDBRANCH  21  22
ENDBRANCH  18  21
ENDBRANCH  14  15
ENDBRANCH  11  14
ENDBRANCH  10  11
ENDBRANCH   9  10
ENDBRANCH   8   9
ENDBRANCH   2   3
TORSDOF 9
ENDMDL
MODEL      270
REMARK 921   NORMALIZED FREE ENERGY PREDICTED BY IDOCK:   -3.00 KCAL/MOL
REMARK 922        TOTAL FREE ENERGY PREDICTED BY IDOCK:   -5.67 KCAL/MOL
REMARK 923 INTER-LIGAND FREE ENERGY PREDICTED BY IDOCK:   -5.19 KCAL/MOL
REMARK 924 INTRA-LIGAND FREE ENERGY PREDICTED BY IDOCK:   -0.48 KCAL/MOL
REMARK 927      BINDING AFFINITY PREDICTED BY RF-SCORE:    0.00 PKD
ROOT
HETATM    1  C   UNL     1      -8.883   5.750  73.974  1.00  0.00    -0.123 C  
HETATM    2  O   UNL     1     -10.079   5.536  73.230  1.00  0.00    -0.170 OA 
ENDROOT
BRANCH   2   3
HETATM    3  C   UNL     1     -10.442   6.537  72.368  1.00  0.00    -0.205 A  
HETATM    4  C   UNL     1     -11.251   7.606  72.794  1.00  0.00    -0.431 A  
HETATM    5  C   UNL     1     -11.631   8.617  71.913  1.00  0.00    -0.420 A  
HETATM    6  C   UNL     1     -11.197   8.581  70.593  1.00  0.00    -0.278 A  
HETATM    7  C   UNL     1     -10.367   7.545  70.168  1.00  0.00    -0.217 A  
HETATM    8  C   UNL     1      -9.966   6.525  71.044  1.00  0.00    -0.183 A  
BRANCH   8   9
HETATM    9  O   UNL     1      -9.134   5.619  70.435  1.00  0.00    -0.140 OA 
BRANCH   9  10
HETATM   10  C   UNL     1      -9.695   4.401  69.946  1.00  0.00    -0.221 C  
BRANCH  10  11
HETATM   11  C   UNL     1      -8.688   3.698  69.016  1.00  0.00    -0.092 C  
HETATM   12  H   UNL     1      -8.707   2.298  67.596  1.00  0.00     0.000 HD 
HETATM   13  O   UNL     1      -9.328   2.731  68.169  1.00  0.00    -0.191 OA 
BRANCH  11  14
HETATM   14  C   UNL     1      -7.955   4.725  68.115  1.00  0.00    -0.085 C  
BRANCH  14  15
HETATM   15  N   UNL     1      -8.646   5.052  66.851  1.00  0.00    -0.106 NA 
HETATM   16  C   UNL     1      -9.211   6.410  66.870  1.00  0.00    -0.135 C  
HETATM   17  C   UNL     1      -8.119   7.489  66.927  1.00  0.00    -0.116 C  
HETATM   18  N   UNL     1      -7.201   7.489  65.765  1.00  0.00    -0.065 NA 
HETATM   19  C   UNL     1      -6.724   6.115  65.499  1.00  0.00    -0.048 C  
HETATM   20  C   UNL     1      -7.743   4.954  65.682  1.00  0.00    -0.087 C  
BRANCH  18  21
HETATM   21  C   UNL     1      -7.855   8.111  64.585  1.00  0.00    -0.136 C  
BRANCH  21  22
HETATM   22  C   UNL     1      -8.053   9.628  64.828  1.00  0.00    -0.139 C  
HETATM   23  N   UNL     1      -8.228   9.909  66.171  1.00  0.00    -0.117 N  
HETATM   24  O   UNL     1      -7.999  10.445  63.914  1.00  0.00    -0.147 OA 
HETATM   25  H   UNL     1      -8.178   9.114  66.808  1.00  0.00     0.000 HD 
BRANCH  23  26
HETATM   26  C   UNL     1      -8.466  11.161  66.761  1.00  0.00    -0.153 A  
HETATM   27  C   UNL     1      -9.756  11.712  66.914  1.00  0.00    -0.211 A  
HETATM   28  C   UNL     1      -9.889  12.957  67.553  1.00  0.00    -0.208 A  
HETATM   29  C   UNL     1     -11.029  11.031  66.494  1.00  0.00    -0.228 C  
HETATM   30  C   UNL     1      -8.781  13.622  68.071  1.00  0.00    -0.176 A  
HETATM   31  C   UNL     1      -7.517  13.057  67.954  1.00  0.00    -0.137 A  
HETATM   32  C   UNL     1      -7.344  11.828  67.303  1.00  0.00    -0.141 A  
HETATM   33  C   UNL     1      -5.948  11.289  67.129  1.00  0.00    -0.083 C  
ENDBRANCH  23  26
ENDBRANCH  21  22
ENDBRANCH  18  21
ENDBRANCH  14  15
ENDBRANCH  11  14
ENDBRANCH  10  11
ENDBRANCH   9  10
ENDBRANCH   8   9
ENDBRANCH   2   3
TORSDOF 9
ENDMDL
MODEL      271
REMARK 921   NORMALIZED FREE ENERGY PREDICTED BY IDOCK:   -2.94 KCAL/MOL
REMARK 922        TOTAL FREE ENERGY PREDICTED BY IDOCK:   -5.58 KCAL/MOL
REMARK 923 INTER-LIGAND FREE ENERGY PREDICTED BY IDOCK:   -5.76 KCAL/MOL
REMARK 924 INTRA-LIGAND FREE ENERGY PREDICTED BY IDOCK:    0.18 KCAL/MOL
REMARK 927      BINDING AFFINITY PREDICTED BY RF-SCORE:    0.00 PKD
ROOT
HETATM    1  C   UNL     1      -7.534  15.053  67.478  1.00  0.00    -0.201 C  
HETATM    2  O   UNL     1      -8.854  15.458  67.833  1.00  0.00    -0.166 OA 
ENDROOT
BRANCH   2   3
HETATM    3  C   UNL     1      -9.844  15.139  66.941  1.00  0.00    -0.237 A  
HETATM    4  C   UNL     1      -9.941  15.790  65.698  1.00  0.00    -0.378 A  
HETATM    5  C   UNL     1     -10.957  15.474  64.798  1.00  0.00    -0.416 A  
HETATM    6  C   UNL     1     -11.886  14.493  65.122  1.00  0.00    -0.374 A  
HETATM    7  C   UNL     1     -11.780  13.817  66.337  1.00  0.00    -0.404 A  
HETATM    8  C   UNL     1     -10.758  14.114  67.251  1.00  0.00    -0.279 A  
BRANCH   8   9
HETATM    9  O   UNL     1     -10.819  13.322  68.369  1.00  0.00    -0.242 OA 
BRANCH   9  10
HETATM   10  C   UNL     1     -10.072  12.106  68.383  1.00  0.00    -0.209 C  
BRANCH  10  11
HETATM   11  C   UNL     1      -9.885  11.592  66.943  1.00  0.00    -0.197 C  
HETATM   12  H   UNL     1      -8.427  11.476  65.586  1.00  0.00     0.000 HD 
HETATM   13  O   UNL     1      -8.542  11.793  66.474  1.00  0.00    -0.183 OA 
BRANCH  11  14
HETATM   14  C   UNL     1     -10.211  10.079  66.846  1.00  0.00    -0.238 C  
BRANCH  14  15
HETATM   15  N   UNL     1      -9.051   9.178  67.000  1.00  0.00    -0.122 NA 
HETATM   16  C   UNL     1      -8.763   8.889  68.413  1.00  0.00    -0.134 C  
HETATM   17  C   UNL     1      -9.888   8.080  69.077  1.00  0.00    -0.178 C  
HETATM   18  N   UNL     1     -10.120   6.749  68.470  1.00  0.00    -0.156 NA 
HETATM   19  C   UNL     1     -10.211   6.875  66.999  1.00  0.00    -0.248 C  
HETATM   20  C   UNL     1      -9.254   7.887  66.306  1.00  0.00    -0.178 C  
BRANCH  18  21
HETATM   21  C   UNL     1      -9.075   5.788  68.904  1.00  0.00    -0.115 C  
BRANCH  21  22
HETATM   22  C   UNL     1      -9.246   4.445  68.152  1.00  0.00    -0.137 C  
HETATM   23  N   UNL     1      -8.707   4.502  66.879  1.00  0.00    -0.111 N  
HETATM   24  O   UNL     1      -9.757   3.464  68.683  1.00  0.00    -0.116 OA 
HETATM   25  H   UNL     1      -8.258   5.380  66.619  1.00  0.00     0.000 HD 
BRANCH  23  26
HETATM   26  C   UNL     1      -8.706   3.492  65.903  1.00  0.00    -0.122 A  
HETATM   27  C   UNL     1      -9.700   3.375  64.909  1.00  0.00    -0.135 A  
HETATM   28  C   UNL     1      -9.584   2.349  63.954  1.00  0.00    -0.134 A  
HETATM   29  C   UNL     1     -10.862   4.317  64.750  1.00  0.00    -0.108 C  
HETATM   30  C   UNL     1      -8.491   1.489  63.951  1.00  0.00    -0.073 A  
HETATM   31  C   UNL     1      -7.493   1.632  64.908  1.00  0.00    -0.058 A  
HETATM   32  C   UNL     1      -7.586   2.629  65.889  1.00  0.00    -0.073 A  
HETATM   33  C   UNL     1      -6.523   2.700  66.954  1.00  0.00    -0.035 C  
ENDBRANCH  23  26
ENDBRANCH  21  22
ENDBRANCH  18  21
ENDBRANCH  14  15
ENDBRANCH  11  14
ENDBRANCH  10  11
ENDBRANCH   9  10
ENDBRANCH   8   9
ENDBRANCH   2   3
TORSDOF 9
ENDMDL
MODEL      272
REMARK 921   NORMALIZED FREE ENERGY PREDICTED BY IDOCK:   -2.90 KCAL/MOL
REMARK 922        TOTAL FREE ENERGY PREDICTED BY IDOCK:   -5.52 KCAL/MOL
REMARK 923 INTER-LIGAND FREE ENERGY PREDICTED BY IDOCK:   -5.36 KCAL/MOL
REMARK 924 INTRA-LIGAND FREE ENERGY PREDICTED BY IDOCK:   -0.17 KCAL/MOL
REMARK 927      BINDING AFFINITY PREDICTED BY RF-SCORE:    0.00 PKD
ROOT
HETATM    1  C   UNL     1     -11.465  12.589  68.297  1.00  0.00    -0.308 C  
HETATM    2  O   UNL     1     -11.744  11.735  67.191  1.00  0.00    -0.547 OA 
ENDROOT
BRANCH   2   3
HETATM    3  C   UNL     1     -11.712  12.320  65.953  1.00  0.00    -0.389 A  
HETATM    4  C   UNL     1     -12.276  13.590  65.733  1.00  0.00    -0.505 A  
HETATM    5  C   UNL     1     -12.254  14.178  64.469  1.00  0.00    -0.468 A  
HETATM    6  C   UNL     1     -11.656  13.510  63.408  1.00  0.00     0.049 A  
HETATM    7  C   UNL     1     -11.064  12.266  63.621  1.00  0.00    -0.537 A  
HETATM    8  C   UNL     1     -11.067  11.664  64.888  1.00  0.00    -0.253 A  
BRANCH   8   9
HETATM    9  O   UNL     1     -10.413  10.457  64.888  1.00  0.00    -0.263 OA 
BRANCH   9  10
HETATM   10  C   UNL     1      -9.316  10.278  63.993  1.00  0.00    -0.289 C  
BRANCH  10  11
HETATM   11  C   UNL     1      -7.989  10.507  64.741  1.00  0.00    -0.046 C  
HETATM   12  H   UNL     1      -7.365  11.378  66.424  1.00  0.00     0.000 HD 
HETATM   13  O   UNL     1      -8.183  11.237  65.963  1.00  0.00    -0.142 OA 
BRANCH  11  14
HETATM   14  C   UNL     1      -7.306   9.157  65.086  1.00  0.00    -0.096 C  
BRANCH  14  15
HETATM   15  N   UNL     1      -8.194   8.145  65.693  1.00  0.00    -0.125 NA 
HETATM   16  C   UNL     1      -7.683   6.780  65.500  1.00  0.00    -0.101 C  
HETATM   17  C   UNL     1      -6.365   6.545  66.255  1.00  0.00    -0.042 C  
HETATM   18  N   UNL     1      -6.470   6.694  67.724  1.00  0.00    -0.050 NA 
HETATM   19  C   UNL     1      -7.177   7.950  68.055  1.00  0.00    -0.090 C  
HETATM   20  C   UNL     1      -8.371   8.361  67.146  1.00  0.00    -0.122 C  
BRANCH  18  21
HETATM   21  C   UNL     1      -7.111   5.497  68.325  1.00  0.00    -0.066 C  
BRANCH  21  22
HETATM   22  C   UNL     1      -7.688   5.848  69.719  1.00  0.00    -0.089 C  
HETATM   23  N   UNL     1      -6.715   6.364  70.557  1.00  0.00    -0.052 N  
HETATM   24  O   UNL     1      -8.879   5.717  69.981  1.00  0.00    -0.132 OA 
HETATM   25  H   UNL     1      -5.784   6.468  70.154  1.00  0.00     0.000 HD 
BRANCH  23  26
HETATM   26  C   UNL     1      -6.860   6.761  71.896  1.00  0.00    -0.063 A  
HETATM   27  C   UNL     1      -7.171   5.865  72.940  1.00  0.00    -0.090 A  
HETATM   28  C   UNL     1      -7.256   6.359  74.253  1.00  0.00    -0.089 A  
HETATM   29  C   UNL     1      -7.362   4.384  72.763  1.00  0.00    -0.078 C  
HETATM   30  C   UNL     1      -6.994   7.696  74.537  1.00  0.00    -0.134 A  
HETATM   31  C   UNL     1      -6.648   8.568  73.512  1.00  0.00    -0.097 A  
HETATM   32  C   UNL     1      -6.577   8.115  72.187  1.00  0.00    -0.073 A  
HETATM   33  C   UNL     1      -6.276   9.110  71.096  1.00  0.00    -0.070 C  
ENDBRANCH  23  26
ENDBRANCH  21  22
ENDBRANCH  18  21
ENDBRANCH  14  15
ENDBRANCH  11  14
ENDBRANCH  10  11
ENDBRANCH   9  10
ENDBRANCH   8   9
ENDBRANCH   2   3
TORSDOF 9
ENDMDL
MODEL      273
REMARK 921   NORMALIZED FREE ENERGY PREDICTED BY IDOCK:   -2.83 KCAL/MOL
REMARK 922        TOTAL FREE ENERGY PREDICTED BY IDOCK:   -5.42 KCAL/MOL
REMARK 923 INTER-LIGAND FREE ENERGY PREDICTED BY IDOCK:   -5.09 KCAL/MOL
REMARK 924 INTRA-LIGAND FREE ENERGY PREDICTED BY IDOCK:   -0.33 KCAL/MOL
REMARK 927      BINDING AFFINITY PREDICTED BY RF-SCORE:    0.00 PKD
ROOT
HETATM    1  C   UNL     1     -10.979  17.178  65.361  1.00  0.00     0.035 C  
HETATM    2  O   UNL     1     -10.348  16.417  66.387  1.00  0.00    -0.299 OA 
ENDROOT
BRANCH   2   3
HETATM    3  C   UNL     1      -8.998  16.601  66.534  1.00  0.00    -0.277 A  
HETATM    4  C   UNL     1      -8.390  17.823  66.195  1.00  0.00    -0.171 A  
HETATM    5  C   UNL     1      -7.015  18.006  66.333  1.00  0.00    -0.278 A  
HETATM    6  C   UNL     1      -6.228  16.971  66.824  1.00  0.00    -0.245 A  
HETATM    7  C   UNL     1      -6.824  15.767  67.195  1.00  0.00    -0.170 A  
HETATM    8  C   UNL     1      -8.207  15.569  67.073  1.00  0.00    -0.240 A  
BRANCH   8   9
HETATM    9  O   UNL     1      -8.593  14.328  67.515  1.00  0.00    -0.172 OA 
BRANCH   9  10
HETATM   10  C   UNL     1      -9.208  13.437  66.586  1.00  0.00    -0.214 C  
BRANCH  10  11
HETATM   11  C   UNL     1     -10.374  12.696  67.266  1.00  0.00    -0.224 C  
HETATM   12  H   UNL     1     -12.341  12.476  67.014  1.00  0.00     0.000 HD 
HETATM   13  O   UNL     1     -11.622  12.933  66.595  1.00  0.00    -0.333 OA 
BRANCH  11  14
HETATM   14  C   UNL     1     -10.120  11.167  67.295  1.00  0.00    -0.188 C  
BRANCH  14  15
HETATM   15  N   UNL     1     -11.212  10.363  67.879  1.00  0.00    -0.304 NA 
HETATM   16  C   UNL     1     -10.999   8.921  67.681  1.00  0.00     0.112 C  
HETATM   17  C   UNL     1      -9.774   8.407  68.453  1.00  0.00    -0.156 C  
HETATM   18  N   UNL     1      -9.870   8.566  69.922  1.00  0.00    -0.183 NA 
HETATM   19  C   UNL     1     -10.299   9.942  70.254  1.00  0.00    -0.281 C  
HETATM   20  C   UNL     1     -11.364  10.603  69.331  1.00  0.00    -0.284 C  
BRANCH  18  21
HETATM   21  C   UNL     1     -10.761   7.528  70.502  1.00  0.00    -0.235 C  
BRANCH  21  22
HETATM   22  C   UNL     1     -10.158   6.121  70.266  1.00  0.00    -0.188 C  
HETATM   23  N   UNL     1      -8.801   6.187  70.003  1.00  0.00    -0.142 N  
HETATM   24  O   UNL     1     -10.832   5.101  70.364  1.00  0.00    -0.160 OA 
HETATM   25  H   UNL     1      -8.383   7.117  70.025  1.00  0.00     0.000 HD 
BRANCH  23  26
HETATM   26  C   UNL     1      -7.933   5.123  69.709  1.00  0.00    -0.078 A  
HETATM   27  C   UNL     1      -7.674   4.675  68.397  1.00  0.00    -0.080 A  
HETATM   28  C   UNL     1      -6.757   3.625  68.209  1.00  0.00    -0.046 A  
HETATM   29  C   UNL     1      -8.266   5.284  67.156  1.00  0.00    -0.108 C  
HETATM   30  C   UNL     1      -6.077   3.063  69.284  1.00  0.00    -0.024 A  
HETATM   31  C   UNL     1      -6.304   3.534  70.572  1.00  0.00    -0.027 A  
HETATM   32  C   UNL     1      -7.229   4.563  70.800  1.00  0.00    -0.041 A  
HETATM   33  C   UNL     1      -7.503   4.991  72.218  1.00  0.00    -0.093 C  
ENDBRANCH  23  26
ENDBRANCH  21  22
ENDBRANCH  18  21
ENDBRANCH  14  15
ENDBRANCH  11  14
ENDBRANCH  10  11
ENDBRANCH   9  10
ENDBRANCH   8   9
ENDBRANCH   2   3
TORSDOF 9
ENDMDL
MODEL      274
REMARK 921   NORMALIZED FREE ENERGY PREDICTED BY IDOCK:   -2.82 KCAL/MOL
REMARK 922        TOTAL FREE ENERGY PREDICTED BY IDOCK:   -5.40 KCAL/MOL
REMARK 923 INTER-LIGAND FREE ENERGY PREDICTED BY IDOCK:   -4.62 KCAL/MOL
REMARK 924 INTRA-LIGAND FREE ENERGY PREDICTED BY IDOCK:   -0.78 KCAL/MOL
REMARK 927      BINDING AFFINITY PREDICTED BY RF-SCORE:    0.00 PKD
ROOT
HETATM    1  C   UNL     1     -10.358   9.186  67.861  1.00  0.00    -0.232 C  
HETATM    2  O   UNL     1     -10.259   9.046  66.447  1.00  0.00    -0.288 OA 
ENDROOT
BRANCH   2   3
HETATM    3  C   UNL     1     -10.304  10.206  65.720  1.00  0.00    -0.146 A  
HETATM    4  C   UNL     1     -11.056  11.311  66.159  1.00  0.00    -0.207 A  
HETATM    5  C   UNL     1     -11.112  12.486  65.411  1.00  0.00    -0.337 A  
HETATM    6  C   UNL     1     -10.407  12.578  64.217  1.00  0.00    -0.396 A  
HETATM    7  C   UNL     1      -9.633  11.502  63.788  1.00  0.00    -0.232 A  
HETATM    8  C   UNL     1      -9.555  10.316  64.533  1.00  0.00    -0.316 A  
BRANCH   8   9
HETATM    9  O   UNL     1      -8.723   9.393  63.950  1.00  0.00    -0.209 OA 
BRANCH   9  10
HETATM   10  C   UNL     1      -7.414   9.807  63.562  1.00  0.00    -0.126 C  
BRANCH  10  11
HETATM   11  C   UNL     1      -6.395   9.400  64.643  1.00  0.00    -0.079 C  
HETATM   12  H   UNL     1      -6.060   9.757  66.577  1.00  0.00     0.000 HD 
HETATM   13  O   UNL     1      -6.688  10.009  65.910  1.00  0.00    -0.090 OA 
BRANCH  11  14
HETATM   14  C   UNL     1      -6.376   7.861  64.835  1.00  0.00    -0.048 C  
BRANCH  14  15
HETATM   15  N   UNL     1      -7.579   7.297  65.479  1.00  0.00    -0.092 NA 
HETATM   16  C   UNL     1      -7.935   5.984  64.922  1.00  0.00    -0.126 C  
HETATM   17  C   UNL     1      -6.874   4.917  65.235  1.00  0.00    -0.060 C  
HETATM   18  N   UNL     1      -6.676   4.661  66.680  1.00  0.00    -0.050 NA 
HETATM   19  C   UNL     1      -6.522   5.943  67.402  1.00  0.00    -0.047 C  
HETATM   20  C   UNL     1      -7.405   7.137  66.940  1.00  0.00    -0.088 C  
BRANCH  18  21
HETATM   21  C   UNL     1      -7.779   3.825  67.218  1.00  0.00    -0.079 C  
BRANCH  21  22
HETATM   22  C   UNL     1      -7.719   3.802  68.765  1.00  0.00    -0.053 C  
HETATM   23  N   UNL     1      -8.883   4.298  69.326  1.00  0.00    -0.088 N  
HETATM   24  O   UNL     1      -6.758   3.340  69.371  1.00  0.00    -0.033 OA 
HETATM   25  H   UNL     1      -9.613   4.580  68.673  1.00  0.00     0.000 HD 
BRANCH  23  26
HETATM   26  C   UNL     1      -9.174   4.460  70.691  1.00  0.00    -0.131 A  
HETATM   27  C   UNL     1      -9.624   3.409  71.516  1.00  0.00    -0.233 A  
HETATM   28  C   UNL     1      -9.851   3.668  72.879  1.00  0.00    -0.197 A  
HETATM   29  C   UNL     1      -9.825   1.991  71.057  1.00  0.00    -0.089 C  
HETATM   30  C   UNL     1      -9.594   4.922  73.425  1.00  0.00    -0.145 A  
HETATM   31  C   UNL     1      -9.113   5.945  72.617  1.00  0.00    -0.130 A  
HETATM   32  C   UNL     1      -8.897   5.729  71.249  1.00  0.00    -0.139 A  
HETATM   33  C   UNL     1      -8.450   6.886  70.394  1.00  0.00    -0.134 C  
ENDBRANCH  23  26
ENDBRANCH  21  22
ENDBRANCH  18  21
ENDBRANCH  14  15
ENDBRANCH  11  14
ENDBRANCH  10  11
ENDBRANCH   9  10
ENDBRANCH   8   9
ENDBRANCH   2   3
TORSDOF 9
ENDMDL
MODEL      275
REMARK 921   NORMALIZED FREE ENERGY PREDICTED BY IDOCK:   -2.80 KCAL/MOL
REMARK 922        TOTAL FREE ENERGY PREDICTED BY IDOCK:   -5.37 KCAL/MOL
REMARK 923 INTER-LIGAND FREE ENERGY PREDICTED BY IDOCK:   -4.37 KCAL/MOL
REMARK 924 INTRA-LIGAND FREE ENERGY PREDICTED BY IDOCK:   -1.00 KCAL/MOL
REMARK 927      BINDING AFFINITY PREDICTED BY RF-SCORE:    0.00 PKD
ROOT
HETATM    1  C   UNL     1      -7.796   8.469  70.977  1.00  0.00    -0.110 C  
HETATM    2  O   UNL     1      -6.937   7.334  71.043  1.00  0.00    -0.058 OA 
ENDROOT
BRANCH   2   3
HETATM    3  C   UNL     1      -7.271   6.375  71.962  1.00  0.00    -0.090 A  
HETATM    4  C   UNL     1      -7.135   6.611  73.342  1.00  0.00    -0.077 A  
HETATM    5  C   UNL     1      -7.463   5.631  74.276  1.00  0.00    -0.092 A  
HETATM    6  C   UNL     1      -7.944   4.400  73.845  1.00  0.00    -0.093 A  
HETATM    7  C   UNL     1      -8.115   4.166  72.481  1.00  0.00    -0.095 A  
HETATM    8  C   UNL     1      -7.800   5.145  71.528  1.00  0.00    -0.111 A  
BRANCH   8   9
HETATM    9  O   UNL     1      -8.063   4.723  70.248  1.00  0.00    -0.070 OA 
BRANCH   9  10
HETATM   10  C   UNL     1      -6.974   4.270  69.444  1.00  0.00    -0.046 C  
BRANCH  10  11
HETATM   11  C   UNL     1      -6.617   5.342  68.397  1.00  0.00    -0.049 C  
HETATM   12  H   UNL     1      -5.000   5.980  67.419  1.00  0.00     0.000 HD 
HETATM   13  O   UNL     1      -5.220   5.319  68.064  1.00  0.00    -0.003 OA 
BRANCH  11  14
HETATM   14  C   UNL     1      -7.430   5.136  67.093  1.00  0.00    -0.087 C  
BRANCH  14  15
HETATM   15  N   UNL     1      -8.804   5.678  67.122  1.00  0.00    -0.108 NA 
HETATM   16  C   UNL     1      -8.859   7.004  67.753  1.00  0.00    -0.123 C  
HETATM   17  C   UNL     1      -8.113   8.067  66.931  1.00  0.00    -0.108 C  
HETATM   18  N   UNL     1      -8.664   8.283  65.574  1.00  0.00    -0.162 NA 
HETATM   19  C   UNL     1      -8.867   6.983  64.898  1.00  0.00     0.428 C  
HETATM   20  C   UNL     1      -9.383   5.798  65.765  1.00  0.00    -0.026 C  
BRANCH  18  21
HETATM   21  C   UNL     1      -9.903   9.099  65.638  1.00  0.00    -0.094 C  
BRANCH  21  22
HETATM   22  C   UNL     1      -9.552  10.604  65.534  1.00  0.00    -0.221 C  
HETATM   23  N   UNL     1     -10.592  11.401  65.981  1.00  0.00    -0.261 N  
HETATM   24  O   UNL     1      -8.453  10.990  65.148  1.00  0.00    -0.100 OA 
HETATM   25  H   UNL     1     -11.415  10.912  66.333  1.00  0.00     0.000 HD 
BRANCH  23  26
HETATM   26  C   UNL     1     -10.646  12.804  66.005  1.00  0.00    -0.268 A  
HETATM   27  C   UNL     1     -10.107  13.582  67.051  1.00  0.00    -0.244 A  
HETATM   28  C   UNL     1     -10.180  14.983  66.960  1.00  0.00    -0.257 A  
HETATM   29  C   UNL     1      -9.391  13.021  68.249  1.00  0.00    -0.199 C  
HETATM   30  C   UNL     1     -10.730  15.603  65.842  1.00  0.00    -0.336 A  
HETATM   31  C   UNL     1     -11.224  14.834  64.795  1.00  0.00    -0.392 A  
HETATM   32  C   UNL     1     -11.189  13.434  64.862  1.00  0.00    -0.347 A  
HETATM   33  C   UNL     1     -11.805  12.639  63.741  1.00  0.00    -0.574 C  
ENDBRANCH  23  26
ENDBRANCH  21  22
ENDBRANCH  18  21
ENDBRANCH  14  15
ENDBRANCH  11  14
ENDBRANCH  10  11
ENDBRANCH   9  10
ENDBRANCH   8   9
ENDBRANCH   2   3
TORSDOF 9
ENDMDL
MODEL      276
REMARK 921   NORMALIZED FREE ENERGY PREDICTED BY IDOCK:   -2.72 KCAL/MOL
REMARK 922        TOTAL FREE ENERGY PREDICTED BY IDOCK:   -5.25 KCAL/MOL
REMARK 923 INTER-LIGAND FREE ENERGY PREDICTED BY IDOCK:   -5.40 KCAL/MOL
REMARK 924 INTRA-LIGAND FREE ENERGY PREDICTED BY IDOCK:    0.15 KCAL/MOL
REMARK 927      BINDING AFFINITY PREDICTED BY RF-SCORE:    0.00 PKD
ROOT
HETATM    1  C   UNL     1     -12.637  15.082  65.279  1.00  0.00     0.247 C  
HETATM    2  O   UNL     1     -12.130  13.974  66.017  1.00  0.00    -0.395 OA 
ENDROOT
BRANCH   2   3
HETATM    3  C   UNL     1     -11.553  12.972  65.282  1.00  0.00    -0.328 A  
HETATM    4  C   UNL     1     -11.466  13.054  63.881  1.00  0.00    -0.490 A  
HETATM    5  C   UNL     1     -10.892  12.028  63.133  1.00  0.00    -0.275 A  
HETATM    6  C   UNL     1     -10.383  10.906  63.778  1.00  0.00    -0.384 A  
HETATM    7  C   UNL     1     -10.434  10.828  65.169  1.00  0.00    -0.299 A  
HETATM    8  C   UNL     1     -10.999  11.856  65.938  1.00  0.00    -0.307 A  
BRANCH   8   9
HETATM    9  O   UNL     1     -10.927  11.594  67.283  1.00  0.00    -0.236 OA 
BRANCH   9  10
HETATM   10  C   UNL     1     -10.745  10.243  67.704  1.00  0.00    -0.288 C  
BRANCH  10  11
HETATM   11  C   UNL     1      -9.895  10.207  68.988  1.00  0.00    -0.205 C  
HETATM   12  H   UNL     1      -8.769  11.459  70.059  1.00  0.00     0.000 HD 
HETATM   13  O   UNL     1      -9.293  11.481  69.267  1.00  0.00     0.135 OA 
BRANCH  11  14
HETATM   14  C   UNL     1     -10.754   9.796  70.212  1.00  0.00    -0.302 C  
BRANCH  14  15
HETATM   15  N   UNL     1     -11.109   8.364  70.274  1.00  0.00    -0.240 NA 
HETATM   16  C   UNL     1     -10.214   7.540  69.448  1.00  0.00    -0.204 C  
HETATM   17  C   UNL     1      -8.774   7.536  69.982  1.00  0.00    -0.140 C  
HETATM   18  N   UNL     1      -8.632   6.978  71.346  1.00  0.00    -0.121 NA 
HETATM   19  C   UNL     1      -9.643   7.577  72.245  1.00  0.00    -0.155 C  
HETATM   20  C   UNL     1     -11.060   7.839  71.657  1.00  0.00    -0.237 C  
BRANCH  18  21
HETATM   21  C   UNL     1      -8.699   5.495  71.312  1.00  0.00    -0.131 C  
BRANCH  21  22
HETATM   22  C   UNL     1      -7.985   4.962  70.045  1.00  0.00    -0.073 C  
HETATM   23  N   UNL     1      -8.730   3.980  69.416  1.00  0.00    -0.080 N  
HETATM   24  O   UNL     1      -6.916   5.424  69.659  1.00  0.00    -0.057 OA 
HETATM   25  H   UNL     1      -9.633   3.761  69.837  1.00  0.00     0.000 HD 
BRANCH  23  26
HETATM   26  C   UNL     1      -8.388   3.250  68.266  1.00  0.00    -0.078 A  
HETATM   27  C   UNL     1      -7.465   2.183  68.273  1.00  0.00    -0.051 A  
HETATM   28  C   UNL     1      -7.222   1.491  67.073  1.00  0.00    -0.046 A  
HETATM   29  C   UNL     1      -6.753   1.679  69.498  1.00  0.00    -0.029 C  
HETATM   30  C   UNL     1      -7.907   1.813  65.906  1.00  0.00    -0.072 A  
HETATM   31  C   UNL     1      -8.846   2.838  65.912  1.00  0.00    -0.135 A  
HETATM   32  C   UNL     1      -9.097   3.564  67.085  1.00  0.00    -0.191 A  
HETATM   33  C   UNL     1     -10.064   4.718  67.029  1.00  0.00    -0.228 C  
ENDBRANCH  23  26
ENDBRANCH  21  22
ENDBRANCH  18  21
ENDBRANCH  14  15
ENDBRANCH  11  14
ENDBRANCH  10  11
ENDBRANCH   9  10
ENDBRANCH   8   9
ENDBRANCH   2   3
TORSDOF 9
ENDMDL
MODEL      277
REMARK 921   NORMALIZED FREE ENERGY PREDICTED BY IDOCK:   -2.68 KCAL/MOL
REMARK 922        TOTAL FREE ENERGY PREDICTED BY IDOCK:   -5.19 KCAL/MOL
REMARK 923 INTER-LIGAND FREE ENERGY PREDICTED BY IDOCK:   -4.27 KCAL/MOL
REMARK 924 INTRA-LIGAND FREE ENERGY PREDICTED BY IDOCK:   -0.92 KCAL/MOL
REMARK 927      BINDING AFFINITY PREDICTED BY RF-SCORE:    0.00 PKD
ROOT
HETATM    1  C   UNL     1      -8.938   2.108  69.504  1.00  0.00    -0.098 C  
HETATM    2  O   UNL     1      -8.545   3.441  69.819  1.00  0.00    -0.058 OA 
ENDROOT
BRANCH   2   3
HETATM    3  C   UNL     1      -7.883   3.611  71.006  1.00  0.00    -0.051 A  
HETATM    4  C   UNL     1      -8.061   2.714  72.074  1.00  0.00    -0.054 A  
HETATM    5  C   UNL     1      -7.397   2.895  73.286  1.00  0.00    -0.046 A  
HETATM    6  C   UNL     1      -6.534   3.973  73.445  1.00  0.00    -0.041 A  
HETATM    7  C   UNL     1      -6.324   4.851  72.382  1.00  0.00    -0.031 A  
HETATM    8  C   UNL     1      -6.975   4.677  71.152  1.00  0.00    -0.039 A  
BRANCH   8   9
HETATM    9  O   UNL     1      -6.612   5.632  70.236  1.00  0.00    -0.042 OA 
BRANCH   9  10
HETATM   10  C   UNL     1      -7.367   6.842  70.179  1.00  0.00    -0.085 C  
BRANCH  10  11
HETATM   11  C   UNL     1      -6.554   7.994  70.799  1.00  0.00    -0.037 C  
HETATM   12  H   UNL     1      -4.648   8.575  70.908  1.00  0.00     0.000 HD 
HETATM   13  O   UNL     1      -5.149   7.864  70.526  1.00  0.00    -0.023 OA 
BRANCH  11  14
HETATM   14  C   UNL     1      -7.029   9.366  70.253  1.00  0.00    -0.087 C  
BRANCH  14  15
HETATM   15  N   UNL     1      -7.315   9.397  68.804  1.00  0.00    -0.074 NA 
HETATM   16  C   UNL     1      -8.697   9.814  68.526  1.00  0.00    -0.120 C  
HETATM   17  C   UNL     1      -8.953  11.274  68.935  1.00  0.00    -0.045 C  
HETATM   18  N   UNL     1      -8.118  12.263  68.215  1.00  0.00    -0.161 NA 
HETATM   19  C   UNL     1      -6.702  11.836  68.234  1.00  0.00    -0.065 C  
HETATM   20  C   UNL     1      -6.409  10.316  68.080  1.00  0.00    -0.056 C  
BRANCH  18  21
HETATM   21  C   UNL     1      -8.637  12.482  66.841  1.00  0.00    -0.158 C  
BRANCH  21  22
HETATM   22  C   UNL     1      -9.217  13.912  66.716  1.00  0.00    -0.254 C  
HETATM   23  N   UNL     1      -8.655  14.772  67.644  1.00  0.00    -0.164 N  
HETATM   24  O   UNL     1     -10.032  14.209  65.849  1.00  0.00    -0.298 OA 
HETATM   25  H   UNL     1      -7.938  14.373  68.250  1.00  0.00     0.000 HD 
BRANCH  23  26
HETATM   26  C   UNL     1      -8.957  16.128  67.848  1.00  0.00    -0.183 A  
HETATM   27  C   UNL     1     -10.123  16.570  68.509  1.00  0.00    -0.255 A  
HETATM   28  C   UNL     1     -10.311  17.951  68.696  1.00  0.00    -0.342 A  
HETATM   29  C   UNL     1     -11.168  15.661  69.093  1.00  0.00    -0.315 C  
HETATM   30  C   UNL     1      -9.352  18.871  68.284  1.00  0.00    -0.384 A  
HETATM   31  C   UNL     1      -8.186  18.429  67.670  1.00  0.00    -0.262 A  
HETATM   32  C   UNL     1      -7.975  17.061  67.446  1.00  0.00    -0.197 A  
HETATM   33  C   UNL     1      -6.735  16.630  66.707  1.00  0.00    -0.241 C  
ENDBRANCH  23  26
ENDBRANCH  21  22
ENDBRANCH  18  21
ENDBRANCH  14  15
ENDBRANCH  11  14
ENDBRANCH  10  11
ENDBRANCH   9  10
ENDBRANCH   8   9
ENDBRANCH   2   3
TORSDOF 9
ENDMDL
MODEL      278
REMARK 921   NORMALIZED FREE ENERGY PREDICTED BY IDOCK:   -2.62 KCAL/MOL
REMARK 922        TOTAL FREE ENERGY PREDICTED BY IDOCK:   -5.09 KCAL/MOL
REMARK 923 INTER-LIGAND FREE ENERGY PREDICTED BY IDOCK:   -5.67 KCAL/MOL
REMARK 924 INTRA-LIGAND FREE ENERGY PREDICTED BY IDOCK:    0.57 KCAL/MOL
REMARK 927      BINDING AFFINITY PREDICTED BY RF-SCORE:    0.00 PKD
ROOT
HETATM    1  C   UNL     1     -11.202   6.192  68.281  1.00  0.00    -0.086 C  
HETATM    2  O   UNL     1     -11.018   5.044  69.104  1.00  0.00     0.286 OA 
ENDROOT
BRANCH   2   3
HETATM    3  C   UNL     1     -10.456   5.266  70.334  1.00  0.00    -0.251 A  
HETATM    4  C   UNL     1      -9.888   4.214  71.075  1.00  0.00    -0.247 A  
HETATM    5  C   UNL     1      -9.328   4.438  72.331  1.00  0.00    -0.162 A  
HETATM    6  C   UNL     1      -9.319   5.723  72.862  1.00  0.00    -0.146 A  
HETATM    7  C   UNL     1      -9.849   6.779  72.124  1.00  0.00    -0.159 A  
HETATM    8  C   UNL     1     -10.407   6.573  70.853  1.00  0.00    -0.207 A  
BRANCH   8   9
HETATM    9  O   UNL     1     -10.849   7.743  70.287  1.00  0.00    -0.243 OA 
BRANCH   9  10
HETATM   10  C   UNL     1     -10.258   8.970  70.713  1.00  0.00    -0.244 C  
BRANCH  10  11
HETATM   11  C   UNL     1      -9.402   9.559  69.576  1.00  0.00    -0.190 C  
HETATM   12  H   UNL     1      -8.519   8.927  67.903  1.00  0.00     0.000 HD 
HETATM   13  O   UNL     1      -9.047   8.564  68.604  1.00  0.00    -0.139 OA 
BRANCH  11  14
HETATM   14  C   UNL     1     -10.155  10.703  68.849  1.00  0.00    -0.202 C  
BRANCH  14  15
HETATM   15  N   UNL     1      -9.463  11.253  67.666  1.00  0.00    -0.165 NA 
HETATM   16  C   UNL     1     -10.040  12.537  67.240  1.00  0.00    -0.213 C  
HETATM   17  C   UNL     1      -9.819  13.644  68.284  1.00  0.00    -0.232 C  
HETATM   18  N   UNL     1      -8.396  13.951  68.553  1.00  0.00    -0.153 NA 
HETATM   19  C   UNL     1      -7.644  12.698  68.786  1.00  0.00    -0.022 C  
HETATM   20  C   UNL     1      -8.020  11.465  67.914  1.00  0.00    -0.120 C  
BRANCH  18  21
HETATM   21  C   UNL     1      -7.823  14.772  67.457  1.00  0.00    -0.188 C  
BRANCH  21  22
HETATM   22  C   UNL     1      -7.916  16.276  67.817  1.00  0.00    -0.142 C  
HETATM   23  N   UNL     1      -6.666  16.867  67.859  1.00  0.00    -0.140 N  
HETATM   24  O   UNL     1      -8.994  16.838  67.983  1.00  0.00    -0.209 OA 
HETATM   25  H   UNL     1      -5.875  16.265  67.628  1.00  0.00     0.000 HD 
BRANCH  23  26
HETATM   26  C   UNL     1      -6.358  18.199  68.181  1.00  0.00    -0.190 A  
HETATM   27  C   UNL     1      -5.805  18.587  69.419  1.00  0.00    -0.249 A  
HETATM   28  C   UNL     1      -5.498  19.944  69.627  1.00  0.00    -0.264 A  
HETATM   29  C   UNL     1      -5.454  17.638  70.532  1.00  0.00    -0.242 C  
HETATM   30  C   UNL     1      -5.688  20.887  68.622  1.00  0.00    -0.387 A  
HETATM   31  C   UNL     1      -6.195  20.494  67.389  1.00  0.00    -0.279 A  
HETATM   32  C   UNL     1      -6.535  19.154  67.154  1.00  0.00    -0.192 A  
HETATM   33  C   UNL     1      -7.155  18.784  65.832  1.00  0.00    -0.290 C  
ENDBRANCH  23  26
ENDBRANCH  21  22
ENDBRANCH  18  21
ENDBRANCH  14  15
ENDBRANCH  11  14
ENDBRANCH  10  11
ENDBRANCH   9  10
ENDBRANCH   8   9
ENDBRANCH   2   3
TORSDOF 9
ENDMDL
MODEL      279
REMARK 921   NORMALIZED FREE ENERGY PREDICTED BY IDOCK:   -2.54 KCAL/MOL
REMARK 922        TOTAL FREE ENERGY PREDICTED BY IDOCK:   -4.97 KCAL/MOL
REMARK 923 INTER-LIGAND FREE ENERGY PREDICTED BY IDOCK:   -4.13 KCAL/MOL
REMARK 924 INTRA-LIGAND FREE ENERGY PREDICTED BY IDOCK:   -0.83 KCAL/MOL
REMARK 927      BINDING AFFINITY PREDICTED BY RF-SCORE:    0.00 PKD
ROOT
HETATM    1  C   UNL     1      -5.662  13.326  70.236  1.00  0.00    -0.154 C  
HETATM    2  O   UNL     1      -5.615  12.440  69.121  1.00  0.00    -0.066 OA 
ENDROOT
BRANCH   2   3
HETATM    3  C   UNL     1      -6.775  11.771  68.831  1.00  0.00    -0.094 A  
HETATM    4  C   UNL     1      -7.495  12.040  67.653  1.00  0.00    -0.132 A  
HETATM    5  C   UNL     1      -8.681  11.368  67.365  1.00  0.00    -0.145 A  
HETATM    6  C   UNL     1      -9.161  10.406  68.247  1.00  0.00    -0.145 A  
HETATM    7  C   UNL     1      -8.439  10.107  69.401  1.00  0.00    -0.179 A  
HETATM    8  C   UNL     1      -7.237  10.766  69.701  1.00  0.00    -0.125 A  
BRANCH   8   9
HETATM    9  O   UNL     1      -6.675  10.309  70.866  1.00  0.00    -0.340 OA 
BRANCH   9  10
HETATM   10  C   UNL     1      -6.103   9.001  70.878  1.00  0.00    -0.049 C  
BRANCH  10  11
HETATM   11  C   UNL     1      -6.418   8.306  72.216  1.00  0.00    -0.074 C  
HETATM   12  H   UNL     1      -6.715   8.818  74.122  1.00  0.00     0.000 HD 
HETATM   13  O   UNL     1      -6.520   9.247  73.297  1.00  0.00    -0.313 OA 
BRANCH  11  14
HETATM   14  C   UNL     1      -7.751   7.517  72.131  1.00  0.00    -0.089 C  
BRANCH  14  15
HETATM   15  N   UNL     1      -7.629   6.060  72.342  1.00  0.00    -0.099 NA 
HETATM   16  C   UNL     1      -8.940   5.394  72.343  1.00  0.00    -0.135 C  
HETATM   17  C   UNL     1      -9.625   5.463  70.969  1.00  0.00    -0.172 C  
HETATM   18  N   UNL     1      -8.874   4.795  69.881  1.00  0.00    -0.088 NA 
HETATM   19  C   UNL     1      -7.459   5.223  69.909  1.00  0.00    -0.065 C  
HETATM   20  C   UNL     1      -6.795   5.416  71.302  1.00  0.00    -0.053 C  
BRANCH  18  21
HETATM   21  C   UNL     1      -9.034   3.321  69.966  1.00  0.00    -0.106 C  
BRANCH  21  22
HETATM   22  C   UNL     1      -9.285   2.734  68.555  1.00  0.00    -0.183 C  
HETATM   23  N   UNL     1      -8.788   3.562  67.564  1.00  0.00    -0.115 N  
HETATM   24  O   UNL     1      -9.814   1.640  68.392  1.00  0.00    -0.117 OA 
HETATM   25  H   UNL     1      -8.314   4.408  67.880  1.00  0.00     0.000 HD 
BRANCH  23  26
HETATM   26  C   UNL     1      -8.861   3.374  66.174  1.00  0.00    -0.137 A  
HETATM   27  C   UNL     1      -8.046   2.461  65.473  1.00  0.00    -0.084 A  
HETATM   28  C   UNL     1      -8.226   2.321  64.085  1.00  0.00    -0.082 A  
HETATM   29  C   UNL     1      -7.023   1.564  66.114  1.00  0.00    -0.045 C  
HETATM   30  C   UNL     1      -9.217   3.029  63.413  1.00  0.00    -0.095 A  
HETATM   31  C   UNL     1     -10.046   3.897  64.114  1.00  0.00    -0.207 A  
HETATM   32  C   UNL     1      -9.880   4.080  65.494  1.00  0.00    -0.186 A  
HETATM   33  C   UNL     1     -10.746   5.089  66.201  1.00  0.00    -0.264 C  
ENDBRANCH  23  26
ENDBRANCH  21  22
ENDBRANCH  18  21
ENDBRANCH  14  15
ENDBRANCH  11  14
ENDBRANCH  10  11
ENDBRANCH   9  10
ENDBRANCH   8   9
ENDBRANCH   2   3
TORSDOF 9
ENDMDL
MODEL      280
REMARK 921   NORMALIZED FREE ENERGY PREDICTED BY IDOCK:   -2.36 KCAL/MOL
REMARK 922        TOTAL FREE ENERGY PREDICTED BY IDOCK:   -4.69 KCAL/MOL
REMARK 923 INTER-LIGAND FREE ENERGY PREDICTED BY IDOCK:   -5.77 KCAL/MOL
REMARK 924 INTRA-LIGAND FREE ENERGY PREDICTED BY IDOCK:    1.08 KCAL/MOL
REMARK 927      BINDING AFFINITY PREDICTED BY RF-SCORE:    0.00 PKD
ROOT
HETATM    1  C   UNL     1      -7.620   7.982  73.503  1.00  0.00    -0.154 C  
HETATM    2  O   UNL     1      -7.255   6.650  73.154  1.00  0.00    -0.077 OA 
ENDROOT
BRANCH   2   3
HETATM    3  C   UNL     1      -8.288   5.771  72.960  1.00  0.00    -0.118 A  
HETATM    4  C   UNL     1      -8.313   4.522  73.607  1.00  0.00    -0.101 A  
HETATM    5  C   UNL     1      -9.357   3.624  73.400  1.00  0.00    -0.119 A  
HETATM    6  C   UNL     1     -10.402   3.965  72.549  1.00  0.00    -0.210 A  
HETATM    7  C   UNL     1     -10.406   5.213  71.928  1.00  0.00    -0.275 A  
HETATM    8  C   UNL     1      -9.368   6.134  72.134  1.00  0.00    -0.151 A  
BRANCH   8   9
HETATM    9  O   UNL     1      -9.575   7.307  71.452  1.00  0.00    -0.161 OA 
BRANCH   9  10
HETATM   10  C   UNL     1      -9.565   7.275  70.025  1.00  0.00    -0.167 C  
BRANCH  10  11
HETATM   11  C   UNL     1      -8.120   7.415  69.510  1.00  0.00    -0.129 C  
HETATM   12  H   UNL     1      -6.587   6.223  69.049  1.00  0.00     0.000 HD 
HETATM   13  O   UNL     1      -7.478   6.137  69.367  1.00  0.00    -0.088 OA 
BRANCH  11  14
HETATM   14  C   UNL     1      -8.088   8.131  68.135  1.00  0.00    -0.128 C  
BRANCH  14  15
HETATM   15  N   UNL     1      -9.409   8.516  67.599  1.00  0.00    -0.136 NA 
HETATM   16  C   UNL     1      -9.674   9.952  67.771  1.00  0.00    -0.150 C  
HETATM   17  C   UNL     1      -8.723  10.819  66.931  1.00  0.00    -0.141 C  
HETATM   18  N   UNL     1      -8.828  10.598  65.471  1.00  0.00    -0.183 NA 
HETATM   19  C   UNL     1      -8.794   9.149  65.176  1.00  0.00    -0.200 C  
HETATM   20  C   UNL     1      -9.538   8.200  66.159  1.00  0.00    -0.118 C  
BRANCH  18  21
HETATM   21  C   UNL     1     -10.035  11.269  64.926  1.00  0.00    -0.274 C  
BRANCH  21  22
HETATM   22  C   UNL     1     -10.571  12.304  65.946  1.00  0.00    -0.256 C  
HETATM   23  N   UNL     1      -9.688  13.356  66.114  1.00  0.00    -0.374 N  
HETATM   24  O   UNL     1     -11.673  12.188  66.473  1.00  0.00    -0.495 OA 
HETATM   25  H   UNL     1      -8.842  13.329  65.545  1.00  0.00     0.000 HD 
BRANCH  23  26
HETATM   26  C   UNL     1      -9.820  14.456  66.977  1.00  0.00    -0.252 A  
HETATM   27  C   UNL     1      -8.959  14.692  68.069  1.00  0.00    -0.174 A  
HETATM   28  C   UNL     1      -9.155  15.845  68.849  1.00  0.00    -0.233 A  
HETATM   29  C   UNL     1      -7.788  13.822  68.434  1.00  0.00    -0.143 C  
HETATM   30  C   UNL     1     -10.145  16.769  68.531  1.00  0.00    -0.281 A  
HETATM   31  C   UNL     1     -10.966  16.554  67.430  1.00  0.00    -0.121 A  
HETATM   32  C   UNL     1     -10.815  15.404  66.644  1.00  0.00    -0.302 A  
HETATM   33  C   UNL     1     -11.776  15.171  65.507  1.00  0.00    -0.062 C  
ENDBRANCH  23  26
ENDBRANCH  21  22
ENDBRANCH  18  21
ENDBRANCH  14  15
ENDBRANCH  11  14
ENDBRANCH  10  11
ENDBRANCH   9  10
ENDBRANCH   8   9
ENDBRANCH   2   3
TORSDOF 9
ENDMDL
MODEL      281
REMARK 921   NORMALIZED FREE ENERGY PREDICTED BY IDOCK:   -2.36 KCAL/MOL
REMARK 922        TOTAL FREE ENERGY PREDICTED BY IDOCK:   -4.69 KCAL/MOL
REMARK 923 INTER-LIGAND FREE ENERGY PREDICTED BY IDOCK:   -6.28 KCAL/MOL
REMARK 924 INTRA-LIGAND FREE ENERGY PREDICTED BY IDOCK:    1.59 KCAL/MOL
REMARK 927      BINDING AFFINITY PREDICTED BY RF-SCORE:    0.00 PKD
ROOT
HETATM    1  C   UNL     1     -11.442  15.463  68.376  1.00  0.00    -0.355 C  
HETATM    2  O   UNL     1     -12.214  14.404  67.816  1.00  0.00    -0.314 OA 
ENDROOT
BRANCH   2   3
HETATM    3  C   UNL     1     -11.853  13.990  66.561  1.00  0.00    -0.417 A  
HETATM    4  C   UNL     1     -12.780  13.982  65.503  1.00  0.00    -0.517 A  
HETATM    5  C   UNL     1     -12.415  13.549  64.230  1.00  0.00    -0.311 A  
HETATM    6  C   UNL     1     -11.113  13.127  63.991  1.00  0.00    -0.395 A  
HETATM    7  C   UNL     1     -10.177  13.161  65.024  1.00  0.00    -0.296 A  
HETATM    8  C   UNL     1     -10.523  13.605  66.309  1.00  0.00    -0.291 A  
BRANCH   8   9
HETATM    9  O   UNL     1      -9.454  13.583  67.169  1.00  0.00    -0.227 OA 
BRANCH   9  10
HETATM   10  C   UNL     1      -9.081  12.338  67.758  1.00  0.00    -0.191 C  
BRANCH  10  11
HETATM   11  C   UNL     1      -7.644  11.972  67.339  1.00  0.00    -0.151 C  
HETATM   12  H   UNL     1      -5.818  11.972  68.143  1.00  0.00     0.000 HD 
HETATM   13  O   UNL     1      -6.704  12.198  68.401  1.00  0.00    -0.054 OA 
BRANCH  11  14
HETATM   14  C   UNL     1      -7.552  10.482  66.917  1.00  0.00    -0.110 C  
BRANCH  14  15
HETATM   15  N   UNL     1      -8.067   9.518  67.911  1.00  0.00    -0.106 NA 
HETATM   16  C   UNL     1      -8.890   8.472  67.285  1.00  0.00    -0.130 C  
HETATM   17  C   UNL     1      -8.065   7.566  66.357  1.00  0.00    -0.114 C  
HETATM   18  N   UNL     1      -6.981   6.823  67.038  1.00  0.00    -0.068 NA 
HETATM   19  C   UNL     1      -6.197   7.743  67.891  1.00  0.00    -0.050 C  
HETATM   20  C   UNL     1      -6.976   8.851  68.655  1.00  0.00    -0.064 C  
BRANCH  18  21
HETATM   21  C   UNL     1      -7.534   5.669  67.792  1.00  0.00    -0.077 C  
BRANCH  21  22
HETATM   22  C   UNL     1      -7.806   6.077  69.261  1.00  0.00    -0.103 C  
HETATM   23  N   UNL     1      -9.141   5.923  69.592  1.00  0.00    -0.136 N  
HETATM   24  O   UNL     1      -6.906   6.435  70.013  1.00  0.00    -0.051 OA 
HETATM   25  H   UNL     1      -9.746   5.548  68.862  1.00  0.00     0.000 HD 
BRANCH  23  26
HETATM   26  C   UNL     1      -9.760   6.223  70.817  1.00  0.00    -0.180 A  
HETATM   27  C   UNL     1     -10.420   7.443  71.073  1.00  0.00    -0.223 A  
HETATM   28  C   UNL     1     -11.041   7.628  72.320  1.00  0.00    -0.336 A  
HETATM   29  C   UNL     1     -10.567   8.558  70.074  1.00  0.00    -0.230 C  
HETATM   30  C   UNL     1     -11.052   6.616  73.276  1.00  0.00    -0.152 A  
HETATM   31  C   UNL     1     -10.435   5.400  73.005  1.00  0.00    -0.246 A  
HETATM   32  C   UNL     1      -9.786   5.189  71.781  1.00  0.00    -0.212 A  
HETATM   33  C   UNL     1      -9.063   3.886  71.558  1.00  0.00    -0.170 C  
ENDBRANCH  23  26
ENDBRANCH  21  22
ENDBRANCH  18  21
ENDBRANCH  14  15
ENDBRANCH  11  14
ENDBRANCH  10  11
ENDBRANCH   9  10
ENDBRANCH   8   9
ENDBRANCH   2   3
TORSDOF 9
ENDMDL
MODEL      282
REMARK 921   NORMALIZED FREE ENERGY PREDICTED BY IDOCK:   -2.27 KCAL/MOL
REMARK 922        TOTAL FREE ENERGY PREDICTED BY IDOCK:   -4.55 KCAL/MOL
REMARK 923 INTER-LIGAND FREE ENERGY PREDICTED BY IDOCK:   -3.35 KCAL/MOL
REMARK 924 INTRA-LIGAND FREE ENERGY PREDICTED BY IDOCK:   -1.20 KCAL/MOL
REMARK 927      BINDING AFFINITY PREDICTED BY RF-SCORE:    0.00 PKD
ROOT
HETATM    1  C   UNL     1      -5.649  12.690  71.301  1.00  0.00     0.027 C  
HETATM    2  O   UNL     1      -5.245  11.328  71.188  1.00  0.00    -0.119 OA 
ENDROOT
BRANCH   2   3
HETATM    3  C   UNL     1      -5.809  10.613  70.164  1.00  0.00    -0.087 A  
HETATM    4  C   UNL     1      -5.546  10.935  68.821  1.00  0.00    -0.040 A  
HETATM    5  C   UNL     1      -6.131  10.216  67.780  1.00  0.00    -0.056 A  
HETATM    6  C   UNL     1      -6.980   9.154  68.068  1.00  0.00    -0.077 A  
HETATM    7  C   UNL     1      -7.222   8.804  69.395  1.00  0.00    -0.061 A  
HETATM    8  C   UNL     1      -6.634   9.510  70.455  1.00  0.00    -0.086 A  
BRANCH   8   9
HETATM    9  O   UNL     1      -6.981   8.992  71.677  1.00  0.00    -0.215 OA 
BRANCH   9  10
HETATM   10  C   UNL     1      -6.940   7.576  71.852  1.00  0.00    -0.062 C  
BRANCH  10  11
HETATM   11  C   UNL     1      -8.109   7.127  72.750  1.00  0.00    -0.106 C  
HETATM   12  H   UNL     1      -8.797   7.496  74.586  1.00  0.00     0.000 HD 
HETATM   13  O   UNL     1      -8.076   7.773  74.032  1.00  0.00    -0.163 OA 
BRANCH  11  14
HETATM   14  C   UNL     1      -9.473   7.440  72.083  1.00  0.00    -0.139 C  
BRANCH  14  15
HETATM   15  N   UNL     1     -10.231   6.257  71.626  1.00  0.00    -0.192 NA 
HETATM   16  C   UNL     1     -11.199   6.598  70.573  1.00  0.00    -0.334 C  
HETATM   17  C   UNL     1     -10.508   7.054  69.279  1.00  0.00    -0.210 C  
HETATM   18  N   UNL     1      -9.638   6.029  68.660  1.00  0.00    -0.123 NA 
HETATM   19  C   UNL     1      -8.747   5.439  69.683  1.00  0.00    -0.103 C  
HETATM   20  C   UNL     1      -9.343   5.197  71.099  1.00  0.00    -0.148 C  
BRANCH  18  21
HETATM   21  C   UNL     1     -10.454   5.012  67.950  1.00  0.00     0.032 C  
BRANCH  21  22
HETATM   22  C   UNL     1      -9.529   3.995  67.236  1.00  0.00    -0.195 C  
HETATM   23  N   UNL     1      -8.975   4.531  66.087  1.00  0.00    -0.117 N  
HETATM   24  O   UNL     1      -9.305   2.882  67.701  1.00  0.00    -0.194 OA 
HETATM   25  H   UNL     1      -9.216   5.501  65.881  1.00  0.00     0.000 HD 
BRANCH  23  26
HETATM   26  C   UNL     1      -8.119   3.897  65.172  1.00  0.00    -0.097 A  
HETATM   27  C   UNL     1      -6.719   3.837  65.335  1.00  0.00    -0.048 A  
HETATM   28  C   UNL     1      -5.956   3.144  64.379  1.00  0.00    -0.018 A  
HETATM   29  C   UNL     1      -5.971   4.415  66.504  1.00  0.00    -0.027 C  
HETATM   30  C   UNL     1      -6.563   2.485  63.314  1.00  0.00    -0.026 A  
HETATM   31  C   UNL     1      -7.946   2.512  63.179  1.00  0.00    -0.069 A  
HETATM   32  C   UNL     1      -8.736   3.213  64.100  1.00  0.00    -0.093 A  
HETATM   33  C   UNL     1     -10.224   3.283  63.873  1.00  0.00    -0.207 C  
ENDBRANCH  23  26
ENDBRANCH  21  22
ENDBRANCH  18  21
ENDBRANCH  14  15
ENDBRANCH  11  14
ENDBRANCH  10  11
ENDBRANCH   9  10
ENDBRANCH   8   9
ENDBRANCH   2   3
TORSDOF 9
ENDMDL
MODEL      283
REMARK 921   NORMALIZED FREE ENERGY PREDICTED BY IDOCK:   -2.27 KCAL/MOL
REMARK 922        TOTAL FREE ENERGY PREDICTED BY IDOCK:   -4.55 KCAL/MOL
REMARK 923 INTER-LIGAND FREE ENERGY PREDICTED BY IDOCK:   -5.14 KCAL/MOL
REMARK 924 INTRA-LIGAND FREE ENERGY PREDICTED BY IDOCK:    0.59 KCAL/MOL
REMARK 927      BINDING AFFINITY PREDICTED BY RF-SCORE:    0.00 PKD
ROOT
HETATM    1  C   UNL     1     -10.340   4.035  63.337  1.00  0.00    -0.123 C  
HETATM    2  O   UNL     1     -10.684   3.620  64.656  1.00  0.00    -0.119 OA 
ENDROOT
BRANCH   2   3
HETATM    3  C   UNL     1      -9.661   3.584  65.565  1.00  0.00    -0.125 A  
HETATM    4  C   UNL     1      -8.897   2.418  65.755  1.00  0.00    -0.128 A  
HETATM    5  C   UNL     1      -7.864   2.378  66.690  1.00  0.00    -0.072 A  
HETATM    6  C   UNL     1      -7.571   3.509  67.443  1.00  0.00    -0.074 A  
HETATM    7  C   UNL     1      -8.299   4.681  67.240  1.00  0.00    -0.105 A  
HETATM    8  C   UNL     1      -9.335   4.742  66.296  1.00  0.00    -0.149 A  
BRANCH   8   9
HETATM    9  O   UNL     1      -9.906   5.989  66.236  1.00  0.00    -0.141 OA 
BRANCH   9  10
HETATM   10  C   UNL     1      -9.368   7.024  67.058  1.00  0.00    -0.146 C  
BRANCH  10  11
HETATM   11  C   UNL     1      -8.918   8.207  66.181  1.00  0.00    -0.178 C  
HETATM   12  H   UNL     1      -9.756   9.591  65.013  1.00  0.00     0.000 HD 
HETATM   13  O   UNL     1     -10.033   8.862  65.554  1.00  0.00    -0.005 OA 
BRANCH  11  14
HETATM   14  C   UNL     1      -8.145   9.258  67.019  1.00  0.00    -0.112 C  
BRANCH  14  15
HETATM   15  N   UNL     1      -8.993  10.161  67.824  1.00  0.00    -0.128 NA 
HETATM   16  C   UNL     1      -8.211  10.902  68.824  1.00  0.00    -0.151 C  
HETATM   17  C   UNL     1      -7.223  11.884  68.174  1.00  0.00    -0.085 C  
HETATM   18  N   UNL     1      -7.864  12.938  67.355  1.00  0.00    -0.174 NA 
HETATM   19  C   UNL     1      -8.855  12.332  66.439  1.00  0.00    -0.071 C  
HETATM   20  C   UNL     1      -9.706  11.149  66.984  1.00  0.00    -0.186 C  
BRANCH  18  21
HETATM   21  C   UNL     1      -8.449  13.990  68.223  1.00  0.00    -0.171 C  
BRANCH  21  22
HETATM   22  C   UNL     1      -8.769  15.252  67.384  1.00  0.00    -0.179 C  
HETATM   23  N   UNL     1      -8.727  16.400  68.155  1.00  0.00    -0.187 N  
HETATM   24  O   UNL     1      -8.974  15.194  66.176  1.00  0.00    -0.279 OA 
HETATM   25  H   UNL     1      -8.473  16.275  69.135  1.00  0.00     0.000 HD 
BRANCH  23  26
HETATM   26  C   UNL     1      -8.993  17.717  67.747  1.00  0.00    -0.247 A  
HETATM   27  C   UNL     1      -8.242  18.387  66.759  1.00  0.00    -0.267 A  
HETATM   28  C   UNL     1      -8.616  19.693  66.395  1.00  0.00    -0.390 A  
HETATM   29  C   UNL     1      -7.089  17.782  66.006  1.00  0.00    -0.335 C  
HETATM   30  C   UNL     1      -9.732  20.305  66.957  1.00  0.00    -0.598 A  
HETATM   31  C   UNL     1     -10.493  19.626  67.901  1.00  0.00    -0.556 A  
HETATM   32  C   UNL     1     -10.137  18.332  68.305  1.00  0.00    -0.406 A  
HETATM   33  C   UNL     1     -10.943  17.662  69.387  1.00  0.00     0.747 C  
ENDBRANCH  23  26
ENDBRANCH  21  22
ENDBRANCH  18  21
ENDBRANCH  14  15
ENDBRANCH  11  14
ENDBRANCH  10  11
ENDBRANCH   9  10
ENDBRANCH   8   9
ENDBRANCH   2   3
TORSDOF 9
ENDMDL
MODEL      284
REMARK 921   NORMALIZED FREE ENERGY PREDICTED BY IDOCK:   -2.21 KCAL/MOL
REMARK 922        TOTAL FREE ENERGY PREDICTED BY IDOCK:   -4.47 KCAL/MOL
REMARK 923 INTER-LIGAND FREE ENERGY PREDICTED BY IDOCK:   -3.54 KCAL/MOL
REMARK 924 INTRA-LIGAND FREE ENERGY PREDICTED BY IDOCK:   -0.93 KCAL/MOL
REMARK 927      BINDING AFFINITY PREDICTED BY RF-SCORE:    0.00 PKD
ROOT
HETATM    1  C   UNL     1      -7.656   8.207  70.944  1.00  0.00    -0.076 C  
HETATM    2  O   UNL     1      -6.792   7.075  70.981  1.00  0.00    -0.055 OA 
ENDROOT
BRANCH   2   3
HETATM    3  C   UNL     1      -6.797   6.347  72.141  1.00  0.00    -0.072 A  
HETATM    4  C   UNL     1      -6.392   6.919  73.361  1.00  0.00    -0.063 A  
HETATM    5  C   UNL     1      -6.385   6.175  74.539  1.00  0.00    -0.070 A  
HETATM    6  C   UNL     1      -6.795   4.847  74.518  1.00  0.00    -0.072 A  
HETATM    7  C   UNL     1      -7.231   4.278  73.322  1.00  0.00    -0.074 A  
HETATM    8  C   UNL     1      -7.255   5.016  72.129  1.00  0.00    -0.088 A  
BRANCH   8   9
HETATM    9  O   UNL     1      -7.738   4.280  71.076  1.00  0.00    -0.063 OA 
BRANCH   9  10
HETATM   10  C   UNL     1      -6.804   3.645  70.204  1.00  0.00    -0.034 C  
BRANCH  10  11
HETATM   11  C   UNL     1      -6.709   4.428  68.881  1.00  0.00    -0.046 C  
HETATM   12  H   UNL     1      -5.331   4.848  67.500  1.00  0.00     0.000 HD 
HETATM   13  O   UNL     1      -5.390   4.365  68.316  1.00  0.00    -0.010 OA 
BRANCH  11  14
HETATM   14  C   UNL     1      -7.712   3.876  67.835  1.00  0.00    -0.067 C  
BRANCH  14  15
HETATM   15  N   UNL     1      -9.108   4.326  68.009  1.00  0.00    -0.123 NA 
HETATM   16  C   UNL     1      -9.181   5.677  68.585  1.00  0.00    -0.122 C  
HETATM   17  C   UNL     1      -8.616   6.743  67.633  1.00  0.00    -0.121 C  
HETATM   18  N   UNL     1      -9.339   6.853  66.346  1.00  0.00    -0.164 NA 
HETATM   19  C   UNL     1      -9.528   5.509  65.756  1.00  0.00    -0.052 C  
HETATM   20  C   UNL     1      -9.851   4.339  66.729  1.00  0.00    -0.205 C  
BRANCH  18  21
HETATM   21  C   UNL     1     -10.617   7.588  66.526  1.00  0.00     0.183 C  
BRANCH  21  22
HETATM   22  C   UNL     1     -10.346   8.969  67.172  1.00  0.00    -0.272 C  
HETATM   23  N   UNL     1      -9.780   9.852  66.268  1.00  0.00    -0.206 N  
HETATM   24  O   UNL     1     -10.661   9.218  68.331  1.00  0.00    -0.211 OA 
HETATM   25  H   UNL     1      -9.645   9.500  65.320  1.00  0.00     0.000 HD 
BRANCH  23  26
HETATM   26  C   UNL     1      -9.371  11.174  66.504  1.00  0.00    -0.180 A  
HETATM   27  C   UNL     1     -10.271  12.252  66.635  1.00  0.00    -0.235 A  
HETATM   28  C   UNL     1      -9.759  13.532  66.908  1.00  0.00    -0.261 A  
HETATM   29  C   UNL     1     -11.768  12.125  66.564  1.00  0.00    -0.392 C  
HETATM   30  C   UNL     1      -8.395  13.737  67.095  1.00  0.00    -0.153 A  
HETATM   31  C   UNL     1      -7.515  12.665  67.006  1.00  0.00     0.030 A  
HETATM   32  C   UNL     1      -7.987  11.379  66.711  1.00  0.00    -0.160 A  
HETATM   33  C   UNL     1      -6.992  10.261  66.546  1.00  0.00    -0.107 C  
ENDBRANCH  23  26
ENDBRANCH  21  22
ENDBRANCH  18  21
ENDBRANCH  14  15
ENDBRANCH  11  14
ENDBRANCH  10  11
ENDBRANCH   9  10
ENDBRANCH   8   9
ENDBRANCH   2   3
TORSDOF 9
ENDMDL
MODEL      285
REMARK 921   NORMALIZED FREE ENERGY PREDICTED BY IDOCK:   -2.14 KCAL/MOL
REMARK 922        TOTAL FREE ENERGY PREDICTED BY IDOCK:   -4.36 KCAL/MOL
REMARK 923 INTER-LIGAND FREE ENERGY PREDICTED BY IDOCK:   -4.24 KCAL/MOL
REMARK 924 INTRA-LIGAND FREE ENERGY PREDICTED BY IDOCK:   -0.12 KCAL/MOL
REMARK 927      BINDING AFFINITY PREDICTED BY RF-SCORE:    0.00 PKD
ROOT
HETATM    1  C   UNL     1     -10.860  17.004  65.372  1.00  0.00    -0.073 C  
HETATM    2  O   UNL     1     -10.370  17.239  66.689  1.00  0.00    -0.317 OA 
ENDROOT
BRANCH   2   3
HETATM    3  C   UNL     1      -9.044  17.569  66.791  1.00  0.00    -0.262 A  
HETATM    4  C   UNL     1      -8.491  18.604  66.016  1.00  0.00    -0.047 A  
HETATM    5  C   UNL     1      -7.140  18.931  66.110  1.00  0.00    -0.284 A  
HETATM    6  C   UNL     1      -6.322  18.234  66.992  1.00  0.00    -0.193 A  
HETATM    7  C   UNL     1      -6.865  17.228  67.789  1.00  0.00    -0.172 A  
HETATM    8  C   UNL     1      -8.226  16.893  67.715  1.00  0.00    -0.189 A  
BRANCH   8   9
HETATM    9  O   UNL     1      -8.561  15.897  68.597  1.00  0.00    -0.176 OA 
BRANCH   9  10
HETATM   10  C   UNL     1      -8.841  14.597  68.081  1.00  0.00    -0.173 C  
BRANCH  10  11
HETATM   11  C   UNL     1     -10.253  14.157  68.510  1.00  0.00    -0.247 C  
HETATM   12  H   UNL     1     -12.040  13.875  67.669  1.00  0.00     0.000 HD 
HETATM   13  O   UNL     1     -11.169  14.146  67.404  1.00  0.00    -0.296 OA 
BRANCH  11  14
HETATM   14  C   UNL     1     -10.227  12.737  69.133  1.00  0.00     0.260 C  
BRANCH  14  15
HETATM   15  N   UNL     1     -11.520  12.023  69.115  1.00  0.00    -0.277 NA 
HETATM   16  C   UNL     1     -11.355  10.595  68.807  1.00  0.00    -0.277 C  
HETATM   17  C   UNL     1     -10.592   9.849  69.913  1.00  0.00    -0.273 C  
HETATM   18  N   UNL     1     -11.264   9.865  71.232  1.00  0.00    -0.344 NA 
HETATM   19  C   UNL     1     -11.685  11.242  71.568  1.00  0.00     1.100 C  
HETATM   20  C   UNL     1     -12.230  12.127  70.410  1.00  0.00    -0.294 C  
BRANCH  18  21
HETATM   21  C   UNL     1     -12.389   8.896  71.256  1.00  0.00    -0.291 C  
BRANCH  21  22
HETATM   22  C   UNL     1     -11.939   7.547  70.642  1.00  0.00    -0.133 C  
HETATM   23  N   UNL     1     -10.594   7.310  70.866  1.00  0.00    -0.218 N  
HETATM   24  O   UNL     1     -12.728   6.793  70.082  1.00  0.00     0.181 OA 
HETATM   25  H   UNL     1     -10.097   8.014  71.411  1.00  0.00     0.000 HD 
BRANCH  23  26
HETATM   26  C   UNL     1      -9.834   6.212  70.431  1.00  0.00    -0.178 A  
HETATM   27  C   UNL     1      -9.094   6.210  69.231  1.00  0.00    -0.129 A  
HETATM   28  C   UNL     1      -8.334   5.072  68.906  1.00  0.00    -0.083 A  
HETATM   29  C   UNL     1      -9.003   7.374  68.283  1.00  0.00    -0.130 C  
HETATM   30  C   UNL     1      -8.268   3.981  69.768  1.00  0.00    -0.066 A  
HETATM   31  C   UNL     1      -8.966   4.003  70.969  1.00  0.00    -0.163 A  
HETATM   32  C   UNL     1      -9.753   5.111  71.315  1.00  0.00    -0.228 A  
HETATM   33  C   UNL     1     -10.555   5.061  72.588  1.00  0.00    -0.274 C  
ENDBRANCH  23  26
ENDBRANCH  21  22
ENDBRANCH  18  21
ENDBRANCH  14  15
ENDBRANCH  11  14
ENDBRANCH  10  11
ENDBRANCH   9  10
ENDBRANCH   8   9
ENDBRANCH   2   3
TORSDOF 9
ENDMDL
MODEL      286
REMARK 921   NORMALIZED FREE ENERGY PREDICTED BY IDOCK:   -2.13 KCAL/MOL
REMARK 922        TOTAL FREE ENERGY PREDICTED BY IDOCK:   -4.34 KCAL/MOL
REMARK 923 INTER-LIGAND FREE ENERGY PREDICTED BY IDOCK:   -7.28 KCAL/MOL
REMARK 924 INTRA-LIGAND FREE ENERGY PREDICTED BY IDOCK:    2.94 KCAL/MOL
REMARK 927      BINDING AFFINITY PREDICTED BY RF-SCORE:    0.00 PKD
ROOT
HETATM    1  C   UNL     1      -6.444  20.021  69.534  1.00  0.00    -0.335 C  
HETATM    2  O   UNL     1      -7.012  18.940  68.801  1.00  0.00    -0.280 OA 
ENDROOT
BRANCH   2   3
HETATM    3  C   UNL     1      -8.203  19.194  68.173  1.00  0.00    -0.318 A  
HETATM    4  C   UNL     1      -9.224  19.917  68.815  1.00  0.00    -0.171 A  
HETATM    5  C   UNL     1     -10.440  20.164  68.181  1.00  0.00    -0.375 A  
HETATM    6  C   UNL     1     -10.649  19.701  66.887  1.00  0.00    -0.603 A  
HETATM    7  C   UNL     1      -9.632  19.012  66.227  1.00  0.00    -0.367 A  
HETATM    8  C   UNL     1      -8.398  18.764  66.847  1.00  0.00    -0.270 A  
BRANCH   8   9
HETATM    9  O   UNL     1      -7.531  18.095  66.020  1.00  0.00    -0.368 OA 
BRANCH   9  10
HETATM   10  C   UNL     1      -7.496  16.670  66.081  1.00  0.00     0.012 C  
BRANCH  10  11
HETATM   11  C   UNL     1      -6.177  16.208  66.729  1.00  0.00     0.289 C  
HETATM   12  H   UNL     1      -4.314  16.887  66.952  1.00  0.00     0.000 HD 
HETATM   13  O   UNL     1      -5.127  17.172  66.552  1.00  0.00    -0.210 OA 
BRANCH  11  14
HETATM   14  C   UNL     1      -6.362  15.964  68.250  1.00  0.00    -0.117 C  
BRANCH  14  15
HETATM   15  N   UNL     1      -6.873  14.626  68.610  1.00  0.00    -0.089 NA 
HETATM   16  C   UNL     1      -7.779  14.677  69.767  1.00  0.00     0.137 C  
HETATM   17  C   UNL     1      -9.075  15.441  69.453  1.00  0.00    -0.258 C  
HETATM   18  N   UNL     1      -9.890  14.838  68.374  1.00  0.00    -0.214 NA 
HETATM   19  C   UNL     1      -9.035  14.529  67.208  1.00  0.00    -0.210 C  
HETATM   20  C   UNL     1      -7.603  13.989  67.491  1.00  0.00    -0.180 C  
BRANCH  18  21
HETATM   21  C   UNL     1     -10.627  13.652  68.879  1.00  0.00    -0.190 C  
BRANCH  21  22
HETATM   22  C   UNL     1     -10.977  12.706  67.704  1.00  0.00    -0.241 C  
HETATM   23  N   UNL     1      -9.901  12.538  66.849  1.00  0.00    -0.223 N  
HETATM   24  O   UNL     1     -12.069  12.155  67.615  1.00  0.00    -0.522 OA 
HETATM   25  H   UNL     1      -9.040  13.019  67.109  1.00  0.00     0.000 HD 
BRANCH  23  26
HETATM   26  C   UNL     1      -9.856  11.782  65.666  1.00  0.00    -0.237 A  
HETATM   27  C   UNL     1      -9.256  10.508  65.584  1.00  0.00    -0.221 A  
HETATM   28  C   UNL     1      -9.300   9.818  64.359  1.00  0.00    -0.278 A  
HETATM   29  C   UNL     1      -8.615   9.791  66.740  1.00  0.00    -0.133 C  
HETATM   30  C   UNL     1      -9.961  10.350  63.257  1.00  0.00    -0.118 A  
HETATM   31  C   UNL     1     -10.586  11.588  63.353  1.00  0.00    -0.460 A  
HETATM   32  C   UNL     1     -10.543  12.315  64.551  1.00  0.00    -0.346 A  
HETATM   33  C   UNL     1     -11.165  13.686  64.590  1.00  0.00    -0.383 C  
ENDBRANCH  23  26
ENDBRANCH  21  22
ENDBRANCH  18  21
ENDBRANCH  14  15
ENDBRANCH  11  14
ENDBRANCH  10  11
ENDBRANCH   9  10
ENDBRANCH   8   9
ENDBRANCH   2   3
TORSDOF 9
ENDMDL
MODEL      287
REMARK 921   NORMALIZED FREE ENERGY PREDICTED BY IDOCK:   -2.09 KCAL/MOL
REMARK 922        TOTAL FREE ENERGY PREDICTED BY IDOCK:   -4.28 KCAL/MOL
REMARK 923 INTER-LIGAND FREE ENERGY PREDICTED BY IDOCK:   -4.68 KCAL/MOL
REMARK 924 INTRA-LIGAND FREE ENERGY PREDICTED BY IDOCK:    0.40 KCAL/MOL
REMARK 927      BINDING AFFINITY PREDICTED BY RF-SCORE:    0.00 PKD
ROOT
HETATM    1  C   UNL     1      -9.637  11.770  67.218  1.00  0.00    -0.176 C  
HETATM    2  O   UNL     1     -10.368  10.805  66.467  1.00  0.00    -0.231 OA 
ENDROOT
BRANCH   2   3
HETATM    3  C   UNL     1     -10.015  10.668  65.151  1.00  0.00    -0.303 A  
HETATM    4  C   UNL     1     -10.501  11.553  64.171  1.00  0.00    -0.408 A  
HETATM    5  C   UNL     1     -10.151  11.406  62.830  1.00  0.00    -0.249 A  
HETATM    6  C   UNL     1      -9.299  10.376  62.449  1.00  0.00    -0.294 A  
HETATM    7  C   UNL     1      -8.784   9.513  63.415  1.00  0.00    -0.235 A  
HETATM    8  C   UNL     1      -9.117   9.653  64.770  1.00  0.00    -0.231 A  
BRANCH   8   9
HETATM    9  O   UNL     1      -8.487   8.721  65.556  1.00  0.00    -0.145 OA 
BRANCH   9  10
HETATM   10  C   UNL     1      -9.193   7.527  65.893  1.00  0.00     0.021 C  
BRANCH  10  11
HETATM   11  C   UNL     1      -8.274   6.305  65.701  1.00  0.00    -0.143 C  
HETATM   12  H   UNL     1      -8.236   4.634  64.612  1.00  0.00     0.000 HD 
HETATM   13  O   UNL     1      -8.802   5.387  64.730  1.00  0.00    -0.122 OA 
BRANCH  11  14
HETATM   14  C   UNL     1      -6.860   6.741  65.239  1.00  0.00    -0.051 C  
BRANCH  14  15
HETATM   15  N   UNL     1      -5.746   6.211  66.052  1.00  0.00    -0.019 NA 
HETATM   16  C   UNL     1      -5.651   6.882  67.357  1.00  0.00    -0.013 C  
HETATM   17  C   UNL     1      -6.867   6.586  68.248  1.00  0.00    -0.071 C  
HETATM   18  N   UNL     1      -7.043   5.155  68.583  1.00  0.00    -0.057 NA 
HETATM   19  C   UNL     1      -6.938   4.334  67.357  1.00  0.00    -0.063 C  
HETATM   20  C   UNL     1      -5.880   4.758  66.298  1.00  0.00    -0.022 C  
BRANCH  18  21
HETATM   21  C   UNL     1      -6.081   4.744  69.637  1.00  0.00    -0.018 C  
BRANCH  21  22
HETATM   22  C   UNL     1      -6.608   5.169  71.030  1.00  0.00    -0.039 C  
HETATM   23  N   UNL     1      -7.947   5.515  70.983  1.00  0.00    -0.104 N  
HETATM   24  O   UNL     1      -5.900   5.133  72.031  1.00  0.00    -0.019 OA 
HETATM   25  H   UNL     1      -8.404   5.423  70.076  1.00  0.00     0.000 HD 
BRANCH  23  26
HETATM   26  C   UNL     1      -8.749   5.979  72.038  1.00  0.00    -0.136 A  
HETATM   27  C   UNL     1      -8.825   7.337  72.414  1.00  0.00    -0.143 A  
HETATM   28  C   UNL     1      -9.690   7.701  73.461  1.00  0.00    -0.358 A  
HETATM   29  C   UNL     1      -8.086   8.453  71.729  1.00  0.00    -0.192 C  
HETATM   30  C   UNL     1     -10.496   6.757  74.090  1.00  0.00    -0.220 A  
HETATM   31  C   UNL     1     -10.448   5.427  73.690  1.00  0.00    -0.291 A  
HETATM   32  C   UNL     1      -9.581   5.023  72.666  1.00  0.00    -0.165 A  
HETATM   33  C   UNL     1      -9.503   3.560  72.316  1.00  0.00    -0.183 C  
ENDBRANCH  23  26
ENDBRANCH  21  22
ENDBRANCH  18  21
ENDBRANCH  14  15
ENDBRANCH  11  14
ENDBRANCH  10  11
ENDBRANCH   9  10
ENDBRANCH   8   9
ENDBRANCH   2   3
TORSDOF 9
ENDMDL
MODEL      288
REMARK 921   NORMALIZED FREE ENERGY PREDICTED BY IDOCK:   -1.95 KCAL/MOL
REMARK 922        TOTAL FREE ENERGY PREDICTED BY IDOCK:   -4.07 KCAL/MOL
REMARK 923 INTER-LIGAND FREE ENERGY PREDICTED BY IDOCK:   -5.20 KCAL/MOL
REMARK 924 INTRA-LIGAND FREE ENERGY PREDICTED BY IDOCK:    1.13 KCAL/MOL
REMARK 927      BINDING AFFINITY PREDICTED BY RF-SCORE:    0.00 PKD
ROOT
HETATM    1  C   UNL     1     -12.997  14.957  65.477  1.00  0.00     0.474 C  
HETATM    2  O   UNL     1     -12.276  13.890  66.088  1.00  0.00    -0.423 OA 
ENDROOT
BRANCH   2   3
HETATM    3  C   UNL     1     -11.742  12.957  65.238  1.00  0.00    -0.364 A  
HETATM    4  C   UNL     1     -12.073  12.943  63.871  1.00  0.00    -0.553 A  
HETATM    5  C   UNL     1     -11.539  11.986  63.011  1.00  0.00    -0.067 A  
HETATM    6  C   UNL     1     -10.654  11.034  63.502  1.00  0.00    -0.303 A  
HETATM    7  C   UNL     1     -10.291  11.058  64.848  1.00  0.00    -0.378 A  
HETATM    8  C   UNL     1     -10.811  12.021  65.726  1.00  0.00    -0.287 A  
BRANCH   8   9
HETATM    9  O   UNL     1     -10.310  11.885  66.997  1.00  0.00    -0.208 OA 
BRANCH   9  10
HETATM   10  C   UNL     1      -9.642  10.671  67.338  1.00  0.00    -0.158 C  
BRANCH  10  11
HETATM   11  C   UNL     1      -8.627  10.933  68.466  1.00  0.00    -0.152 C  
HETATM   12  H   UNL     1      -7.740  12.498  69.331  1.00  0.00     0.000 HD 
HETATM   13  O   UNL     1      -8.366  12.336  68.635  1.00  0.00    -0.110 OA 
BRANCH  11  14
HETATM   14  C   UNL     1      -9.138  10.368  69.817  1.00  0.00     0.047 C  
BRANCH  14  15
HETATM   15  N   UNL     1      -9.273   8.898  69.868  1.00  0.00    -0.159 NA 
HETATM   16  C   UNL     1      -9.081   8.377  71.229  1.00  0.00    -0.178 C  
HETATM   17  C   UNL     1     -10.194   8.834  72.186  1.00  0.00    -0.301 C  
HETATM   18  N   UNL     1     -11.549   8.376  71.804  1.00  0.00    -0.287 NA 
HETATM   19  C   UNL     1     -11.790   8.651  70.371  1.00  0.00     0.073 C  
HETATM   20  C   UNL     1     -10.599   8.445  69.392  1.00  0.00    -0.197 C  
BRANCH  18  21
HETATM   21  C   UNL     1     -11.736   6.946  72.157  1.00  0.00    -0.288 C  
BRANCH  21  22
HETATM   22  C   UNL     1     -10.632   6.497  73.146  1.00  0.00    -0.265 C  
HETATM   23  N   UNL     1      -9.742   5.620  72.551  1.00  0.00    -0.152 N  
HETATM   24  O   UNL     1     -10.567   6.935  74.290  1.00  0.00    -0.232 OA 
HETATM   25  H   UNL     1      -9.906   5.412  71.566  1.00  0.00     0.000 HD 
BRANCH  23  26
HETATM   26  C   UNL     1      -8.640   4.983  73.145  1.00  0.00    -0.110 A  
HETATM   27  C   UNL     1      -7.534   5.682  73.672  1.00  0.00    -0.091 A  
HETATM   28  C   UNL     1      -6.499   4.950  74.280  1.00  0.00    -0.067 A  
HETATM   29  C   UNL     1      -7.401   7.180  73.689  1.00  0.00    -0.088 C  
HETATM   30  C   UNL     1      -6.575   3.567  74.409  1.00  0.00    -0.039 A  
HETATM   31  C   UNL     1      -7.685   2.885  73.925  1.00  0.00    -0.060 A  
HETATM   32  C   UNL     1      -8.725   3.580  73.291  1.00  0.00    -0.089 A  
HETATM   33  C   UNL     1      -9.873   2.795  72.711  1.00  0.00    -0.193 C  
ENDBRANCH  23  26
ENDBRANCH  21  22
ENDBRANCH  18  21
ENDBRANCH  14  15
ENDBRANCH  11  14
ENDBRANCH  10  11
ENDBRANCH   9  10
ENDBRANCH   8   9
ENDBRANCH   2   3
TORSDOF 9
ENDMDL
MODEL      289
REMARK 921   NORMALIZED FREE ENERGY PREDICTED BY IDOCK:   -1.89 KCAL/MOL
REMARK 922        TOTAL FREE ENERGY PREDICTED BY IDOCK:   -3.98 KCAL/MOL
REMARK 923 INTER-LIGAND FREE ENERGY PREDICTED BY IDOCK:   -5.14 KCAL/MOL
REMARK 924 INTRA-LIGAND FREE ENERGY PREDICTED BY IDOCK:    1.16 KCAL/MOL
REMARK 927      BINDING AFFINITY PREDICTED BY RF-SCORE:    0.00 PKD
ROOT
HETATM    1  C   UNL     1     -10.919   5.439  66.294  1.00  0.00     0.021 C  
HETATM    2  O   UNL     1     -10.740   6.568  67.144  1.00  0.00    -0.277 OA 
ENDROOT
BRANCH   2   3
HETATM    3  C   UNL     1      -9.957   6.374  68.251  1.00  0.00    -0.140 A  
HETATM    4  C   UNL     1     -10.194   5.302  69.131  1.00  0.00    -0.281 A  
HETATM    5  C   UNL     1      -9.405   5.113  70.264  1.00  0.00    -0.209 A  
HETATM    6  C   UNL     1      -8.358   5.988  70.530  1.00  0.00    -0.128 A  
HETATM    7  C   UNL     1      -8.093   7.035  69.648  1.00  0.00    -0.130 A  
HETATM    8  C   UNL     1      -8.870   7.233  68.497  1.00  0.00    -0.129 A  
BRANCH   8   9
HETATM    9  O   UNL     1      -8.429   8.300  67.754  1.00  0.00    -0.129 OA 
BRANCH   9  10
HETATM   10  C   UNL     1      -9.390   9.071  67.035  1.00  0.00    -0.150 C  
BRANCH  10  11
HETATM   11  C   UNL     1     -10.324   9.796  68.023  1.00  0.00    -0.207 C  
HETATM   12  H   UNL     1     -10.328  10.321  69.948  1.00  0.00     0.000 HD 
HETATM   13  O   UNL     1      -9.752   9.874  69.338  1.00  0.00    -0.189 OA 
BRANCH  11  14
HETATM   14  C   UNL     1     -10.632  11.237  67.541  1.00  0.00    -0.218 C  
BRANCH  14  15
HETATM   15  N   UNL     1     -10.513  12.282  68.578  1.00  0.00    -0.232 NA 
HETATM   16  C   UNL     1      -9.783  13.461  68.088  1.00  0.00    -0.226 C  
HETATM   17  C   UNL     1     -10.552  14.196  66.979  1.00  0.00    -0.276 C  
HETATM   18  N   UNL     1     -11.868  14.728  67.400  1.00  0.00    -0.354 NA 
HETATM   19  C   UNL     1     -12.630  13.680  68.115  1.00  0.00     0.653 C  
HETATM   20  C   UNL     1     -11.835  12.737  69.063  1.00  0.00    -0.297 C  
BRANCH  18  21
HETATM   21  C   UNL     1     -11.698  15.966  68.202  1.00  0.00    -0.130 C  
BRANCH  21  22
HETATM   22  C   UNL     1     -10.325  16.612  67.894  1.00  0.00    -0.310 C  
HETATM   23  N   UNL     1      -9.632  16.912  69.053  1.00  0.00    -0.247 N  
HETATM   24  O   UNL     1      -9.925  16.769  66.745  1.00  0.00    -0.261 OA 
HETATM   25  H   UNL     1     -10.086  16.653  69.929  1.00  0.00     0.000 HD 
BRANCH  23  26
HETATM   26  C   UNL     1      -8.377  17.532  69.165  1.00  0.00     0.078 A  
HETATM   27  C   UNL     1      -8.179  18.918  68.990  1.00  0.00    -0.193 A  
HETATM   28  C   UNL     1      -6.887  19.444  69.162  1.00  0.00    -0.374 A  
HETATM   29  C   UNL     1      -9.274  19.904  68.688  1.00  0.00    -0.215 C  
HETATM   30  C   UNL     1      -5.824  18.631  69.544  1.00  0.00    -0.255 A  
HETATM   31  C   UNL     1      -6.031  17.273  69.755  1.00  0.00    -0.243 A  
HETATM   32  C   UNL     1      -7.301  16.710  69.570  1.00  0.00     0.034 A  
HETATM   33  C   UNL     1      -7.465  15.221  69.733  1.00  0.00    -0.122 C  
ENDBRANCH  23  26
ENDBRANCH  21  22
ENDBRANCH  18  21
ENDBRANCH  14  15
ENDBRANCH  11  14
ENDBRANCH  10  11
ENDBRANCH   9  10
ENDBRANCH   8   9
ENDBRANCH   2   3
TORSDOF 9
ENDMDL
MODEL      290
REMARK 921   NORMALIZED FREE ENERGY PREDICTED BY IDOCK:   -1.84 KCAL/MOL
REMARK 922        TOTAL FREE ENERGY PREDICTED BY IDOCK:   -3.90 KCAL/MOL
REMARK 923 INTER-LIGAND FREE ENERGY PREDICTED BY IDOCK:   -3.88 KCAL/MOL
REMARK 924 INTRA-LIGAND FREE ENERGY PREDICTED BY IDOCK:   -0.02 KCAL/MOL
REMARK 927      BINDING AFFINITY PREDICTED BY RF-SCORE:    0.00 PKD
ROOT
HETATM    1  C   UNL     1     -14.159  11.458  72.426  1.00  0.00     0.953 C  
HETATM    2  O   UNL     1     -12.892  12.084  72.247  1.00  0.00    -0.174 OA 
ENDROOT
BRANCH   2   3
HETATM    3  C   UNL     1     -12.439  12.174  70.957  1.00  0.00    -0.269 A  
HETATM    4  C   UNL     1     -12.480  13.392  70.255  1.00  0.00    -0.285 A  
HETATM    5  C   UNL     1     -12.032  13.480  68.938  1.00  0.00    -0.378 A  
HETATM    6  C   UNL     1     -11.524  12.351  68.306  1.00  0.00    -0.360 A  
HETATM    7  C   UNL     1     -11.448  11.146  69.002  1.00  0.00    -0.364 A  
HETATM    8  C   UNL     1     -11.884  11.042  70.331  1.00  0.00    -0.367 A  
BRANCH   8   9
HETATM    9  O   UNL     1     -11.701   9.780  70.838  1.00  0.00    -0.296 OA 
BRANCH   9  10
HETATM   10  C   UNL     1     -10.626   9.564  71.751  1.00  0.00     0.121 C  
BRANCH  10  11
HETATM   11  C   UNL     1     -10.740   8.157  72.368  1.00  0.00    -0.334 C  
HETATM   12  H   UNL     1     -11.635   7.287  73.924  1.00  0.00     0.000 HD 
HETATM   13  O   UNL     1     -11.565   8.154  73.543  1.00  0.00     0.197 OA 
BRANCH  11  14
HETATM   14  C   UNL     1     -11.339   7.151  71.351  1.00  0.00    -0.259 C  
BRANCH  14  15
HETATM   15  N   UNL     1     -10.703   5.819  71.340  1.00  0.00    -0.252 NA 
HETATM   16  C   UNL     1     -10.543   5.298  69.974  1.00  0.00    -0.230 C  
HETATM   17  C   UNL     1      -9.552   6.133  69.148  1.00  0.00    -0.135 C  
HETATM   18  N   UNL     1      -8.176   6.160  69.694  1.00  0.00    -0.115 NA 
HETATM   19  C   UNL     1      -8.213   6.463  71.142  1.00  0.00    -0.122 C  
HETATM   20  C   UNL     1      -9.367   5.836  71.976  1.00  0.00    -0.150 C  
BRANCH  18  21
HETATM   21  C   UNL     1      -7.470   4.890  69.390  1.00  0.00    -0.056 C  
BRANCH  21  22
HETATM   22  C   UNL     1      -7.102   4.836  67.886  1.00  0.00    -0.062 C  
HETATM   23  N   UNL     1      -8.005   5.548  67.116  1.00  0.00    -0.101 N  
HETATM   24  O   UNL     1      -6.094   4.265  67.484  1.00  0.00    -0.026 OA 
HETATM   25  H   UNL     1      -8.753   6.021  67.622  1.00  0.00     0.000 HD 
BRANCH  23  26
HETATM   26  C   UNL     1      -8.012   5.694  65.719  1.00  0.00    -0.109 A  
HETATM   27  C   UNL     1      -7.280   6.692  65.042  1.00  0.00    -0.074 A  
HETATM   28  C   UNL     1      -7.325   6.728  63.637  1.00  0.00    -0.073 A  
HETATM   29  C   UNL     1      -6.391   7.702  65.714  1.00  0.00    -0.042 C  
HETATM   30  C   UNL     1      -8.035   5.774  62.915  1.00  0.00    -0.104 A  
HETATM   31  C   UNL     1      -8.722   4.768  63.585  1.00  0.00    -0.130 A  
HETATM   32  C   UNL     1      -8.719   4.715  64.985  1.00  0.00    -0.143 A  
HETATM   33  C   UNL     1      -9.540   3.655  65.673  1.00  0.00    -0.142 C  
ENDBRANCH  23  26
ENDBRANCH  21  22
ENDBRANCH  18  21
ENDBRANCH  14  15
ENDBRANCH  11  14
ENDBRANCH  10  11
ENDBRANCH   9  10
ENDBRANCH   8   9
ENDBRANCH   2   3
TORSDOF 9
ENDMDL
MODEL      291
REMARK 921   NORMALIZED FREE ENERGY PREDICTED BY IDOCK:   -1.71 KCAL/MOL
REMARK 922        TOTAL FREE ENERGY PREDICTED BY IDOCK:   -3.71 KCAL/MOL
REMARK 923 INTER-LIGAND FREE ENERGY PREDICTED BY IDOCK:   -4.15 KCAL/MOL
REMARK 924 INTRA-LIGAND FREE ENERGY PREDICTED BY IDOCK:    0.44 KCAL/MOL
REMARK 927      BINDING AFFINITY PREDICTED BY RF-SCORE:    0.00 PKD
ROOT
HETATM    1  C   UNL     1     -12.206  15.339  66.973  1.00  0.00     0.602 C  
HETATM    2  O   UNL     1     -12.234  13.915  66.958  1.00  0.00    -0.421 OA 
ENDROOT
BRANCH   2   3
HETATM    3  C   UNL     1     -11.692  13.311  65.855  1.00  0.00    -0.365 A  
HETATM    4  C   UNL     1     -12.507  12.690  64.891  1.00  0.00    -0.564 A  
HETATM    5  C   UNL     1     -11.953  12.064  63.775  1.00  0.00    -0.588 A  
HETATM    6  C   UNL     1     -10.574  12.060  63.600  1.00  0.00    -0.503 A  
HETATM    7  C   UNL     1      -9.759  12.701  64.531  1.00  0.00     0.065 A  
HETATM    8  C   UNL     1     -10.299  13.345  65.654  1.00  0.00    -0.290 A  
BRANCH   8   9
HETATM    9  O   UNL     1      -9.331  13.932  66.429  1.00  0.00    -0.266 OA 
BRANCH   9  10
HETATM   10  C   UNL     1      -8.719  13.154  67.457  1.00  0.00    -0.201 C  
BRANCH  10  11
HETATM   11  C   UNL     1      -7.526  12.369  66.879  1.00  0.00     0.057 C  
HETATM   12  H   UNL     1      -5.554  12.247  67.157  1.00  0.00     0.000 HD 
HETATM   13  O   UNL     1      -6.290  12.732  67.514  1.00  0.00    -0.142 OA 
BRANCH  11  14
HETATM   14  C   UNL     1      -7.732  10.842  67.051  1.00  0.00    -0.121 C  
BRANCH  14  15
HETATM   15  N   UNL     1      -6.724  10.167  67.894  1.00  0.00    -0.066 NA 
HETATM   16  C   UNL     1      -7.098  10.183  69.316  1.00  0.00    -0.076 C  
HETATM   17  C   UNL     1      -8.358   9.347  69.591  1.00  0.00    -0.147 C  
HETATM   18  N   UNL     1      -8.218   7.910  69.264  1.00  0.00    -0.126 NA 
HETATM   19  C   UNL     1      -7.634   7.754  67.914  1.00  0.00    -0.116 C  
HETATM   20  C   UNL     1      -6.520   8.756  67.495  1.00  0.00    -0.057 C  
BRANCH  18  21
HETATM   21  C   UNL     1      -7.437   7.209  70.315  1.00  0.00    -0.085 C  
BRANCH  21  22
HETATM   22  C   UNL     1      -7.093   5.773  69.850  1.00  0.00    -0.068 C  
HETATM   23  N   UNL     1      -7.950   5.342  68.852  1.00  0.00    -0.093 N  
HETATM   24  O   UNL     1      -6.134   5.155  70.303  1.00  0.00    -0.017 OA 
HETATM   25  H   UNL     1      -8.655   6.012  68.544  1.00  0.00     0.000 HD 
BRANCH  23  26
HETATM   26  C   UNL     1      -7.963   4.091  68.215  1.00  0.00    -0.076 A  
HETATM   27  C   UNL     1      -8.760   3.010  68.647  1.00  0.00    -0.143 A  
HETATM   28  C   UNL     1      -8.727   1.810  67.914  1.00  0.00    -0.119 A  
HETATM   29  C   UNL     1      -9.705   3.061  69.815  1.00  0.00     0.021 C  
HETATM   30  C   UNL     1      -7.964   1.695  66.756  1.00  0.00    -0.071 A  
HETATM   31  C   UNL     1      -7.212   2.775  66.311  1.00  0.00    -0.066 A  
HETATM   32  C   UNL     1      -7.201   3.979  67.029  1.00  0.00    -0.068 A  
HETATM   33  C   UNL     1      -6.311   5.098  66.555  1.00  0.00    -0.036 C  
ENDBRANCH  23  26
ENDBRANCH  21  22
ENDBRANCH  18  21
ENDBRANCH  14  15
ENDBRANCH  11  14
ENDBRANCH  10  11
ENDBRANCH   9  10
ENDBRANCH   8   9
ENDBRANCH   2   3
TORSDOF 9
ENDMDL
MODEL      292
REMARK 921   NORMALIZED FREE ENERGY PREDICTED BY IDOCK:   -0.85 KCAL/MOL
REMARK 922        TOTAL FREE ENERGY PREDICTED BY IDOCK:   -2.40 KCAL/MOL
REMARK 923 INTER-LIGAND FREE ENERGY PREDICTED BY IDOCK:   -4.11 KCAL/MOL
REMARK 924 INTRA-LIGAND FREE ENERGY PREDICTED BY IDOCK:    1.71 KCAL/MOL
REMARK 927      BINDING AFFINITY PREDICTED BY RF-SCORE:    0.00 PKD
ROOT
HETATM    1  C   UNL     1      -8.074  21.142  67.306  1.00  0.00     0.194 C  
HETATM    2  O   UNL     1      -6.759  21.000  66.775  1.00  0.00    -0.297 OA 
ENDROOT
BRANCH   2   3
HETATM    3  C   UNL     1      -6.283  19.720  66.673  1.00  0.00    -0.177 A  
HETATM    4  C   UNL     1      -5.626  19.278  65.511  1.00  0.00    -0.195 A  
HETATM    5  C   UNL     1      -5.154  17.971  65.403  1.00  0.00    -0.186 A  
HETATM    6  C   UNL     1      -5.322  17.087  66.462  1.00  0.00    -0.116 A  
HETATM    7  C   UNL     1      -5.943  17.523  67.632  1.00  0.00    -0.157 A  
HETATM    8  C   UNL     1      -6.414  18.838  67.762  1.00  0.00    -0.211 A  
BRANCH   8   9
HETATM    9  O   UNL     1      -6.968  19.068  68.997  1.00  0.00    -0.303 OA 
BRANCH   9  10
HETATM   10  C   UNL     1      -8.371  19.317  69.077  1.00  0.00    -0.233 C  
BRANCH  10  11
HETATM   11  C   UNL     1      -9.136  17.982  69.151  1.00  0.00     0.098 C  
HETATM   12  H   UNL     1     -10.653  17.196  70.181  1.00  0.00     0.000 HD 
HETATM   13  O   UNL     1     -10.181  18.019  70.135  1.00  0.00     0.631 OA 
BRANCH  11  14
HETATM   14  C   UNL     1      -9.771  17.629  67.781  1.00  0.00    -0.280 C  
BRANCH  14  15
HETATM   15  N   UNL     1     -10.676  16.462  67.794  1.00  0.00    -0.331 NA 
HETATM   16  C   UNL     1     -11.299  16.235  66.482  1.00  0.00     0.432 C  
HETATM   17  C   UNL     1     -10.269  15.830  65.416  1.00  0.00    -0.349 C  
HETATM   18  N   UNL     1      -9.557  14.565  65.708  1.00  0.00    -0.259 NA 
HETATM   19  C   UNL     1      -9.060  14.576  67.101  1.00  0.00    -0.225 C  
HETATM   20  C   UNL     1      -9.974  15.219  68.183  1.00  0.00    -0.221 C  
BRANCH  18  21
HETATM   21  C   UNL     1     -10.427  13.397  65.415  1.00  0.00    -0.302 C  
BRANCH  21  22
HETATM   22  C   UNL     1      -9.684  12.083  65.763  1.00  0.00    -0.235 C  
HETATM   23  N   UNL     1      -9.414  11.995  67.117  1.00  0.00    -0.184 N  
HETATM   24  O   UNL     1      -9.436  11.233  64.915  1.00  0.00    -0.218 OA 
HETATM   25  H   UNL     1      -9.751  12.766  67.695  1.00  0.00     0.000 HD 
BRANCH  23  26
HETATM   26  C   UNL     1      -8.730  10.969  67.790  1.00  0.00    -0.130 A  
HETATM   27  C   UNL     1      -9.365   9.810  68.284  1.00  0.00    -0.134 A  
HETATM   28  C   UNL     1      -8.582   8.824  68.910  1.00  0.00    -0.136 A  
HETATM   29  C   UNL     1     -10.832   9.514  68.138  1.00  0.00    -0.208 C  
HETATM   30  C   UNL     1      -7.199   8.955  69.002  1.00  0.00    -0.072 A  
HETATM   31  C   UNL     1      -6.573  10.079  68.478  1.00  0.00    -0.053 A  
HETATM   32  C   UNL     1      -7.324  11.094  67.868  1.00  0.00    -0.092 A  
HETATM   33  C   UNL     1      -6.614  12.331  67.384  1.00  0.00    -0.154 C  
ENDBRANCH  23  26
ENDBRANCH  21  22
ENDBRANCH  18  21
ENDBRANCH  14  15
ENDBRANCH  11  14
ENDBRANCH  10  11
ENDBRANCH   9  10
ENDBRANCH   8   9
ENDBRANCH   2   3
TORSDOF 9
ENDMDL
MODEL      293
REMARK 921   NORMALIZED FREE ENERGY PREDICTED BY IDOCK:   -0.76 KCAL/MOL
REMARK 922        TOTAL FREE ENERGY PREDICTED BY IDOCK:   -2.26 KCAL/MOL
REMARK 923 INTER-LIGAND FREE ENERGY PREDICTED BY IDOCK:   -4.01 KCAL/MOL
REMARK 924 INTRA-LIGAND FREE ENERGY PREDICTED BY IDOCK:    1.75 KCAL/MOL
REMARK 927      BINDING AFFINITY PREDICTED BY RF-SCORE:    0.00 PKD
ROOT
HETATM    1  C   UNL     1     -11.426  15.465  68.390  1.00  0.00    -0.355 C  
HETATM    2  O   UNL     1     -12.243  14.528  67.694  1.00  0.00    -0.298 OA 
ENDROOT
BRANCH   2   3
HETATM    3  C   UNL     1     -11.768  14.092  66.485  1.00  0.00    -0.394 A  
HETATM    4  C   UNL     1     -12.453  14.372  65.289  1.00  0.00    -0.359 A  
HETATM    5  C   UNL     1     -11.976  13.917  64.062  1.00  0.00    -0.425 A  
HETATM    6  C   UNL     1     -10.797  13.182  64.010  1.00  0.00    -0.348 A  
HETATM    7  C   UNL     1     -10.091  12.926  65.184  1.00  0.00    -0.241 A  
HETATM    8  C   UNL     1     -10.551  13.386  66.427  1.00  0.00    -0.285 A  
BRANCH   8   9
HETATM    9  O   UNL     1      -9.700  13.049  67.450  1.00  0.00    -0.205 OA 
BRANCH   9  10
HETATM   10  C   UNL     1      -9.283  11.690  67.568  1.00  0.00    -0.172 C  
BRANCH  10  11
HETATM   11  C   UNL     1      -7.763  11.588  67.340  1.00  0.00    -0.143 C  
HETATM   12  H   UNL     1      -6.108  11.395  68.438  1.00  0.00     0.000 HD 
HETATM   13  O   UNL     1      -7.045  11.457  68.578  1.00  0.00    -0.073 OA 
BRANCH  11  14
HETATM   14  C   UNL     1      -7.415  10.370  66.446  1.00  0.00    -0.120 C  
BRANCH  14  15
HETATM   15  N   UNL     1      -7.841   9.060  66.981  1.00  0.00    -0.098 NA 
HETATM   16  C   UNL     1      -8.484   8.230  65.952  1.00  0.00    -0.140 C  
HETATM   17  C   UNL     1      -7.502   7.819  64.844  1.00  0.00    -0.094 C  
HETATM   18  N   UNL     1      -6.360   7.003  65.314  1.00  0.00    -0.036 NA 
HETATM   19  C   UNL     1      -5.748   7.630  66.505  1.00  0.00    -0.036 C  
HETATM   20  C   UNL     1      -6.705   8.292  67.538  1.00  0.00    -0.063 C  
BRANCH  18  21
HETATM   21  C   UNL     1      -6.786   5.601  65.555  1.00  0.00    -0.041 C  
BRANCH  21  22
HETATM   22  C   UNL     1      -7.196   5.419  67.037  1.00  0.00    -0.078 C  
HETATM   23  N   UNL     1      -8.462   4.871  67.151  1.00  0.00    -0.106 N  
HETATM   24  O   UNL     1      -6.435   5.693  67.960  1.00  0.00    -0.040 OA 
HETATM   25  H   UNL     1      -8.933   4.640  66.276  1.00  0.00     0.000 HD 
BRANCH  23  26
HETATM   26  C   UNL     1      -9.173   4.596  68.330  1.00  0.00    -0.128 A  
HETATM   27  C   UNL     1     -10.096   5.495  68.905  1.00  0.00    -0.266 A  
HETATM   28  C   UNL     1     -10.785   5.106  70.067  1.00  0.00    -0.083 A  
HETATM   29  C   UNL     1     -10.453   6.836  68.327  1.00  0.00    -0.243 C  
HETATM   30  C   UNL     1     -10.604   3.843  70.622  1.00  0.00     1.118 A  
HETATM   31  C   UNL     1      -9.724   2.945  70.030  1.00  0.00    -0.008 A  
HETATM   32  C   UNL     1      -9.002   3.307  68.884  1.00  0.00    -0.186 A  
HETATM   33  C   UNL     1      -8.001   2.333  68.320  1.00  0.00    -0.064 C  
ENDBRANCH  23  26
ENDBRANCH  21  22
ENDBRANCH  18  21
ENDBRANCH  14  15
ENDBRANCH  11  14
ENDBRANCH  10  11
ENDBRANCH   9  10
ENDBRANCH   8   9
ENDBRANCH   2   3
TORSDOF 9
ENDMDL
MODEL      294
REMARK 921   NORMALIZED FREE ENERGY PREDICTED BY IDOCK:   -0.62 KCAL/MOL
REMARK 922        TOTAL FREE ENERGY PREDICTED BY IDOCK:   -2.04 KCAL/MOL
REMARK 923 INTER-LIGAND FREE ENERGY PREDICTED BY IDOCK:   -3.97 KCAL/MOL
REMARK 924 INTRA-LIGAND FREE ENERGY PREDICTED BY IDOCK:    1.93 KCAL/MOL
REMARK 927      BINDING AFFINITY PREDICTED BY RF-SCORE:    0.00 PKD
ROOT
HETATM    1  C   UNL     1     -11.139   5.934  73.118  1.00  0.00    -0.221 C  
HETATM    2  O   UNL     1     -10.987   6.542  71.838  1.00  0.00    -0.233 OA 
ENDROOT
BRANCH   2   3
HETATM    3  C   UNL     1      -9.799   7.186  71.612  1.00  0.00    -0.162 A  
HETATM    4  C   UNL     1      -9.660   8.564  71.858  1.00  0.00    -0.353 A  
HETATM    5  C   UNL     1      -8.456   9.221  71.614  1.00  0.00     0.332 A  
HETATM    6  C   UNL     1      -7.366   8.507  71.132  1.00  0.00    -0.080 A  
HETATM    7  C   UNL     1      -7.481   7.134  70.916  1.00  0.00    -0.080 A  
HETATM    8  C   UNL     1      -8.683   6.455  71.166  1.00  0.00    -0.135 A  
BRANCH   8   9
HETATM    9  O   UNL     1      -8.578   5.110  70.912  1.00  0.00    -0.118 OA 
BRANCH   9  10
HETATM   10  C   UNL     1      -7.297   4.579  70.574  1.00  0.00    -0.049 C  
BRANCH  10  11
HETATM   11  C   UNL     1      -6.656   5.431  69.462  1.00  0.00    -0.047 C  
HETATM   12  H   UNL     1      -4.826   5.949  68.858  1.00  0.00     0.000 HD 
HETATM   13  O   UNL     1      -5.222   5.424  69.544  1.00  0.00    -0.003 OA 
BRANCH  11  14
HETATM   14  C   UNL     1      -7.065   4.912  68.060  1.00  0.00    -0.062 C  
BRANCH  14  15
HETATM   15  N   UNL     1      -6.622   5.752  66.928  1.00  0.00    -0.054 NA 
HETATM   16  C   UNL     1      -7.667   5.889  65.903  1.00  0.00    -0.095 C  
HETATM   17  C   UNL     1      -8.887   6.667  66.422  1.00  0.00    -0.144 C  
HETATM   18  N   UNL     1      -8.592   8.058  66.833  1.00  0.00    -0.126 NA 
HETATM   19  C   UNL     1      -7.401   8.083  67.711  1.00  0.00    -0.093 C  
HETATM   20  C   UNL     1      -6.235   7.112  67.365  1.00  0.00    -0.045 C  
BRANCH  18  21
HETATM   21  C   UNL     1      -8.449   8.935  65.643  1.00  0.00    -0.157 C  
BRANCH  21  22
HETATM   22  C   UNL     1      -9.667   9.885  65.536  1.00  0.00    -0.302 C  
HETATM   23  N   UNL     1      -9.316  11.195  65.813  1.00  0.00    -0.209 N  
HETATM   24  O   UNL     1     -10.775   9.485  65.193  1.00  0.00     1.021 OA 
HETATM   25  H   UNL     1      -8.331  11.363  66.017  1.00  0.00     0.000 HD 
BRANCH  23  26
HETATM   26  C   UNL     1     -10.157  12.319  65.845  1.00  0.00    -0.251 A  
HETATM   27  C   UNL     1     -10.424  13.052  67.021  1.00  0.00    -0.249 A  
HETATM   28  C   UNL     1     -11.252  14.186  66.937  1.00  0.00    -0.326 A  
HETATM   29  C   UNL     1      -9.833  12.746  68.369  1.00  0.00    -0.196 C  
HETATM   30  C   UNL     1     -11.765  14.614  65.717  1.00  0.00    -0.302 A  
HETATM   31  C   UNL     1     -11.467  13.913  64.555  1.00  0.00    -0.393 A  
HETATM   32  C   UNL     1     -10.664  12.764  64.603  1.00  0.00    -0.361 A  
HETATM   33  C   UNL     1     -10.430  11.989  63.333  1.00  0.00    -0.474 C  
ENDBRANCH  23  26
ENDBRANCH  21  22
ENDBRANCH  18  21
ENDBRANCH  14  15
ENDBRANCH  11  14
ENDBRANCH  10  11
ENDBRANCH   9  10
ENDBRANCH   8   9
ENDBRANCH   2   3
TORSDOF 9
ENDMDL
MODEL      295
REMARK 921   NORMALIZED FREE ENERGY PREDICTED BY IDOCK:   -0.56 KCAL/MOL
REMARK 922        TOTAL FREE ENERGY PREDICTED BY IDOCK:   -1.94 KCAL/MOL
REMARK 923 INTER-LIGAND FREE ENERGY PREDICTED BY IDOCK:   -5.95 KCAL/MOL
REMARK 924 INTRA-LIGAND FREE ENERGY PREDICTED BY IDOCK:    4.00 KCAL/MOL
REMARK 927      BINDING AFFINITY PREDICTED BY RF-SCORE:    0.00 PKD
ROOT
HETATM    1  C   UNL     1     -11.243  17.666  67.005  1.00  0.00     0.501 C  
HETATM    2  O   UNL     1     -10.316  16.930  67.798  1.00  0.00    -0.302 OA 
ENDROOT
BRANCH   2   3
HETATM    3  C   UNL     1      -8.989  17.162  67.549  1.00  0.00    -0.221 A  
HETATM    4  C   UNL     1      -8.578  18.229  66.729  1.00  0.00    -0.271 A  
HETATM    5  C   UNL     1      -7.229  18.456  66.465  1.00  0.00    -0.259 A  
HETATM    6  C   UNL     1      -6.267  17.626  67.029  1.00  0.00    -0.185 A  
HETATM    7  C   UNL     1      -6.660  16.587  67.871  1.00  0.00    -0.155 A  
HETATM    8  C   UNL     1      -8.013  16.350  68.155  1.00  0.00    -0.160 A  
BRANCH   8   9
HETATM    9  O   UNL     1      -8.182  15.298  69.021  1.00  0.00    -0.172 OA 
BRANCH   9  10
HETATM   10  C   UNL     1      -9.132  14.288  68.685  1.00  0.00    -0.160 C  
BRANCH  10  11
HETATM   11  C   UNL     1      -8.645  13.501  67.454  1.00  0.00    -0.208 C  
HETATM   12  H   UNL     1      -8.248  13.851  65.530  1.00  0.00     0.000 HD 
HETATM   13  O   UNL     1      -8.548  14.337  66.290  1.00  0.00     0.129 OA 
BRANCH  11  14
HETATM   14  C   UNL     1      -7.254  12.868  67.715  1.00  0.00    -0.134 C  
BRANCH  14  15
HETATM   15  N   UNL     1      -7.254  11.398  67.863  1.00  0.00    -0.081 NA 
HETATM   16  C   UNL     1      -8.453  10.917  68.564  1.00  0.00    -0.147 C  
HETATM   17  C   UNL     1      -9.734  11.157  67.749  1.00  0.00    -0.171 C  
HETATM   18  N   UNL     1      -9.766  10.457  66.445  1.00  0.00    -0.192 NA 
HETATM   19  C   UNL     1      -8.498  10.686  65.718  1.00  0.00    -0.178 C  
HETATM   20  C   UNL     1      -7.186  10.708  66.555  1.00  0.00    -0.134 C  
BRANCH  18  21
HETATM   21  C   UNL     1     -10.070   9.016  66.633  1.00  0.00    -0.285 C  
BRANCH  21  22
HETATM   22  C   UNL     1      -9.785   8.602  68.098  1.00  0.00    -0.158 C  
HETATM   23  N   UNL     1     -10.955   8.338  68.788  1.00  0.00    -0.423 N  
HETATM   24  O   UNL     1      -8.643   8.485  68.530  1.00  0.00    -0.136 OA 
HETATM   25  H   UNL     1     -11.821   8.420  68.255  1.00  0.00     0.000 HD 
BRANCH  23  26
HETATM   26  C   UNL     1     -11.090   7.970  70.137  1.00  0.00    -0.191 A  
HETATM   27  C   UNL     1     -11.328   8.898  71.172  1.00  0.00    -0.357 A  
HETATM   28  C   UNL     1     -11.486   8.421  72.486  1.00  0.00    -0.422 A  
HETATM   29  C   UNL     1     -11.490  10.379  70.969  1.00  0.00    -0.304 C  
HETATM   30  C   UNL     1     -11.457   7.058  72.764  1.00  0.00    -0.207 A  
HETATM   31  C   UNL     1     -11.263   6.144  71.735  1.00  0.00    -0.338 A  
HETATM   32  C   UNL     1     -11.078   6.584  70.417  1.00  0.00    -0.389 A  
HETATM   33  C   UNL     1     -10.793   5.566  69.345  1.00  0.00    -0.236 C  
ENDBRANCH  23  26
ENDBRANCH  21  22
ENDBRANCH  18  21
ENDBRANCH  14  15
ENDBRANCH  11  14
ENDBRANCH  10  11
ENDBRANCH   9  10
ENDBRANCH   8   9
ENDBRANCH   2   3
TORSDOF 9
ENDMDL
MODEL      296
REMARK 921   NORMALIZED FREE ENERGY PREDICTED BY IDOCK:    0.09 KCAL/MOL
REMARK 922        TOTAL FREE ENERGY PREDICTED BY IDOCK:   -0.96 KCAL/MOL
REMARK 923 INTER-LIGAND FREE ENERGY PREDICTED BY IDOCK:   -3.54 KCAL/MOL
REMARK 924 INTRA-LIGAND FREE ENERGY PREDICTED BY IDOCK:    2.58 KCAL/MOL
REMARK 927      BINDING AFFINITY PREDICTED BY RF-SCORE:    0.00 PKD
ROOT
HETATM    1  C   UNL     1      -8.193  21.209  67.629  1.00  0.00     0.283 C  
HETATM    2  O   UNL     1      -6.919  20.891  67.078  1.00  0.00    -0.311 OA 
ENDROOT
BRANCH   2   3
HETATM    3  C   UNL     1      -6.572  19.565  67.080  1.00  0.00    -0.194 A  
HETATM    4  C   UNL     1      -5.485  19.096  66.321  1.00  0.00    -0.172 A  
HETATM    5  C   UNL     1      -5.142  17.745  66.314  1.00  0.00    -0.212 A  
HETATM    6  C   UNL     1      -5.874  16.843  67.076  1.00  0.00    -0.208 A  
HETATM    7  C   UNL     1      -6.934  17.301  67.858  1.00  0.00    -0.173 A  
HETATM    8  C   UNL     1      -7.286  18.659  67.886  1.00  0.00    -0.236 A  
BRANCH   8   9
HETATM    9  O   UNL     1      -8.337  18.902  68.735  1.00  0.00    -0.347 OA 
BRANCH   9  10
HETATM   10  C   UNL     1      -9.451  19.646  68.243  1.00  0.00    -0.368 C  
BRANCH  10  11
HETATM   11  C   UNL     1     -10.653  18.706  68.029  1.00  0.00    -0.302 C  
HETATM   12  H   UNL     1     -12.641  18.837  67.939  1.00  0.00     0.000 HD 
HETATM   13  O   UNL     1     -11.900  19.417  68.071  1.00  0.00     1.309 OA 
BRANCH  11  14
HETATM   14  C   UNL     1     -10.553  17.979  66.664  1.00  0.00    -0.258 C  
BRANCH  14  15
HETATM   15  N   UNL     1     -11.371  16.755  66.546  1.00  0.00     0.529 NA 
HETATM   16  C   UNL     1     -10.954  15.922  65.408  1.00  0.00    -0.285 C  
HETATM   17  C   UNL     1      -9.542  15.347  65.599  1.00  0.00    -0.288 C  
HETATM   18  N   UNL     1      -9.401  14.458  66.775  1.00  0.00    -0.257 NA 
HETATM   19  C   UNL     1      -9.993  15.102  67.968  1.00  0.00    -0.221 C  
HETATM   20  C   UNL     1     -11.301  15.920  67.767  1.00  0.00    -0.199 C  
BRANCH  18  21
HETATM   21  C   UNL     1      -9.985  13.122  66.492  1.00  0.00    -0.268 C  
BRANCH  21  22
HETATM   22  C   UNL     1      -9.555  12.114  67.587  1.00  0.00    -0.190 C  
HETATM   23  N   UNL     1      -8.500  11.324  67.164  1.00  0.00    -0.144 N  
HETATM   24  O   UNL     1     -10.080  12.095  68.695  1.00  0.00    -0.212 OA 
HETATM   25  H   UNL     1      -8.138  11.519  66.230  1.00  0.00     0.000 HD 
BRANCH  23  26
HETATM   26  C   UNL     1      -7.871  10.285  67.869  1.00  0.00    -0.101 A  
HETATM   27  C   UNL     1      -6.772  10.488  68.729  1.00  0.00    -0.054 A  
HETATM   28  C   UNL     1      -6.239   9.385  69.418  1.00  0.00    -0.040 A  
HETATM   29  C   UNL     1      -6.151  11.827  69.018  1.00  0.00    -0.066 C  
HETATM   30  C   UNL     1      -6.807   8.120  69.300  1.00  0.00    -0.051 A  
HETATM   31  C   UNL     1      -7.916   7.931  68.484  1.00  0.00    -0.121 A  
HETATM   32  C   UNL     1      -8.459   9.004  67.763  1.00  0.00    -0.117 A  
HETATM   33  C   UNL     1      -9.612   8.741  66.829  1.00  0.00    -0.267 C  
ENDBRANCH  23  26
ENDBRANCH  21  22
ENDBRANCH  18  21
ENDBRANCH  14  15
ENDBRANCH  11  14
ENDBRANCH  10  11
ENDBRANCH   9  10
ENDBRANCH   8   9
ENDBRANCH   2   3
TORSDOF 9
ENDMDL
MODEL      297
REMARK 921   NORMALIZED FREE ENERGY PREDICTED BY IDOCK:    0.40 KCAL/MOL
REMARK 922        TOTAL FREE ENERGY PREDICTED BY IDOCK:   -0.49 KCAL/MOL
REMARK 923 INTER-LIGAND FREE ENERGY PREDICTED BY IDOCK:   -3.89 KCAL/MOL
REMARK 924 INTRA-LIGAND FREE ENERGY PREDICTED BY IDOCK:    3.41 KCAL/MOL
REMARK 927      BINDING AFFINITY PREDICTED BY RF-SCORE:    0.00 PKD
ROOT
HETATM    1  C   UNL     1     -12.276  15.205  70.419  1.00  0.00    -0.344 C  
HETATM    2  O   UNL     1     -11.992  14.145  69.510  1.00  0.00    -0.301 OA 
ENDROOT
BRANCH   2   3
HETATM    3  C   UNL     1     -11.682  14.514  68.228  1.00  0.00    -0.335 A  
HETATM    4  C   UNL     1     -12.090  13.738  67.128  1.00  0.00    -0.416 A  
HETATM    5  C   UNL     1     -11.763  14.107  65.825  1.00  0.00    -0.360 A  
HETATM    6  C   UNL     1     -11.031  15.267  65.600  1.00  0.00    -0.348 A  
HETATM    7  C   UNL     1     -10.649  16.062  66.679  1.00  0.00    -0.297 A  
HETATM    8  C   UNL     1     -10.979  15.712  67.997  1.00  0.00    -0.318 A  
BRANCH   8   9
HETATM    9  O   UNL     1     -10.532  16.638  68.905  1.00  0.00    -0.279 OA 
BRANCH   9  10
HETATM   10  C   UNL     1      -9.158  17.021  68.866  1.00  0.00    -0.208 C  
BRANCH  10  11
HETATM   11  C   UNL     1      -8.268  15.809  69.200  1.00  0.00    -0.247 C  
HETATM   12  H   UNL     1      -7.947  13.966  68.506  1.00  0.00     0.000 HD 
HETATM   13  O   UNL     1      -8.496  14.713  68.299  1.00  0.00    -0.145 OA 
BRANCH  11  14
HETATM   14  C   UNL     1      -6.766  16.188  69.134  1.00  0.00    -0.190 C  
BRANCH  14  15
HETATM   15  N   UNL     1      -5.859  15.282  69.868  1.00  0.00    -0.125 NA 
HETATM   16  C   UNL     1      -6.580  14.469  70.859  1.00  0.00     0.294 C  
HETATM   17  C   UNL     1      -7.555  13.482  70.199  1.00  0.00     1.649 C  
HETATM   18  N   UNL     1      -6.907  12.489  69.312  1.00  0.00    -0.063 NA 
HETATM   19  C   UNL     1      -5.971  13.170  68.391  1.00  0.00    -0.083 C  
HETATM   20  C   UNL     1      -5.142  14.358  68.960  1.00  0.00    -0.082 C  
BRANCH  18  21
HETATM   21  C   UNL     1      -6.255  11.421  70.111  1.00  0.00    -0.138 C  
BRANCH  21  22
HETATM   22  C   UNL     1      -6.897  10.050  69.787  1.00  0.00    -0.094 C  
HETATM   23  N   UNL     1      -7.856   9.703  70.722  1.00  0.00    -0.085 N  
HETATM   24  O   UNL     1      -6.596   9.413  68.782  1.00  0.00    -0.051 OA 
HETATM   25  H   UNL     1      -8.030  10.383  71.462  1.00  0.00     0.000 HD 
BRANCH  23  26
HETATM   26  C   UNL     1      -8.618   8.525  70.771  1.00  0.00    -0.154 A  
HETATM   27  C   UNL     1      -9.749   8.299  69.959  1.00  0.00    -0.176 A  
HETATM   28  C   UNL     1     -10.420   7.068  70.060  1.00  0.00    -0.233 A  
HETATM   29  C   UNL     1     -10.267   9.268  68.932  1.00  0.00    -0.217 C  
HETATM   30  C   UNL     1      -9.958   6.064  70.905  1.00  0.00    -0.232 A  
HETATM   31  C   UNL     1      -8.820   6.274  71.674  1.00  0.00    -0.138 A  
HETATM   32  C   UNL     1      -8.139   7.498  71.617  1.00  0.00    -0.105 A  
HETATM   33  C   UNL     1      -6.956   7.713  72.525  1.00  0.00    -0.074 C  
ENDBRANCH  23  26
ENDBRANCH  21  22
ENDBRANCH  18  21
ENDBRANCH  14  15
ENDBRANCH  11  14
ENDBRANCH  10  11
ENDBRANCH   9  10
ENDBRANCH   8   9
ENDBRANCH   2   3
TORSDOF 9
ENDMDL
MODEL      298
REMARK 921   NORMALIZED FREE ENERGY PREDICTED BY IDOCK:    0.84 KCAL/MOL
REMARK 922        TOTAL FREE ENERGY PREDICTED BY IDOCK:    0.18 KCAL/MOL
REMARK 923 INTER-LIGAND FREE ENERGY PREDICTED BY IDOCK:   -4.13 KCAL/MOL
REMARK 924 INTRA-LIGAND FREE ENERGY PREDICTED BY IDOCK:    4.32 KCAL/MOL
REMARK 927      BINDING AFFINITY PREDICTED BY RF-SCORE:    0.00 PKD
ROOT
HETATM    1  C   UNL     1     -10.602  12.956  64.234  1.00  0.00    -0.408 C  
HETATM    2  O   UNL     1      -9.302  12.527  64.629  1.00  0.00     0.265 OA 
ENDROOT
BRANCH   2   3
HETATM    3  C   UNL     1      -9.074  11.177  64.598  1.00  0.00    -0.067 A  
HETATM    4  C   UNL     1      -8.717  10.526  63.403  1.00  0.00    -0.190 A  
HETATM    5  C   UNL     1      -8.499   9.150  63.369  1.00  0.00    -0.195 A  
HETATM    6  C   UNL     1      -8.624   8.403  64.535  1.00  0.00    -0.015 A  
HETATM    7  C   UNL     1      -8.945   9.042  65.732  1.00  0.00    -0.242 A  
HETATM    8  C   UNL     1      -9.157  10.427  65.786  1.00  0.00    -0.168 A  
BRANCH   8   9
HETATM    9  O   UNL     1      -9.437  10.857  67.059  1.00  0.00    -0.163 OA 
BRANCH   9  10
HETATM   10  C   UNL     1     -10.784  10.778  67.523  1.00  0.00    -0.264 C  
BRANCH  10  11
HETATM   11  C   UNL     1     -10.830  10.029  68.869  1.00  0.00    -0.220 C  
HETATM   12  H   UNL     1     -12.169   9.603  70.285  1.00  0.00     0.000 HD 
HETATM   13  O   UNL     1     -12.141  10.064  69.455  1.00  0.00     0.038 OA 
BRANCH  11  14
HETATM   14  C   UNL     1     -10.415   8.546  68.693  1.00  0.00    -0.169 C  
BRANCH  14  15
HETATM   15  N   UNL     1      -9.237   8.129  69.482  1.00  0.00    -0.158 NA 
HETATM   16  C   UNL     1      -8.850   9.146  70.471  1.00  0.00    -0.224 C  
HETATM   17  C   UNL     1      -9.918   9.327  71.561  1.00  0.00    -0.211 C  
HETATM   18  N   UNL     1     -10.178   8.112  72.366  1.00  0.00    -0.271 NA 
HETATM   19  C   UNL     1     -10.371   6.948  71.474  1.00  0.00    -0.203 C  
HETATM   20  C   UNL     1      -9.475   6.860  70.206  1.00  0.00    -0.162 C  
BRANCH  18  21
HETATM   21  C   UNL     1      -9.096   7.904  73.361  1.00  0.00    -0.283 C  
BRANCH  21  22
HETATM   22  C   UNL     1      -8.136   6.790  72.873  1.00  0.00    -0.105 C  
HETATM   23  N   UNL     1      -8.818   5.620  72.588  1.00  0.00    -0.123 N  
HETATM   24  O   UNL     1      -6.935   6.987  72.723  1.00  0.00    -0.069 OA 
HETATM   25  H   UNL     1      -9.831   5.650  72.706  1.00  0.00     0.000 HD 
BRANCH  23  26
HETATM   26  C   UNL     1      -8.279   4.398  72.157  1.00  0.00    -0.107 A  
HETATM   27  C   UNL     1      -7.580   4.246  70.941  1.00  0.00    -0.052 A  
HETATM   28  C   UNL     1      -7.046   2.985  70.621  1.00  0.00    -0.033 A  
HETATM   29  C   UNL     1      -7.304   5.362  69.971  1.00  0.00    -0.068 C  
HETATM   30  C   UNL     1      -7.156   1.912  71.500  1.00  0.00    -0.031 A  
HETATM   31  C   UNL     1      -7.810   2.076  72.715  1.00  0.00    -0.052 A  
HETATM   32  C   UNL     1      -8.375   3.312  73.058  1.00  0.00    -0.081 A  
HETATM   33  C   UNL     1      -9.143   3.426  74.349  1.00  0.00    -0.099 C  
ENDBRANCH  23  26
ENDBRANCH  21  22
ENDBRANCH  18  21
ENDBRANCH  14  15
ENDBRANCH  11  14
ENDBRANCH  10  11
ENDBRANCH   9  10
ENDBRANCH   8   9
ENDBRANCH   2   3
TORSDOF 9
ENDMDL
MODEL      299
REMARK 921   NORMALIZED FREE ENERGY PREDICTED BY IDOCK:    1.15 KCAL/MOL
REMARK 922        TOTAL FREE ENERGY PREDICTED BY IDOCK:    0.66 KCAL/MOL
REMARK 923 INTER-LIGAND FREE ENERGY PREDICTED BY IDOCK:   -2.07 KCAL/MOL
REMARK 924 INTRA-LIGAND FREE ENERGY PREDICTED BY IDOCK:    2.73 KCAL/MOL
REMARK 927      BINDING AFFINITY PREDICTED BY RF-SCORE:    0.00 PKD
ROOT
HETATM    1  C   UNL     1     -13.428  10.274  70.047  1.00  0.00     0.840 C  
HETATM    2  O   UNL     1     -12.830  11.495  70.473  1.00  0.00    -0.149 OA 
ENDROOT
BRANCH   2   3
HETATM    3  C   UNL     1     -11.985  12.099  69.580  1.00  0.00    -0.275 A  
HETATM    4  C   UNL     1     -12.287  13.358  69.029  1.00  0.00    -0.014 A  
HETATM    5  C   UNL     1     -11.434  13.965  68.110  1.00  0.00    -0.346 A  
HETATM    6  C   UNL     1     -10.257  13.328  67.736  1.00  0.00    -0.228 A  
HETATM    7  C   UNL     1      -9.930  12.095  68.300  1.00  0.00    -0.212 A  
HETATM    8  C   UNL     1     -10.772  11.474  69.234  1.00  0.00    -0.125 A  
BRANCH   8   9
HETATM    9  O   UNL     1     -10.257  10.284  69.683  1.00  0.00    -0.228 OA 
BRANCH   9  10
HETATM   10  C   UNL     1      -9.852  10.189  71.048  1.00  0.00     1.054 C  
BRANCH  10  11
HETATM   11  C   UNL     1      -9.737   8.708  71.456  1.00  0.00    -0.263 C  
HETATM   12  H   UNL     1     -10.461   7.497  72.867  1.00  0.00     0.000 HD 
HETATM   13  O   UNL     1     -10.532   8.410  72.615  1.00  0.00    -0.326 OA 
BRANCH  11  14
HETATM   14  C   UNL     1     -10.190   7.777  70.303  1.00  0.00    -0.199 C  
BRANCH  14  15
HETATM   15  N   UNL     1      -9.104   7.015  69.652  1.00  0.00    -0.144 NA 
HETATM   16  C   UNL     1      -9.198   7.069  68.186  1.00  0.00    -0.130 C  
HETATM   17  C   UNL     1      -8.963   8.488  67.644  1.00  0.00    -0.135 C  
HETATM   18  N   UNL     1      -7.623   9.041  67.947  1.00  0.00    -0.092 NA 
HETATM   19  C   UNL     1      -7.310   8.847  69.380  1.00  0.00    -0.075 C  
HETATM   20  C   UNL     1      -7.766   7.513  70.039  1.00  0.00    -0.094 C  
BRANCH  18  21
HETATM   21  C   UNL     1      -6.599   8.450  67.048  1.00  0.00    -0.058 C  
BRANCH  21  22
HETATM   22  C   UNL     1      -7.283   7.570  65.973  1.00  0.00    -0.070 C  
HETATM   23  N   UNL     1      -7.051   6.224  66.196  1.00  0.00    -0.066 N  
HETATM   24  O   UNL     1      -7.979   8.051  65.085  1.00  0.00    -0.112 OA 
HETATM   25  H   UNL     1      -6.503   5.992  67.024  1.00  0.00     0.000 HD 
BRANCH  23  26
HETATM   26  C   UNL     1      -7.482   5.139  65.414  1.00  0.00    -0.077 A  
HETATM   27  C   UNL     1      -8.140   4.012  65.950  1.00  0.00    -0.101 A  
HETATM   28  C   UNL     1      -8.565   2.997  65.074  1.00  0.00    -0.101 A  
HETATM   29  C   UNL     1      -8.482   3.836  67.404  1.00  0.00    -0.104 C  
HETATM   30  C   UNL     1      -8.389   3.114  63.699  1.00  0.00    -0.086 A  
HETATM   31  C   UNL     1      -7.778   4.244  63.171  1.00  0.00    -0.066 A  
HETATM   32  C   UNL     1      -7.320   5.265  64.015  1.00  0.00    -0.056 A  
HETATM   33  C   UNL     1      -6.592   6.437  63.409  1.00  0.00    -0.036 C  
ENDBRANCH  23  26
ENDBRANCH  21  22
ENDBRANCH  18  21
ENDBRANCH  14  15
ENDBRANCH  11  14
ENDBRANCH  10  11
ENDBRANCH   9  10
ENDBRANCH   8   9
ENDBRANCH   2   3
TORSDOF 9
ENDMDL
MODEL      300
REMARK 921   NORMALIZED FREE ENERGY PREDICTED BY IDOCK:    1.91 KCAL/MOL
REMARK 922        TOTAL FREE ENERGY PREDICTED BY IDOCK:    1.82 KCAL/MOL
REMARK 923 INTER-LIGAND FREE ENERGY PREDICTED BY IDOCK:   -2.59 KCAL/MOL
REMARK 924 INTRA-LIGAND FREE ENERGY PREDICTED BY IDOCK:    4.41 KCAL/MOL
REMARK 927      BINDING AFFINITY PREDICTED BY RF-SCORE:    0.00 PKD
ROOT
HETATM    1  C   UNL     1     -13.490  14.282  66.319  1.00  0.00     2.124 C  
HETATM    2  O   UNL     1     -12.439  13.346  66.539  1.00  0.00    -0.331 OA 
ENDROOT
BRANCH   2   3
HETATM    3  C   UNL     1     -11.832  12.844  65.418  1.00  0.00    -0.403 A  
HETATM    4  C   UNL     1     -12.387  13.039  64.141  1.00  0.00    -0.429 A  
HETATM    5  C   UNL     1     -11.775  12.516  63.003  1.00  0.00    -0.080 A  
HETATM    6  C   UNL     1     -10.591  11.798  63.124  1.00  0.00    -0.341 A  
HETATM    7  C   UNL     1     -10.015  11.626  64.381  1.00  0.00    -0.298 A  
HETATM    8  C   UNL     1     -10.610  12.155  65.536  1.00  0.00    -0.277 A  
BRANCH   8   9
HETATM    9  O   UNL     1      -9.872  11.895  66.663  1.00  0.00    -0.196 OA 
BRANCH   9  10
HETATM   10  C   UNL     1      -9.026  10.746  66.672  1.00  0.00    -0.153 C  
BRANCH  10  11
HETATM   11  C   UNL     1      -7.793  11.012  67.557  1.00  0.00    -0.116 C  
HETATM   12  H   UNL     1      -7.044  12.505  68.648  1.00  0.00     0.000 HD 
HETATM   13  O   UNL     1      -7.804  12.341  68.102  1.00  0.00    -0.130 OA 
BRANCH  11  14
HETATM   14  C   UNL     1      -7.726  10.004  68.733  1.00  0.00    -0.085 C  
BRANCH  14  15
HETATM   15  N   UNL     1      -7.648   8.584  68.336  1.00  0.00    -0.095 NA 
HETATM   16  C   UNL     1      -7.999   7.683  69.444  1.00  0.00    -0.125 C  
HETATM   17  C   UNL     1      -9.473   7.820  69.855  1.00  0.00    -0.160 C  
HETATM   18  N   UNL     1     -10.437   7.478  68.784  1.00  0.00    -0.207 NA 
HETATM   19  C   UNL     1     -10.061   8.163  67.529  1.00  0.00    -0.224 C  
HETATM   20  C   UNL     1      -8.544   8.274  67.200  1.00  0.00    -0.123 C  
BRANCH  18  21
HETATM   21  C   UNL     1     -10.543   6.005  68.628  1.00  0.00    -0.266 C  
BRANCH  21  22
HETATM   22  C   UNL     1      -9.449   5.304  69.470  1.00  0.00    -0.138 C  
HETATM   23  N   UNL     1      -8.518   4.669  68.667  1.00  0.00    -0.085 N  
HETATM   24  O   UNL     1      -9.425   5.377  70.695  1.00  0.00    -0.156 OA 
HETATM   25  H   UNL     1      -8.652   4.765  67.661  1.00  0.00     0.000 HD 
BRANCH  23  26
HETATM   26  C   UNL     1      -7.410   3.909  69.076  1.00  0.00    -0.054 A  
HETATM   27  C   UNL     1      -6.396   4.409  69.919  1.00  0.00    -0.027 A  
HETATM   28  C   UNL     1      -5.349   3.552  70.301  1.00  0.00    -0.008 A  
HETATM   29  C   UNL     1      -6.380   5.795  70.502  1.00  0.00    -0.032 C  
HETATM   30  C   UNL     1      -5.327   2.220  69.899  1.00  0.00    -0.012 A  
HETATM   31  C   UNL     1      -6.349   1.719  69.102  1.00  0.00    -0.025 A  
HETATM   32  C   UNL     1      -7.397   2.551  68.683  1.00  0.00    -0.047 A  
HETATM   33  C   UNL     1      -8.443   1.989  67.755  1.00  0.00    -0.090 C  
ENDBRANCH  23  26
ENDBRANCH  21  22
ENDBRANCH  18  21
ENDBRANCH  14  15
ENDBRANCH  11  14
ENDBRANCH  10  11
ENDBRANCH   9  10
ENDBRANCH   8   9
ENDBRANCH   2   3
TORSDOF 9
ENDMDL
MODEL      301
REMARK 921   NORMALIZED FREE ENERGY PREDICTED BY IDOCK:    4.92 KCAL/MOL
REMARK 922        TOTAL FREE ENERGY PREDICTED BY IDOCK:    6.42 KCAL/MOL
REMARK 923 INTER-LIGAND FREE ENERGY PREDICTED BY IDOCK:   -2.07 KCAL/MOL
REMARK 924 INTRA-LIGAND FREE ENERGY PREDICTED BY IDOCK:    8.49 KCAL/MOL
REMARK 927      BINDING AFFINITY PREDICTED BY RF-SCORE:    0.00 PKD
ROOT
HETATM    1  C   UNL     1      -7.581   7.971  67.939  1.00  0.00    -0.112 C  
HETATM    2  O   UNL     1      -6.270   7.573  68.329  1.00  0.00    -0.034 OA 
ENDROOT
BRANCH   2   3
HETATM    3  C   UNL     1      -6.004   7.603  69.673  1.00  0.00    -0.027 A  
HETATM    4  C   UNL     1      -5.673   8.805  70.323  1.00  0.00    -0.027 A  
HETATM    5  C   UNL     1      -5.390   8.832  71.688  1.00  0.00    -0.041 A  
HETATM    6  C   UNL     1      -5.445   7.656  72.426  1.00  0.00    -0.036 A  
HETATM    7  C   UNL     1      -5.803   6.463  71.800  1.00  0.00    -0.036 A  
HETATM    8  C   UNL     1      -6.102   6.420  70.430  1.00  0.00    -0.031 A  
BRANCH   8   9
HETATM    9  O   UNL     1      -6.454   5.159  70.018  1.00  0.00    -0.032 OA 
BRANCH   9  10
HETATM   10  C   UNL     1      -5.563   4.452  69.155  1.00  0.00    -0.016 C  
BRANCH  10  11
HETATM   11  C   UNL     1      -6.029   4.595  67.694  1.00  0.00    -0.023 C  
HETATM   12  H   UNL     1      -5.565   3.835  65.908  1.00  0.00     0.000 HD 
HETATM   13  O   UNL     1      -5.278   3.748  66.809  1.00  0.00    -0.011 OA 
BRANCH  11  14
HETATM   14  C   UNL     1      -7.531   4.236  67.552  1.00  0.00    -0.069 C  
BRANCH  14  15
HETATM   15  N   UNL     1      -8.428   4.911  68.511  1.00  0.00    -0.094 NA 
HETATM   16  C   UNL     1      -8.599   6.336  68.194  1.00  0.00    -0.116 C  
HETATM   17  C   UNL     1      -9.337   6.547  66.862  1.00  0.00    -0.146 C  
HETATM   18  N   UNL     1     -10.711   5.997  66.834  1.00  0.00    -0.321 NA 
HETATM   19  C   UNL     1     -10.710   4.610  67.348  1.00  0.00     0.580 C  
HETATM   20  C   UNL     1      -9.771   4.291  68.547  1.00  0.00    -0.094 C  
BRANCH  18  21
HETATM   21  C   UNL     1     -11.643   6.886  67.573  1.00  0.00     0.687 C  
BRANCH  21  22
HETATM   22  C   UNL     1     -10.862   8.063  68.208  1.00  0.00     0.086 C  
HETATM   23  N   UNL     1     -11.134   9.258  67.566  1.00  0.00    -0.408 N  
HETATM   24  O   UNL     1     -10.144   7.912  69.191  1.00  0.00    -0.186 OA 
HETATM   25  H   UNL     1     -11.811   9.216  66.803  1.00  0.00     0.000 HD 
BRANCH  23  26
HETATM   26  C   UNL     1     -10.588  10.522  67.841  1.00  0.00    -0.232 A  
HETATM   27  C   UNL     1     -10.990  11.318  68.935  1.00  0.00    -0.274 A  
HETATM   28  C   UNL     1     -10.352  12.553  69.144  1.00  0.00     0.149 A  
HETATM   29  C   UNL     1     -12.024  10.913  69.949  1.00  0.00    -0.430 C  
HETATM   30  C   UNL     1      -9.310  12.972  68.322  1.00  0.00    -0.199 A  
HETATM   31  C   UNL     1      -8.889  12.168  67.270  1.00  0.00    -0.186 A  
HETATM   32  C   UNL     1      -9.518  10.941  67.018  1.00  0.00    -0.184 A  
HETATM   33  C   UNL     1      -9.084  10.136  65.820  1.00  0.00    -0.206 C  
ENDBRANCH  23  26
ENDBRANCH  21  22
ENDBRANCH  18  21
ENDBRANCH  14  15
ENDBRANCH  11  14
ENDBRANCH  10  11
ENDBRANCH   9  10
ENDBRANCH   8   9
ENDBRANCH   2   3
TORSDOF 9
ENDMDL
MODEL      302
REMARK 921   NORMALIZED FREE ENERGY PREDICTED BY IDOCK:   10.00 KCAL/MOL
REMARK 922        TOTAL FREE ENERGY PREDICTED BY IDOCK:   14.16 KCAL/MOL
REMARK 923 INTER-LIGAND FREE ENERGY PREDICTED BY IDOCK:    5.58 KCAL/MOL
REMARK 924 INTRA-LIGAND FREE ENERGY PREDICTED BY IDOCK:    8.58 KCAL/MOL
REMARK 927      BINDING AFFINITY PREDICTED BY RF-SCORE:    0.00 PKD
ROOT
HETATM    1  C   UNL     1      -5.620  11.896  71.821  1.00  0.00     0.569 C  
HETATM    2  O   UNL     1      -6.130  11.088  70.764  1.00  0.00    -0.321 OA 
ENDROOT
BRANCH   2   3
HETATM    3  C   UNL     1      -7.027  10.118  71.124  1.00  0.00     0.662 A  
HETATM    4  C   UNL     1      -7.936  10.322  72.178  1.00  0.00     5.106 A  
HETATM    5  C   UNL     1      -8.840   9.330  72.552  1.00  0.00     1.339 A  
HETATM    6  C   UNL     1      -8.857   8.120  71.868  1.00  0.00    -0.214 A  
HETATM    7  C   UNL     1      -7.984   7.918  70.800  1.00  0.00    -0.100 A  
HETATM    8  C   UNL     1      -7.076   8.910  70.403  1.00  0.00    -0.054 A  
BRANCH   8   9
HETATM    9  O   UNL     1      -6.327   8.521  69.320  1.00  0.00    -0.041 OA 
BRANCH   9  10
HETATM   10  C   UNL     1      -6.999   8.253  68.090  1.00  0.00    -0.077 C  
BRANCH  10  11
HETATM   11  C   UNL     1      -7.986   9.393  67.775  1.00  0.00    -0.096 C  
HETATM   12  H   UNL     1      -7.990  11.119  66.775  1.00  0.00     0.000 HD 
HETATM   13  O   UNL     1      -7.381  10.417  66.969  1.00  0.00    -0.093 OA 
BRANCH  11  14
HETATM   14  C   UNL     1      -9.233   8.857  67.025  1.00  0.00    -0.137 C  
BRANCH  14  15
HETATM   15  N   UNL     1     -10.319   9.839  66.836  1.00  0.00    -0.240 NA 
HETATM   16  C   UNL     1      -9.827  11.223  66.906  1.00  0.00    -0.193 C  
HETATM   17  C   UNL     1      -8.884  11.560  65.741  1.00  0.00    -0.058 C  
HETATM   18  N   UNL     1      -9.511  11.460  64.403  1.00  0.00    -0.181 NA 
HETATM   19  C   UNL     1     -10.239  10.179  64.281  1.00  0.00     0.232 C  
HETATM   20  C   UNL     1     -11.004   9.667  65.536  1.00  0.00     1.787 C  
BRANCH  18  21
HETATM   21  C   UNL     1     -10.373  12.641  64.141  1.00  0.00    -0.387 C  
BRANCH  21  22
HETATM   22  C   UNL     1      -9.995  13.796  65.101  1.00  0.00    -0.211 C  
HETATM   23  N   UNL     1      -9.578  13.318  66.331  1.00  0.00    -0.306 N  
HETATM   24  O   UNL     1     -10.026  14.970  64.749  1.00  0.00    -0.194 OA 
HETATM   25  H   UNL     1      -9.548  12.304  66.434  1.00  0.00     0.000 HD 
BRANCH  23  26
HETATM   26  C   UNL     1      -9.191  14.067  67.455  1.00  0.00    -0.216 A  
HETATM   27  C   UNL     1     -10.087  14.860  68.203  1.00  0.00    -0.222 A  
HETATM   28  C   UNL     1      -9.605  15.541  69.334  1.00  0.00    -0.279 A  
HETATM   29  C   UNL     1     -11.558  14.987  67.914  1.00  0.00    -0.350 C  
HETATM   30  C   UNL     1      -8.283  15.406  69.747  1.00  0.00    -0.018 A  
HETATM   31  C   UNL     1      -7.413  14.592  69.031  1.00  0.00    -0.136 A  
HETATM   32  C   UNL     1      -7.853  13.916  67.884  1.00  0.00    -0.161 A  
HETATM   33  C   UNL     1      -6.858  13.108  67.093  1.00  0.00     0.175 C  
ENDBRANCH  23  26
ENDBRANCH  21  22
ENDBRANCH  18  21
ENDBRANCH  14  15
ENDBRANCH  11  14
ENDBRANCH  10  11
ENDBRANCH   9  10
ENDBRANCH   8   9
ENDBRANCH   2   3
TORSDOF 9
ENDMDL
MODEL      303
REMARK 921   NORMALIZED FREE ENERGY PREDICTED BY IDOCK:   10.20 KCAL/MOL
REMARK 922        TOTAL FREE ENERGY PREDICTED BY IDOCK:   14.48 KCAL/MOL
REMARK 923 INTER-LIGAND FREE ENERGY PREDICTED BY IDOCK:    7.28 KCAL/MOL
REMARK 924 INTRA-LIGAND FREE ENERGY PREDICTED BY IDOCK:    7.20 KCAL/MOL
REMARK 927      BINDING AFFINITY PREDICTED BY RF-SCORE:    0.00 PKD
ROOT
HETATM    1  C   UNL     1     -14.029  14.650  66.324  1.00  0.00     4.930 C  
HETATM    2  O   UNL     1     -12.709  14.361  66.777  1.00  0.00    -0.070 OA 
ENDROOT
BRANCH   2   3
HETATM    3  C   UNL     1     -11.685  14.868  66.022  1.00  0.00    -0.173 A  
HETATM    4  C   UNL     1     -11.931  15.474  64.776  1.00  0.00    -0.026 A  
HETATM    5  C   UNL     1     -10.887  15.978  64.003  1.00  0.00     1.238 A  
HETATM    6  C   UNL     1      -9.580  15.894  64.469  1.00  0.00     2.706 A  
HETATM    7  C   UNL     1      -9.328  15.326  65.716  1.00  0.00    -0.233 A  
HETATM    8  C   UNL     1     -10.367  14.823  66.513  1.00  0.00    -0.286 A  
BRANCH   8   9
HETATM    9  O   UNL     1      -9.909  14.331  67.710  1.00  0.00    -0.217 OA 
BRANCH   9  10
HETATM   10  C   UNL     1      -8.605  13.752  67.753  1.00  0.00    -0.184 C  
BRANCH  10  11
HETATM   11  C   UNL     1      -8.281  13.301  69.189  1.00  0.00     0.506 C  
HETATM   12  H   UNL     1      -8.576  13.954  71.052  1.00  0.00     0.000 HD 
HETATM   13  O   UNL     1      -8.776  14.232  70.166  1.00  0.00     1.112 OA 
BRANCH  11  14
HETATM   14  C   UNL     1      -8.898  11.910  69.487  1.00  0.00     1.272 C  
BRANCH  14  15
HETATM   15  N   UNL     1      -9.390  11.178  68.303  1.00  0.00    -0.169 NA 
HETATM   16  C   UNL     1      -8.305  10.472  67.604  1.00  0.00    -0.114 C  
HETATM   17  C   UNL     1      -7.710   9.340  68.457  1.00  0.00    -0.085 C  
HETATM   18  N   UNL     1      -8.674   8.274  68.811  1.00  0.00    -0.136 NA 
HETATM   19  C   UNL     1      -9.921   8.874  69.332  1.00  0.00    -0.192 C  
HETATM   20  C   UNL     1     -10.425  10.181  68.656  1.00  0.00    -0.202 C  
BRANCH  18  21
HETATM   21  C   UNL     1      -8.907   7.375  67.652  1.00  0.00    -0.127 C  
BRANCH  21  22
HETATM   22  C   UNL     1      -8.500   8.088  66.339  1.00  0.00    -0.136 C  
HETATM   23  N   UNL     1      -9.425   9.050  65.974  1.00  0.00    -0.240 N  
HETATM   24  O   UNL     1      -7.448   7.833  65.760  1.00  0.00    -0.074 OA 
HETATM   25  H   UNL     1     -10.214   9.179  66.608  1.00  0.00     0.000 HD 
BRANCH  23  26
HETATM   26  C   UNL     1      -9.406   9.868  64.832  1.00  0.00    -0.268 A  
HETATM   27  C   UNL     1      -8.887   9.450  63.589  1.00  0.00    -0.198 A  
HETATM   28  C   UNL     1      -8.951  10.334  62.498  1.00  0.00    -0.283 A  
HETATM   29  C   UNL     1      -8.315   8.085  63.319  1.00  0.00     0.027 C  
HETATM   30  C   UNL     1      -9.555  11.581  62.617  1.00  0.00    -0.074 A  
HETATM   31  C   UNL     1     -10.102  11.974  63.833  1.00  0.00    -0.394 A  
HETATM   32  C   UNL     1     -10.036  11.128  64.948  1.00  0.00    -0.331 A  
HETATM   33  C   UNL     1     -10.570  11.623  66.267  1.00  0.00    -0.301 C  
ENDBRANCH  23  26
ENDBRANCH  21  22
ENDBRANCH  18  21
ENDBRANCH  14  15
ENDBRANCH  11  14
ENDBRANCH  10  11
ENDBRANCH   9  10
ENDBRANCH   8   9
ENDBRANCH   2   3
TORSDOF 9
ENDMDL
MODEL      304
REMARK 921   NORMALIZED FREE ENERGY PREDICTED BY IDOCK:   10.80 KCAL/MOL
REMARK 922        TOTAL FREE ENERGY PREDICTED BY IDOCK:   15.38 KCAL/MOL
REMARK 923 INTER-LIGAND FREE ENERGY PREDICTED BY IDOCK:    8.27 KCAL/MOL
REMARK 924 INTRA-LIGAND FREE ENERGY PREDICTED BY IDOCK:    7.12 KCAL/MOL
REMARK 927      BINDING AFFINITY PREDICTED BY RF-SCORE:    0.00 PKD
ROOT
HETATM    1  C   UNL     1      -7.801   7.907  67.889  1.00  0.00    -0.127 C  
HETATM    2  O   UNL     1      -6.628   7.463  68.566  1.00  0.00    -0.046 OA 
ENDROOT
BRANCH   2   3
HETATM    3  C   UNL     1      -6.673   7.488  69.935  1.00  0.00    -0.046 A  
HETATM    4  C   UNL     1      -6.465   8.683  70.648  1.00  0.00    -0.040 A  
HETATM    5  C   UNL     1      -6.498   8.705  72.041  1.00  0.00    -0.074 A  
HETATM    6  C   UNL     1      -6.752   7.533  72.744  1.00  0.00    -0.065 A  
HETATM    7  C   UNL     1      -6.993   6.350  72.047  1.00  0.00    -0.073 A  
HETATM    8  C   UNL     1      -6.974   6.311  70.645  1.00  0.00    -0.064 A  
BRANCH   8   9
HETATM    9  O   UNL     1      -7.258   5.060  70.159  1.00  0.00    -0.055 OA 
BRANCH   9  10
HETATM   10  C   UNL     1      -6.231   4.348  69.470  1.00  0.00    -0.027 C  
BRANCH  10  11
HETATM   11  C   UNL     1      -6.176   4.803  68.000  1.00  0.00    -0.035 C  
HETATM   12  H   UNL     1      -5.096   4.419  66.367  1.00  0.00     0.000 HD 
HETATM   13  O   UNL     1      -5.130   4.138  67.274  1.00  0.00    -0.007 OA 
BRANCH  11  14
HETATM   14  C   UNL     1      -7.521   4.523  67.281  1.00  0.00    -0.078 C  
BRANCH  14  15
HETATM   15  N   UNL     1      -8.685   4.355  68.175  1.00  0.00    -0.099 NA 
HETATM   16  C   UNL     1      -9.193   5.646  68.661  1.00  0.00    -0.122 C  
HETATM   17  C   UNL     1      -9.781   6.500  67.527  1.00  0.00    -0.122 C  
HETATM   18  N   UNL     1     -10.939   5.885  66.839  1.00  0.00    -0.283 NA 
HETATM   19  C   UNL     1     -10.628   4.483  66.484  1.00  0.00     0.159 C  
HETATM   20  C   UNL     1      -9.802   3.651  67.507  1.00  0.00     0.086 C  
BRANCH  18  21
HETATM   21  C   UNL     1     -12.165   6.012  67.667  1.00  0.00     4.689 C  
BRANCH  21  22
HETATM   22  C   UNL     1     -11.792   6.468  69.099  1.00  0.00     0.438 C  
HETATM   23  N   UNL     1     -12.205   7.766  69.342  1.00  0.00     1.002 N  
HETATM   24  O   UNL     1     -11.247   5.716  69.899  1.00  0.00    -0.278 OA 
HETATM   25  H   UNL     1     -12.707   8.229  68.584  1.00  0.00     0.000 HD 
BRANCH  23  26
HETATM   26  C   UNL     1     -12.013   8.522  70.511  1.00  0.00     0.061 A  
HETATM   27  C   UNL     1     -12.882   8.465  71.621  1.00  0.00    -0.355 A  
HETATM   28  C   UNL     1     -12.577   9.234  72.758  1.00  0.00     0.075 A  
HETATM   29  C   UNL     1     -14.097   7.584  71.708  1.00  0.00    -0.509 C  
HETATM   30  C   UNL     1     -11.419  10.003  72.818  1.00  0.00     3.438 A  
HETATM   31  C   UNL     1     -10.544  10.024  71.738  1.00  0.00     1.325 A  
HETATM   32  C   UNL     1     -10.827   9.289  70.578  1.00  0.00    -0.318 A  
HETATM   33  C   UNL     1      -9.894   9.402  69.402  1.00  0.00    -0.183 C  
ENDBRANCH  23  26
ENDBRANCH  21  22
ENDBRANCH  18  21
ENDBRANCH  14  15
ENDBRANCH  11  14
ENDBRANCH  10  11
ENDBRANCH   9  10
ENDBRANCH   8   9
ENDBRANCH   2   3
TORSDOF 9
ENDMDL
MODEL      305
REMARK 921   NORMALIZED FREE ENERGY PREDICTED BY IDOCK:   11.46 KCAL/MOL
REMARK 922        TOTAL FREE ENERGY PREDICTED BY IDOCK:   16.39 KCAL/MOL
REMARK 923 INTER-LIGAND FREE ENERGY PREDICTED BY IDOCK:    6.38 KCAL/MOL
REMARK 924 INTRA-LIGAND FREE ENERGY PREDICTED BY IDOCK:   10.02 KCAL/MOL
REMARK 927      BINDING AFFINITY PREDICTED BY RF-SCORE:    0.00 PKD
ROOT
HETATM    1  C   UNL     1      -7.765   8.349  67.892  1.00  0.00    -0.103 C  
HETATM    2  O   UNL     1      -6.598   7.894  68.571  1.00  0.00    -0.057 OA 
ENDROOT
BRANCH   2   3
HETATM    3  C   UNL     1      -6.646   7.918  69.939  1.00  0.00    -0.037 A  
HETATM    4  C   UNL     1      -6.420   9.107  70.655  1.00  0.00    -0.066 A  
HETATM    5  C   UNL     1      -6.457   9.127  72.048  1.00  0.00     0.080 A  
HETATM    6  C   UNL     1      -6.733   7.958  72.748  1.00  0.00    -0.081 A  
HETATM    7  C   UNL     1      -6.992   6.780  72.049  1.00  0.00    -0.074 A  
HETATM    8  C   UNL     1      -6.970   6.744  70.647  1.00  0.00    -0.063 A  
BRANCH   8   9
HETATM    9  O   UNL     1      -7.274   5.499  70.157  1.00  0.00    -0.063 OA 
BRANCH   9  10
HETATM   10  C   UNL     1      -6.259   4.773  69.465  1.00  0.00    -0.026 C  
BRANCH  10  11
HETATM   11  C   UNL     1      -6.196   5.236  67.997  1.00  0.00    -0.034 C  
HETATM   12  H   UNL     1      -5.127   4.838  66.360  1.00  0.00     0.000 HD 
HETATM   13  O   UNL     1      -5.166   4.553  67.265  1.00  0.00    -0.010 OA 
BRANCH  11  14
HETATM   14  C   UNL     1      -7.548   4.988  67.278  1.00  0.00    -0.091 C  
BRANCH  14  15
HETATM   15  N   UNL     1      -8.747   5.180  68.119  1.00  0.00    -0.102 NA 
HETATM   16  C   UNL     1      -9.202   6.578  68.115  1.00  0.00    -0.112 C  
HETATM   17  C   UNL     1      -9.707   7.018  66.731  1.00  0.00    -0.184 C  
HETATM   18  N   UNL     1     -10.873   6.250  66.237  1.00  0.00     0.127 NA 
HETATM   19  C   UNL     1     -10.625   4.800  66.393  1.00  0.00    -0.153 C  
HETATM   20  C   UNL     1      -9.878   4.334  67.675  1.00  0.00    -0.094 C  
BRANCH  18  21
HETATM   21  C   UNL     1     -12.117   6.699  66.913  1.00  0.00     3.251 C  
BRANCH  21  22
HETATM   22  C   UNL     1     -11.767   7.597  68.124  1.00  0.00     1.715 C  
HETATM   23  N   UNL     1     -12.115   8.917  67.896  1.00  0.00     3.060 N  
HETATM   24  O   UNL     1     -11.290   7.138  69.157  1.00  0.00    -0.028 OA 
HETATM   25  H   UNL     1     -12.565   9.116  67.003  1.00  0.00     0.000 HD 
BRANCH  23  26
HETATM   26  C   UNL     1     -11.919  10.014  68.751  1.00  0.00     0.654 A  
HETATM   27  C   UNL     1     -11.736  11.334  68.286  1.00  0.00    -0.344 A  
HETATM   28  C   UNL     1     -11.587  12.368  69.228  1.00  0.00    -0.379 A  
HETATM   29  C   UNL     1     -11.749  11.737  66.838  1.00  0.00    -0.221 C  
HETATM   30  C   UNL     1     -11.665  12.114  70.594  1.00  0.00     0.139 A  
HETATM   31  C   UNL     1     -11.886  10.819  71.047  1.00  0.00    -0.349 A  
HETATM   32  C   UNL     1     -12.016   9.759  70.138  1.00  0.00    -0.085 A  
HETATM   33  C   UNL     1     -12.176   8.360  70.672  1.00  0.00     0.108 C  
ENDBRANCH  23  26
ENDBRANCH  21  22
ENDBRANCH  18  21
ENDBRANCH  14  15
ENDBRANCH  11  14
ENDBRANCH  10  11
ENDBRANCH   9  10
ENDBRANCH   8   9
ENDBRANCH   2   3
TORSDOF 9
ENDMDL
