MODEL        1
REMARK 921   NORMALIZED FREE ENERGY PREDICTED BY IDOCK:   -5.33 KCAL/MOL
REMARK 922        TOTAL FREE ENERGY PREDICTED BY IDOCK:   -6.56 KCAL/MOL
REMARK 923 INTER-LIGAND FREE ENERGY PREDICTED BY IDOCK:   -6.26 KCAL/MOL
REMARK 924 INTRA-LIGAND FREE ENERGY PREDICTED BY IDOCK:   -0.29 KCAL/MOL
REMARK 927      BINDING AFFINITY PREDICTED BY RF-SCORE:    0.00 PKD
ROOT
HETATM    1  C   UNL     1     -12.557  16.179  73.778  1.00  0.00    -0.698 C  
HETATM    2  C   UNL     1     -13.308  15.765  72.934  1.00  0.00    -0.661 C  
ENDROOT
BRANCH   2   3
HETATM    3  C   UNL     1     -14.310  15.283  71.980  1.00  0.00    -0.589 C  
BRANCH   3   4
HETATM    4  N   UNL     1     -13.863  15.487  70.606  1.00  0.00    -0.834 NA 
HETATM    5  H   UNL     1     -14.064  16.437  70.294  1.00  0.00     0.000 HD 
BRANCH   4   6
HETATM    6  C   UNL     1     -12.444  15.159  70.417  1.00  0.00    -0.368 C  
HETATM    7  C   UNL     1     -11.887  15.939  69.197  1.00  0.00    -0.340 C  
HETATM    8  C   UNL     1     -11.641  14.961  68.038  1.00  0.00    -0.363 C  
HETATM    9  C   UNL     1     -11.818  13.624  68.673  1.00  0.00    -0.409 A  
HETATM   10  C   UNL     1     -11.665  12.386  68.066  1.00  0.00    -0.414 A  
HETATM   11  C   UNL     1     -11.889  11.234  68.824  1.00  0.00    -0.396 A  
HETATM   12  C   UNL     1     -12.213  11.333  70.180  1.00  0.00    -0.410 A  
HETATM   13  C   UNL     1     -12.341  12.583  70.786  1.00  0.00    -0.376 A  
HETATM   14  C   UNL     1     -12.198  13.729  70.012  1.00  0.00    -0.407 A  
ENDBRANCH   4   6
ENDBRANCH   3   4
ENDBRANCH   2   3
TORSDOF 3
ENDMDL
MODEL        2
REMARK 921   NORMALIZED FREE ENERGY PREDICTED BY IDOCK:   -5.32 KCAL/MOL
REMARK 922        TOTAL FREE ENERGY PREDICTED BY IDOCK:   -6.54 KCAL/MOL
REMARK 923 INTER-LIGAND FREE ENERGY PREDICTED BY IDOCK:   -6.13 KCAL/MOL
REMARK 924 INTRA-LIGAND FREE ENERGY PREDICTED BY IDOCK:   -0.41 KCAL/MOL
REMARK 927      BINDING AFFINITY PREDICTED BY RF-SCORE:    0.00 PKD
ROOT
HETATM    1  C   UNL     1     -12.062  13.628  66.412  1.00  0.00    -0.478 C  
HETATM    2  C   UNL     1     -11.774  12.539  66.834  1.00  0.00    -0.447 C  
ENDROOT
BRANCH   2   3
HETATM    3  C   UNL     1     -11.390  11.264  67.446  1.00  0.00    -0.276 C  
BRANCH   3   4
HETATM    4  N   UNL     1     -12.277  10.931  68.556  1.00  0.00    -0.809 NA 
HETATM    5  H   UNL     1     -12.605   9.968  68.485  1.00  0.00     0.000 HD 
BRANCH   4   6
HETATM    6  C   UNL     1     -11.667  11.186  69.867  1.00  0.00    -0.355 C  
HETATM    7  C   UNL     1     -12.035  10.039  70.845  1.00  0.00    -0.453 C  
HETATM    8  C   UNL     1     -13.035  10.562  71.887  1.00  0.00    -0.553 C  
HETATM    9  C   UNL     1     -13.037  12.035  71.653  1.00  0.00    -0.422 A  
HETATM   10  C   UNL     1     -13.750  12.990  72.362  1.00  0.00    -0.593 A  
HETATM   11  C   UNL     1     -13.635  14.330  71.985  1.00  0.00    -0.520 A  
HETATM   12  C   UNL     1     -12.780  14.700  70.943  1.00  0.00    -0.413 A  
HETATM   13  C   UNL     1     -12.050  13.733  70.252  1.00  0.00    -0.425 A  
HETATM   14  C   UNL     1     -12.226  12.392  70.575  1.00  0.00    -0.382 A  
ENDBRANCH   4   6
ENDBRANCH   3   4
ENDBRANCH   2   3
TORSDOF 3
ENDMDL
MODEL        3
REMARK 921   NORMALIZED FREE ENERGY PREDICTED BY IDOCK:   -5.10 KCAL/MOL
REMARK 922        TOTAL FREE ENERGY PREDICTED BY IDOCK:   -6.28 KCAL/MOL
REMARK 923 INTER-LIGAND FREE ENERGY PREDICTED BY IDOCK:   -6.07 KCAL/MOL
REMARK 924 INTRA-LIGAND FREE ENERGY PREDICTED BY IDOCK:   -0.21 KCAL/MOL
REMARK 927      BINDING AFFINITY PREDICTED BY RF-SCORE:    0.00 PKD
ROOT
HETATM    1  C   UNL     1     -12.540  12.471  64.596  1.00  0.00    -0.507 C  
HETATM    2  C   UNL     1     -12.196  13.301  65.395  1.00  0.00    -0.501 C  
ENDROOT
BRANCH   2   3
HETATM    3  C   UNL     1     -11.666  14.296  66.332  1.00  0.00    -0.391 C  
BRANCH   3   4
HETATM    4  N   UNL     1     -12.404  14.270  67.591  1.00  0.00    -0.582 NA 
HETATM    5  H   UNL     1     -13.168  13.596  67.553  1.00  0.00     0.000 HD 
BRANCH   4   6
HETATM    6  C   UNL     1     -11.539  14.021  68.751  1.00  0.00    -0.331 C  
HETATM    7  C   UNL     1     -11.173  12.515  68.815  1.00  0.00    -0.318 C  
HETATM    8  C   UNL     1     -11.912  11.863  69.993  1.00  0.00    -0.409 C  
HETATM    9  C   UNL     1     -12.484  13.028  70.728  1.00  0.00    -0.384 A  
HETATM   10  C   UNL     1     -13.218  12.992  71.904  1.00  0.00    -0.527 A  
HETATM   11  C   UNL     1     -13.686  14.194  72.440  1.00  0.00    -0.645 A  
HETATM   12  C   UNL     1     -13.377  15.410  71.823  1.00  0.00    -0.567 A  
HETATM   13  C   UNL     1     -12.618  15.435  70.653  1.00  0.00    -0.491 A  
HETATM   14  C   UNL     1     -12.221  14.234  70.077  1.00  0.00    -0.417 A  
ENDBRANCH   4   6
ENDBRANCH   3   4
ENDBRANCH   2   3
TORSDOF 3
ENDMDL
MODEL        4
REMARK 921   NORMALIZED FREE ENERGY PREDICTED BY IDOCK:   -5.02 KCAL/MOL
REMARK 922        TOTAL FREE ENERGY PREDICTED BY IDOCK:   -6.19 KCAL/MOL
REMARK 923 INTER-LIGAND FREE ENERGY PREDICTED BY IDOCK:   -5.78 KCAL/MOL
REMARK 924 INTRA-LIGAND FREE ENERGY PREDICTED BY IDOCK:   -0.41 KCAL/MOL
REMARK 927      BINDING AFFINITY PREDICTED BY RF-SCORE:    0.00 PKD
ROOT
HETATM    1  C   UNL     1     -11.953  10.097  71.429  1.00  0.00    -0.447 C  
HETATM    2  C   UNL     1     -11.929  10.667  70.370  1.00  0.00    -0.436 C  
ENDROOT
BRANCH   2   3
HETATM    3  C   UNL     1     -11.882  11.460  69.139  1.00  0.00    -0.345 C  
BRANCH   3   4
HETATM    4  N   UNL     1     -11.207  12.734  69.366  1.00  0.00    -0.430 NA 
HETATM    5  H   UNL     1     -10.457  12.875  68.690  1.00  0.00     0.000 HD 
BRANCH   4   6
HETATM    6  C   UNL     1     -12.133  13.874  69.371  1.00  0.00    -0.337 C  
HETATM    7  C   UNL     1     -11.478  15.081  68.650  1.00  0.00    -0.329 C  
HETATM    8  C   UNL     1     -11.111  16.154  69.687  1.00  0.00    -0.344 C  
HETATM    9  C   UNL     1     -11.773  15.669  70.932  1.00  0.00    -0.423 A  
HETATM   10  C   UNL     1     -11.786  16.299  72.167  1.00  0.00    -0.585 A  
HETATM   11  C   UNL     1     -12.451  15.681  73.229  1.00  0.00    -0.612 A  
HETATM   12  C   UNL     1     -13.128  14.474  73.031  1.00  0.00    -0.611 A  
HETATM   13  C   UNL     1     -13.127  13.862  71.778  1.00  0.00    -0.458 A  
HETATM   14  C   UNL     1     -12.398  14.436  70.743  1.00  0.00    -0.417 A  
ENDBRANCH   4   6
ENDBRANCH   3   4
ENDBRANCH   2   3
TORSDOF 3
ENDMDL
MODEL        5
REMARK 921   NORMALIZED FREE ENERGY PREDICTED BY IDOCK:   -4.93 KCAL/MOL
REMARK 922        TOTAL FREE ENERGY PREDICTED BY IDOCK:   -6.09 KCAL/MOL
REMARK 923 INTER-LIGAND FREE ENERGY PREDICTED BY IDOCK:   -5.81 KCAL/MOL
REMARK 924 INTRA-LIGAND FREE ENERGY PREDICTED BY IDOCK:   -0.27 KCAL/MOL
REMARK 927      BINDING AFFINITY PREDICTED BY RF-SCORE:    0.00 PKD
ROOT
HETATM    1  C   UNL     1     -12.454  15.554  74.180  1.00  0.00    -0.805 C  
HETATM    2  C   UNL     1     -12.054  15.777  73.067  1.00  0.00    -0.601 C  
ENDROOT
BRANCH   2   3
HETATM    3  C   UNL     1     -11.662  15.992  71.671  1.00  0.00    -0.506 C  
BRANCH   3   4
HETATM    4  N   UNL     1     -11.213  14.746  71.059  1.00  0.00    -0.532 NA 
HETATM    5  H   UNL     1     -10.727  14.160  71.737  1.00  0.00     0.000 HD 
BRANCH   4   6
HETATM    6  C   UNL     1     -12.304  14.007  70.410  1.00  0.00    -0.359 C  
HETATM    7  C   UNL     1     -12.441  12.604  71.058  1.00  0.00    -0.354 C  
HETATM    8  C   UNL     1     -11.947  11.538  70.069  1.00  0.00    -0.435 C  
HETATM    9  C   UNL     1     -11.771  12.301  68.800  1.00  0.00    -0.390 A  
HETATM   10  C   UNL     1     -11.374  11.795  67.572  1.00  0.00    -0.377 A  
HETATM   11  C   UNL     1     -11.251  12.672  66.492  1.00  0.00    -0.342 A  
HETATM   12  C   UNL     1     -11.569  14.025  66.641  1.00  0.00    -0.400 A  
HETATM   13  C   UNL     1     -11.989  14.519  67.877  1.00  0.00    -0.322 A  
HETATM   14  C   UNL     1     -12.034  13.661  68.969  1.00  0.00    -0.392 A  
ENDBRANCH   4   6
ENDBRANCH   3   4
ENDBRANCH   2   3
TORSDOF 3
ENDMDL
MODEL        6
REMARK 921   NORMALIZED FREE ENERGY PREDICTED BY IDOCK:   -4.91 KCAL/MOL
REMARK 922        TOTAL FREE ENERGY PREDICTED BY IDOCK:   -6.06 KCAL/MOL
REMARK 923 INTER-LIGAND FREE ENERGY PREDICTED BY IDOCK:   -5.80 KCAL/MOL
REMARK 924 INTRA-LIGAND FREE ENERGY PREDICTED BY IDOCK:   -0.26 KCAL/MOL
REMARK 927      BINDING AFFINITY PREDICTED BY RF-SCORE:    0.00 PKD
ROOT
HETATM    1  C   UNL     1     -10.363   8.334  67.251  1.00  0.00    -0.372 C  
HETATM    2  C   UNL     1     -10.716   9.482  67.309  1.00  0.00    -0.269 C  
ENDROOT
BRANCH   2   3
HETATM    3  C   UNL     1     -11.164  10.865  67.496  1.00  0.00    -0.293 C  
BRANCH   3   4
HETATM    4  N   UNL     1     -12.152  10.953  68.566  1.00  0.00    -0.812 NA 
HETATM    5  H   UNL     1     -12.682  10.085  68.645  1.00  0.00     0.000 HD 
BRANCH   4   6
HETATM    6  C   UNL     1     -11.561  11.329  69.856  1.00  0.00    -0.334 C  
HETATM    7  C   UNL     1     -11.840  10.218  70.902  1.00  0.00    -0.473 C  
HETATM    8  C   UNL     1     -12.875  10.727  71.917  1.00  0.00    -0.460 C  
HETATM    9  C   UNL     1     -12.987  12.179  71.597  1.00  0.00    -0.427 A  
HETATM   10  C   UNL     1     -13.768  13.118  72.252  1.00  0.00    -0.647 A  
HETATM   11  C   UNL     1     -13.755  14.438  71.797  1.00  0.00    -0.504 A  
HETATM   12  C   UNL     1     -12.931  14.809  70.730  1.00  0.00    -0.407 A  
HETATM   13  C   UNL     1     -12.132  13.859  70.093  1.00  0.00    -0.418 A  
HETATM   14  C   UNL     1     -12.207  12.530  70.495  1.00  0.00    -0.382 A  
ENDBRANCH   4   6
ENDBRANCH   3   4
ENDBRANCH   2   3
TORSDOF 3
ENDMDL
MODEL        7
REMARK 921   NORMALIZED FREE ENERGY PREDICTED BY IDOCK:   -4.87 KCAL/MOL
REMARK 922        TOTAL FREE ENERGY PREDICTED BY IDOCK:   -6.02 KCAL/MOL
REMARK 923 INTER-LIGAND FREE ENERGY PREDICTED BY IDOCK:   -5.77 KCAL/MOL
REMARK 924 INTRA-LIGAND FREE ENERGY PREDICTED BY IDOCK:   -0.24 KCAL/MOL
REMARK 927      BINDING AFFINITY PREDICTED BY RF-SCORE:    0.00 PKD
ROOT
HETATM    1  C   UNL     1     -10.242  16.157  65.787  1.00  0.00    -0.397 C  
HETATM    2  C   UNL     1     -10.920  15.212  66.095  1.00  0.00    -0.331 C  
ENDROOT
BRANCH   2   3
HETATM    3  C   UNL     1     -11.687  14.058  66.572  1.00  0.00    -0.394 C  
BRANCH   3   4
HETATM    4  N   UNL     1     -12.390  14.376  67.810  1.00  0.00    -0.603 NA 
HETATM    5  H   UNL     1     -13.291  13.899  67.851  1.00  0.00     0.000 HD 
BRANCH   4   6
HETATM    6  C   UNL     1     -11.589  14.092  69.008  1.00  0.00    -0.304 C  
HETATM    7  C   UNL     1     -11.210  12.588  69.037  1.00  0.00    -0.321 C  
HETATM    8  C   UNL     1     -12.007  11.886  70.147  1.00  0.00    -0.413 C  
HETATM    9  C   UNL     1     -12.633  13.017  70.890  1.00  0.00    -0.364 A  
HETATM   10  C   UNL     1     -13.432  12.931  72.020  1.00  0.00    -0.568 A  
HETATM   11  C   UNL     1     -13.943  14.108  72.572  1.00  0.00    -0.536 A  
HETATM   12  C   UNL     1     -13.614  15.349  72.019  1.00  0.00    -0.588 A  
HETATM   13  C   UNL     1     -12.790  15.424  70.896  1.00  0.00    -0.536 A  
HETATM   14  C   UNL     1     -12.347  14.249  70.300  1.00  0.00    -0.418 A  
ENDBRANCH   4   6
ENDBRANCH   3   4
ENDBRANCH   2   3
TORSDOF 3
ENDMDL
MODEL        8
REMARK 921   NORMALIZED FREE ENERGY PREDICTED BY IDOCK:   -4.83 KCAL/MOL
REMARK 922        TOTAL FREE ENERGY PREDICTED BY IDOCK:   -5.97 KCAL/MOL
REMARK 923 INTER-LIGAND FREE ENERGY PREDICTED BY IDOCK:   -5.76 KCAL/MOL
REMARK 924 INTRA-LIGAND FREE ENERGY PREDICTED BY IDOCK:   -0.22 KCAL/MOL
REMARK 927      BINDING AFFINITY PREDICTED BY RF-SCORE:    0.00 PKD
ROOT
HETATM    1  C   UNL     1     -10.615  19.545  66.843  1.00  0.00    -0.602 C  
HETATM    2  C   UNL     1     -10.583  18.491  67.423  1.00  0.00    -0.463 C  
ENDROOT
BRANCH   2   3
HETATM    3  C   UNL     1     -10.494  17.162  68.034  1.00  0.00    -0.369 C  
BRANCH   3   4
HETATM    4  N   UNL     1     -10.813  17.221  69.456  1.00  0.00    -0.303 NA 
HETATM    5  H   UNL     1     -11.744  17.610  69.606  1.00  0.00     0.000 HD 
BRANCH   4   6
HETATM    6  C   UNL     1     -10.672  15.920  70.123  1.00  0.00    -0.332 C  
HETATM    7  C   UNL     1     -10.899  14.780  69.096  1.00  0.00    -0.267 C  
HETATM    8  C   UNL     1     -12.245  14.098  69.384  1.00  0.00    -0.329 C  
HETATM    9  C   UNL     1     -12.650  14.677  70.698  1.00  0.00    -0.419 A  
HETATM   10  C   UNL     1     -13.784  14.363  71.432  1.00  0.00    -0.419 A  
HETATM   11  C   UNL     1     -14.003  15.024  72.643  1.00  0.00    -0.491 A  
HETATM   12  C   UNL     1     -13.070  15.947  73.123  1.00  0.00    -0.673 A  
HETATM   13  C   UNL     1     -11.921  16.237  72.386  1.00  0.00    -0.630 A  
HETATM   14  C   UNL     1     -11.744  15.639  71.144  1.00  0.00    -0.461 A  
ENDBRANCH   4   6
ENDBRANCH   3   4
ENDBRANCH   2   3
TORSDOF 3
ENDMDL
MODEL        9
REMARK 921   NORMALIZED FREE ENERGY PREDICTED BY IDOCK:   -4.83 KCAL/MOL
REMARK 922        TOTAL FREE ENERGY PREDICTED BY IDOCK:   -5.97 KCAL/MOL
REMARK 923 INTER-LIGAND FREE ENERGY PREDICTED BY IDOCK:   -5.66 KCAL/MOL
REMARK 924 INTRA-LIGAND FREE ENERGY PREDICTED BY IDOCK:   -0.31 KCAL/MOL
REMARK 927      BINDING AFFINITY PREDICTED BY RF-SCORE:    0.00 PKD
ROOT
HETATM    1  C   UNL     1     -11.454  12.105  65.935  1.00  0.00    -0.418 C  
HETATM    2  C   UNL     1     -11.478  11.918  67.123  1.00  0.00    -0.386 C  
ENDROOT
BRANCH   2   3
HETATM    3  C   UNL     1     -11.392  11.668  68.565  1.00  0.00    -0.274 C  
BRANCH   3   4
HETATM    4  N   UNL     1     -10.890  12.845  69.267  1.00  0.00    -0.440 NA 
HETATM    5  H   UNL     1      -9.982  13.128  68.902  1.00  0.00     0.000 HD 
BRANCH   4   6
HETATM    6  C   UNL     1     -11.839  13.965  69.248  1.00  0.00    -0.348 C  
HETATM    7  C   UNL     1     -11.130  15.239  68.717  1.00  0.00    -0.273 C  
HETATM    8  C   UNL     1     -10.926  16.226  69.877  1.00  0.00    -0.365 C  
HETATM    9  C   UNL     1     -11.727  15.627  70.983  1.00  0.00    -0.444 A  
HETATM   10  C   UNL     1     -11.913  16.150  72.254  1.00  0.00    -0.637 A  
HETATM   11  C   UNL     1     -12.691  15.435  73.167  1.00  0.00    -0.593 A  
HETATM   12  C   UNL     1     -13.306  14.238  72.786  1.00  0.00    -0.621 A  
HETATM   13  C   UNL     1     -13.129  13.734  71.498  1.00  0.00    -0.435 A  
HETATM   14  C   UNL     1     -12.291  14.405  70.615  1.00  0.00    -0.422 A  
ENDBRANCH   4   6
ENDBRANCH   3   4
ENDBRANCH   2   3
TORSDOF 3
ENDMDL
MODEL       10
REMARK 921   NORMALIZED FREE ENERGY PREDICTED BY IDOCK:   -4.82 KCAL/MOL
REMARK 922        TOTAL FREE ENERGY PREDICTED BY IDOCK:   -5.96 KCAL/MOL
REMARK 923 INTER-LIGAND FREE ENERGY PREDICTED BY IDOCK:   -5.59 KCAL/MOL
REMARK 924 INTRA-LIGAND FREE ENERGY PREDICTED BY IDOCK:   -0.37 KCAL/MOL
REMARK 927      BINDING AFFINITY PREDICTED BY RF-SCORE:    0.00 PKD
ROOT
HETATM    1  C   UNL     1     -10.213  16.999  67.461  1.00  0.00    -0.323 C  
HETATM    2  C   UNL     1     -10.771  15.936  67.381  1.00  0.00    -0.313 C  
ENDROOT
BRANCH   2   3
HETATM    3  C   UNL     1     -11.490  14.676  67.178  1.00  0.00    -0.368 C  
BRANCH   3   4
HETATM    4  N   UNL     1     -12.334  14.367  68.328  1.00  0.00    -0.597 NA 
HETATM    5  H   UNL     1     -13.079  13.720  68.071  1.00  0.00     0.000 HD 
BRANCH   4   6
HETATM    6  C   UNL     1     -11.569  13.861  69.474  1.00  0.00    -0.301 C  
HETATM    7  C   UNL     1     -11.869  12.352  69.677  1.00  0.00    -0.380 C  
HETATM    8  C   UNL     1     -12.722  12.171  70.942  1.00  0.00    -0.280 C  
HETATM    9  C   UNL     1     -12.691  13.521  71.575  1.00  0.00    -0.412 A  
HETATM   10  C   UNL     1     -13.278  13.892  72.775  1.00  0.00    -0.543 A  
HETATM   11  C   UNL     1     -13.152  15.216  73.203  1.00  0.00    -0.625 A  
HETATM   12  C   UNL     1     -12.406  16.132  72.456  1.00  0.00    -0.564 A  
HETATM   13  C   UNL     1     -11.800  15.740  71.262  1.00  0.00    -0.491 A  
HETATM   14  C   UNL     1     -11.993  14.445  70.796  1.00  0.00    -0.391 A  
ENDBRANCH   4   6
ENDBRANCH   3   4
ENDBRANCH   2   3
TORSDOF 3
ENDMDL
MODEL       11
REMARK 921   NORMALIZED FREE ENERGY PREDICTED BY IDOCK:   -4.78 KCAL/MOL
REMARK 922        TOTAL FREE ENERGY PREDICTED BY IDOCK:   -5.91 KCAL/MOL
REMARK 923 INTER-LIGAND FREE ENERGY PREDICTED BY IDOCK:   -5.71 KCAL/MOL
REMARK 924 INTRA-LIGAND FREE ENERGY PREDICTED BY IDOCK:   -0.20 KCAL/MOL
REMARK 927      BINDING AFFINITY PREDICTED BY RF-SCORE:    0.00 PKD
ROOT
HETATM    1  C   UNL     1     -13.023  10.690  71.603  1.00  0.00    -0.582 C  
HETATM    2  C   UNL     1     -12.319  10.642  70.628  1.00  0.00    -0.462 C  
ENDROOT
BRANCH   2   3
HETATM    3  C   UNL     1     -11.448  10.469  69.463  1.00  0.00    -0.272 C  
BRANCH   3   4
HETATM    4  N   UNL     1     -12.062  11.034  68.265  1.00  0.00    -0.788 NA 
HETATM    5  H   UNL     1     -12.999  11.382  68.465  1.00  0.00     0.000 HD 
BRANCH   4   6
HETATM    6  C   UNL     1     -11.235  12.074  67.641  1.00  0.00    -0.282 C  
HETATM    7  C   UNL     1     -11.968  13.440  67.721  1.00  0.00    -0.363 C  
HETATM    8  C   UNL     1     -12.453  13.838  66.319  1.00  0.00    -0.441 C  
HETATM    9  C   UNL     1     -11.790  12.842  65.429  1.00  0.00    -0.456 A  
HETATM   10  C   UNL     1     -11.865  12.780  64.046  1.00  0.00    -0.506 A  
HETATM   11  C   UNL     1     -11.182  11.759  63.381  1.00  0.00    -0.440 A  
HETATM   12  C   UNL     1     -10.400  10.849  64.098  1.00  0.00    -0.432 A  
HETATM   13  C   UNL     1     -10.314  10.935  65.488  1.00  0.00    -0.316 A  
HETATM   14  C   UNL     1     -11.058  11.902  66.155  1.00  0.00    -0.374 A  
ENDBRANCH   4   6
ENDBRANCH   3   4
ENDBRANCH   2   3
TORSDOF 3
ENDMDL
MODEL       12
REMARK 921   NORMALIZED FREE ENERGY PREDICTED BY IDOCK:   -4.78 KCAL/MOL
REMARK 922        TOTAL FREE ENERGY PREDICTED BY IDOCK:   -5.91 KCAL/MOL
REMARK 923 INTER-LIGAND FREE ENERGY PREDICTED BY IDOCK:   -5.52 KCAL/MOL
REMARK 924 INTRA-LIGAND FREE ENERGY PREDICTED BY IDOCK:   -0.39 KCAL/MOL
REMARK 927      BINDING AFFINITY PREDICTED BY RF-SCORE:    0.00 PKD
ROOT
HETATM    1  C   UNL     1     -10.106  10.844  63.911  1.00  0.00    -0.422 C  
HETATM    2  C   UNL     1     -11.030  11.576  63.671  1.00  0.00    -0.482 C  
ENDROOT
BRANCH   2   3
HETATM    3  C   UNL     1     -12.216  12.413  63.463  1.00  0.00    -0.563 C  
BRANCH   3   4
HETATM    4  N   UNL     1     -13.015  12.495  64.681  1.00  0.00    -0.844 NA 
HETATM    5  H   UNL     1     -12.883  11.668  65.261  1.00  0.00     0.000 HD 
BRANCH   4   6
HETATM    6  C   UNL     1     -12.758  13.722  65.446  1.00  0.00    -0.472 C  
HETATM    7  C   UNL     1     -12.128  14.793  64.517  1.00  0.00    -0.460 C  
HETATM    8  C   UNL     1     -10.648  14.978  64.887  1.00  0.00    -0.400 C  
HETATM    9  C   UNL     1     -10.512  14.211  66.158  1.00  0.00    -0.297 A  
HETATM   10  C   UNL     1      -9.373  14.087  66.939  1.00  0.00    -0.266 A  
HETATM   11  C   UNL     1      -9.434  13.310  68.098  1.00  0.00    -0.222 A  
HETATM   12  C   UNL     1     -10.637  12.710  68.483  1.00  0.00    -0.262 A  
HETATM   13  C   UNL     1     -11.782  12.861  67.702  1.00  0.00    -0.422 A  
HETATM   14  C   UNL     1     -11.700  13.568  66.508  1.00  0.00    -0.408 A  
ENDBRANCH   4   6
ENDBRANCH   3   4
ENDBRANCH   2   3
TORSDOF 3
ENDMDL
MODEL       13
REMARK 921   NORMALIZED FREE ENERGY PREDICTED BY IDOCK:   -4.68 KCAL/MOL
REMARK 922        TOTAL FREE ENERGY PREDICTED BY IDOCK:   -5.79 KCAL/MOL
REMARK 923 INTER-LIGAND FREE ENERGY PREDICTED BY IDOCK:   -5.34 KCAL/MOL
REMARK 924 INTRA-LIGAND FREE ENERGY PREDICTED BY IDOCK:   -0.45 KCAL/MOL
REMARK 927      BINDING AFFINITY PREDICTED BY RF-SCORE:    0.00 PKD
ROOT
HETATM    1  C   UNL     1     -13.258   9.116  72.427  1.00  0.00    -0.512 C  
HETATM    2  C   UNL     1     -12.345   9.243  71.653  1.00  0.00    -0.450 C  
ENDROOT
BRANCH   2   3
HETATM    3  C   UNL     1     -11.236   9.511  70.734  1.00  0.00    -0.317 C  
BRANCH   3   4
HETATM    4  N   UNL     1     -10.953  10.941  70.663  1.00  0.00    -0.231 NA 
HETATM    5  H   UNL     1     -10.033  11.112  70.258  1.00  0.00     0.000 HD 
BRANCH   4   6
HETATM    6  C   UNL     1     -11.992  11.690  69.945  1.00  0.00    -0.340 C  
HETATM    7  C   UNL     1     -11.369  12.391  68.709  1.00  0.00    -0.339 C  
HETATM    8  C   UNL     1     -11.308  13.906  68.963  1.00  0.00    -0.324 C  
HETATM    9  C   UNL     1     -12.109  14.079  70.209  1.00  0.00    -0.425 A  
HETATM   10  C   UNL     1     -12.402  15.272  70.851  1.00  0.00    -0.433 A  
HETATM   11  C   UNL     1     -13.160  15.235  72.024  1.00  0.00    -0.473 A  
HETATM   12  C   UNL     1     -13.651  14.019  72.509  1.00  0.00    -0.670 A  
HETATM   13  C   UNL     1     -13.368  12.827  71.841  1.00  0.00    -0.510 A  
HETATM   14  C   UNL     1     -12.547  12.857  70.720  1.00  0.00    -0.314 A  
ENDBRANCH   4   6
ENDBRANCH   3   4
ENDBRANCH   2   3
TORSDOF 3
ENDMDL
MODEL       14
REMARK 921   NORMALIZED FREE ENERGY PREDICTED BY IDOCK:   -4.65 KCAL/MOL
REMARK 922        TOTAL FREE ENERGY PREDICTED BY IDOCK:   -5.76 KCAL/MOL
REMARK 923 INTER-LIGAND FREE ENERGY PREDICTED BY IDOCK:   -5.58 KCAL/MOL
REMARK 924 INTRA-LIGAND FREE ENERGY PREDICTED BY IDOCK:   -0.18 KCAL/MOL
REMARK 927      BINDING AFFINITY PREDICTED BY RF-SCORE:    0.00 PKD
ROOT
HETATM    1  C   UNL     1     -14.197  15.176  72.144  1.00  0.00    -0.656 C  
HETATM    2  C   UNL     1     -13.323  15.321  71.330  1.00  0.00    -0.586 C  
ENDROOT
BRANCH   2   3
HETATM    3  C   UNL     1     -12.310  15.599  70.308  1.00  0.00    -0.370 C  
BRANCH   3   4
HETATM    4  N   UNL     1     -12.487  14.731  69.149  1.00  0.00    -0.580 NA 
HETATM    5  H   UNL     1     -13.214  15.091  68.531  1.00  0.00     0.000 HD 
BRANCH   4   6
HETATM    6  C   UNL     1     -11.237  14.502  68.415  1.00  0.00    -0.271 C  
HETATM    7  C   UNL     1     -10.501  15.851  68.204  1.00  0.00    -0.270 C  
HETATM    8  C   UNL     1     -10.587  16.249  66.722  1.00  0.00    -0.257 C  
HETATM    9  C   UNL     1     -11.140  15.028  66.069  1.00  0.00    -0.329 A  
HETATM   10  C   UNL     1     -11.379  14.843  64.716  1.00  0.00    -0.400 A  
HETATM   11  C   UNL     1     -11.917  13.627  64.290  1.00  0.00    -0.488 A  
HETATM   12  C   UNL     1     -12.165  12.603  65.209  1.00  0.00    -0.532 A  
HETATM   13  C   UNL     1     -11.899  12.793  66.565  1.00  0.00    -0.471 A  
HETATM   14  C   UNL     1     -11.439  14.031  66.998  1.00  0.00    -0.370 A  
ENDBRANCH   4   6
ENDBRANCH   3   4
ENDBRANCH   2   3
TORSDOF 3
ENDMDL
MODEL       15
REMARK 921   NORMALIZED FREE ENERGY PREDICTED BY IDOCK:   -4.64 KCAL/MOL
REMARK 922        TOTAL FREE ENERGY PREDICTED BY IDOCK:   -5.75 KCAL/MOL
REMARK 923 INTER-LIGAND FREE ENERGY PREDICTED BY IDOCK:   -5.36 KCAL/MOL
REMARK 924 INTRA-LIGAND FREE ENERGY PREDICTED BY IDOCK:   -0.39 KCAL/MOL
REMARK 927      BINDING AFFINITY PREDICTED BY RF-SCORE:    0.00 PKD
ROOT
HETATM    1  C   UNL     1     -10.054  15.542  67.536  1.00  0.00    -0.241 C  
HETATM    2  C   UNL     1     -10.238  15.982  68.641  1.00  0.00    -0.231 C  
ENDROOT
BRANCH   2   3
HETATM    3  C   UNL     1     -10.555  16.447  69.994  1.00  0.00    -0.203 C  
BRANCH   3   4
HETATM    4  N   UNL     1     -10.930  15.330  70.854  1.00  0.00    -0.493 NA 
HETATM    5  H   UNL     1     -10.847  15.582  71.838  1.00  0.00     0.000 HD 
BRANCH   4   6
HETATM    6  C   UNL     1     -12.271  14.810  70.556  1.00  0.00    -0.322 C  
HETATM    7  C   UNL     1     -13.258  15.244  71.671  1.00  0.00    -0.532 C  
HETATM    8  C   UNL     1     -13.635  14.019  72.519  1.00  0.00    -0.670 C  
HETATM    9  C   UNL     1     -13.070  12.877  71.745  1.00  0.00    -0.458 A  
HETATM   10  C   UNL     1     -13.167  11.530  72.058  1.00  0.00    -0.443 A  
HETATM   11  C   UNL     1     -12.557  10.599  71.215  1.00  0.00    -0.533 A  
HETATM   12  C   UNL     1     -11.903  11.020  70.053  1.00  0.00    -0.435 A  
HETATM   13  C   UNL     1     -11.832  12.377  69.737  1.00  0.00    -0.387 A  
HETATM   14  C   UNL     1     -12.370  13.308  70.618  1.00  0.00    -0.416 A  
ENDBRANCH   4   6
ENDBRANCH   3   4
ENDBRANCH   2   3
TORSDOF 3
ENDMDL
MODEL       16
REMARK 921   NORMALIZED FREE ENERGY PREDICTED BY IDOCK:   -4.57 KCAL/MOL
REMARK 922        TOTAL FREE ENERGY PREDICTED BY IDOCK:   -5.67 KCAL/MOL
REMARK 923 INTER-LIGAND FREE ENERGY PREDICTED BY IDOCK:   -5.32 KCAL/MOL
REMARK 924 INTRA-LIGAND FREE ENERGY PREDICTED BY IDOCK:   -0.34 KCAL/MOL
REMARK 927      BINDING AFFINITY PREDICTED BY RF-SCORE:    0.00 PKD
ROOT
HETATM    1  C   UNL     1      -8.533  15.655  66.587  1.00  0.00    -0.323 C  
HETATM    2  C   UNL     1      -9.574  15.815  66.006  1.00  0.00    -0.388 C  
ENDROOT
BRANCH   2   3
HETATM    3  C   UNL     1     -10.897  15.983  65.398  1.00  0.00    -0.328 C  
BRANCH   3   4
HETATM    4  N   UNL     1     -11.064  15.087  64.258  1.00  0.00    -0.621 NA 
HETATM    5  H   UNL     1     -10.161  14.773  63.905  1.00  0.00     0.000 HD 
BRANCH   4   6
HETATM    6  C   UNL     1     -11.939  13.946  64.557  1.00  0.00    -0.437 C  
HETATM    7  C   UNL     1     -12.481  14.070  66.006  1.00  0.00    -0.489 C  
HETATM    8  C   UNL     1     -11.810  13.008  66.891  1.00  0.00    -0.442 C  
HETATM    9  C   UNL     1     -11.095  12.144  65.909  1.00  0.00    -0.360 A  
HETATM   10  C   UNL     1     -10.356  11.004  66.186  1.00  0.00    -0.306 A  
HETATM   11  C   UNL     1      -9.741  10.328  65.130  1.00  0.00    -0.364 A  
HETATM   12  C   UNL     1      -9.911  10.771  63.814  1.00  0.00    -0.411 A  
HETATM   13  C   UNL     1     -10.676  11.906  63.546  1.00  0.00    -0.504 A  
HETATM   14  C   UNL     1     -11.220  12.623  64.604  1.00  0.00    -0.348 A  
ENDBRANCH   4   6
ENDBRANCH   3   4
ENDBRANCH   2   3
TORSDOF 3
ENDMDL
MODEL       17
REMARK 921   NORMALIZED FREE ENERGY PREDICTED BY IDOCK:   -4.57 KCAL/MOL
REMARK 922        TOTAL FREE ENERGY PREDICTED BY IDOCK:   -5.66 KCAL/MOL
REMARK 923 INTER-LIGAND FREE ENERGY PREDICTED BY IDOCK:   -5.37 KCAL/MOL
REMARK 924 INTRA-LIGAND FREE ENERGY PREDICTED BY IDOCK:   -0.29 KCAL/MOL
REMARK 927      BINDING AFFINITY PREDICTED BY RF-SCORE:    0.00 PKD
ROOT
HETATM    1  C   UNL     1      -9.841   9.557  70.523  1.00  0.00    -0.331 C  
HETATM    2  C   UNL     1     -10.900  10.050  70.236  1.00  0.00    -0.370 C  
ENDROOT
BRANCH   2   3
HETATM    3  C   UNL     1     -12.142  10.687  69.787  1.00  0.00    -0.272 C  
BRANCH   3   4
HETATM    4  N   UNL     1     -12.161  10.824  68.335  1.00  0.00    -0.827 NA 
HETATM    5  H   UNL     1     -13.105  11.009  67.998  1.00  0.00     0.000 HD 
BRANCH   4   6
HETATM    6  C   UNL     1     -11.220  11.841  67.849  1.00  0.00    -0.267 C  
HETATM    7  C   UNL     1     -11.768  13.256  68.172  1.00  0.00    -0.397 C  
HETATM    8  C   UNL     1     -12.225  13.932  66.870  1.00  0.00    -0.415 C  
HETATM    9  C   UNL     1     -11.714  13.017  65.809  1.00  0.00    -0.427 A  
HETATM   10  C   UNL     1     -11.825  13.189  64.438  1.00  0.00    -0.441 A  
HETATM   11  C   UNL     1     -11.292  12.211  63.594  1.00  0.00    -0.545 A  
HETATM   12  C   UNL     1     -10.621  11.107  64.127  1.00  0.00    -0.436 A  
HETATM   13  C   UNL     1     -10.496  10.957  65.508  1.00  0.00    -0.286 A  
HETATM   14  C   UNL     1     -11.096  11.889  66.348  1.00  0.00    -0.359 A  
ENDBRANCH   4   6
ENDBRANCH   3   4
ENDBRANCH   2   3
TORSDOF 3
ENDMDL
MODEL       18
REMARK 921   NORMALIZED FREE ENERGY PREDICTED BY IDOCK:   -4.55 KCAL/MOL
REMARK 922        TOTAL FREE ENERGY PREDICTED BY IDOCK:   -5.64 KCAL/MOL
REMARK 923 INTER-LIGAND FREE ENERGY PREDICTED BY IDOCK:   -5.31 KCAL/MOL
REMARK 924 INTRA-LIGAND FREE ENERGY PREDICTED BY IDOCK:   -0.33 KCAL/MOL
REMARK 927      BINDING AFFINITY PREDICTED BY RF-SCORE:    0.00 PKD
ROOT
HETATM    1  C   UNL     1     -13.260  15.310  71.237  1.00  0.00    -0.563 C  
HETATM    2  C   UNL     1     -12.488  15.522  70.339  1.00  0.00    -0.443 C  
ENDROOT
BRANCH   2   3
HETATM    3  C   UNL     1     -11.640  15.820  69.182  1.00  0.00    -0.392 C  
BRANCH   3   4
HETATM    4  N   UNL     1     -11.017  14.606  68.666  1.00  0.00    -0.246 NA 
HETATM    5  H   UNL     1     -10.372  14.208  69.348  1.00  0.00     0.000 HD 
BRANCH   4   6
HETATM    6  C   UNL     1     -12.000  13.607  68.226  1.00  0.00    -0.350 C  
HETATM    7  C   UNL     1     -11.626  12.217  68.804  1.00  0.00    -0.380 C  
HETATM    8  C   UNL     1     -11.110  11.318  67.670  1.00  0.00    -0.336 C  
HETATM    9  C   UNL     1     -11.422  12.102  66.440  1.00  0.00    -0.430 A  
HETATM   10  C   UNL     1     -11.194  11.718  65.127  1.00  0.00    -0.311 A  
HETATM   11  C   UNL     1     -11.543  12.598  64.100  1.00  0.00    -0.458 A  
HETATM   12  C   UNL     1     -12.154  13.820  64.394  1.00  0.00    -0.474 A  
HETATM   13  C   UNL     1     -12.400  14.185  65.718  1.00  0.00    -0.481 A  
HETATM   14  C   UNL     1     -11.979  13.345  66.742  1.00  0.00    -0.447 A  
ENDBRANCH   4   6
ENDBRANCH   3   4
ENDBRANCH   2   3
TORSDOF 3
ENDMDL
MODEL       19
REMARK 921   NORMALIZED FREE ENERGY PREDICTED BY IDOCK:   -4.50 KCAL/MOL
REMARK 922        TOTAL FREE ENERGY PREDICTED BY IDOCK:   -5.58 KCAL/MOL
REMARK 923 INTER-LIGAND FREE ENERGY PREDICTED BY IDOCK:   -5.20 KCAL/MOL
REMARK 924 INTRA-LIGAND FREE ENERGY PREDICTED BY IDOCK:   -0.38 KCAL/MOL
REMARK 927      BINDING AFFINITY PREDICTED BY RF-SCORE:    0.00 PKD
ROOT
HETATM    1  C   UNL     1     -10.900   6.448  66.957  1.00  0.00    -0.464 C  
HETATM    2  C   UNL     1     -11.067   6.322  68.142  1.00  0.00    -0.364 C  
ENDROOT
BRANCH   2   3
HETATM    3  C   UNL     1     -11.174   6.101  69.587  1.00  0.00    -0.418 C  
BRANCH   3   4
HETATM    4  N   UNL     1     -12.139   7.018  70.184  1.00  0.00    -0.623 NA 
HETATM    5  H   UNL     1     -12.883   6.507  70.658  1.00  0.00     0.000 HD 
BRANCH   4   6
HETATM    6  C   UNL     1     -11.513   7.994  71.085  1.00  0.00    -0.276 C  
HETATM    7  C   UNL     1     -12.443   8.254  72.299  1.00  0.00    -0.384 C  
HETATM    8  C   UNL     1     -13.048   9.662  72.182  1.00  0.00    -0.520 C  
HETATM    9  C   UNL     1     -12.281  10.274  71.059  1.00  0.00    -0.487 A  
HETATM   10  C   UNL     1     -12.409  11.565  70.569  1.00  0.00    -0.432 A  
HETATM   11  C   UNL     1     -11.608  11.958  69.495  1.00  0.00    -0.394 A  
HETATM   12  C   UNL     1     -10.663  11.077  68.959  1.00  0.00    -0.258 A  
HETATM   13  C   UNL     1     -10.527   9.789  69.476  1.00  0.00    -0.250 A  
HETATM   14  C   UNL     1     -11.380   9.372  70.492  1.00  0.00    -0.328 A  
ENDBRANCH   4   6
ENDBRANCH   3   4
ENDBRANCH   2   3
TORSDOF 3
ENDMDL
MODEL       20
REMARK 921   NORMALIZED FREE ENERGY PREDICTED BY IDOCK:   -4.48 KCAL/MOL
REMARK 922        TOTAL FREE ENERGY PREDICTED BY IDOCK:   -5.55 KCAL/MOL
REMARK 923 INTER-LIGAND FREE ENERGY PREDICTED BY IDOCK:   -5.34 KCAL/MOL
REMARK 924 INTRA-LIGAND FREE ENERGY PREDICTED BY IDOCK:   -0.21 KCAL/MOL
REMARK 927      BINDING AFFINITY PREDICTED BY RF-SCORE:    0.00 PKD
ROOT
HETATM    1  C   UNL     1     -12.841  15.625  73.227  1.00  0.00    -0.643 C  
HETATM    2  C   UNL     1     -13.380  14.675  72.724  1.00  0.00    -0.593 C  
ENDROOT
BRANCH   2   3
HETATM    3  C   UNL     1     -14.009  13.456  72.207  1.00  0.00    -0.507 C  
BRANCH   3   4
HETATM    4  N   UNL     1     -13.191  12.284  72.497  1.00  0.00    -0.436 NA 
HETATM    5  H   UNL     1     -13.379  11.930  73.434  1.00  0.00     0.000 HD 
BRANCH   4   6
HETATM    6  C   UNL     1     -13.343  11.223  71.493  1.00  0.00    -0.105 C  
HETATM    7  C   UNL     1     -13.277   9.836  72.185  1.00  0.00    -0.530 C  
HETATM    8  C   UNL     1     -11.950   9.151  71.823  1.00  0.00    -0.449 C  
HETATM    9  C   UNL     1     -11.394  10.024  70.750  1.00  0.00    -0.439 A  
HETATM   10  C   UNL     1     -10.216   9.828  70.044  1.00  0.00    -0.308 A  
HETATM   11  C   UNL     1      -9.848  10.768  69.078  1.00  0.00    -0.208 A  
HETATM   12  C   UNL     1     -10.680  11.857  68.800  1.00  0.00    -0.257 A  
HETATM   13  C   UNL     1     -11.873  12.031  69.501  1.00  0.00    -0.390 A  
HETATM   14  C   UNL     1     -12.199  11.140  70.517  1.00  0.00    -0.475 A  
ENDBRANCH   4   6
ENDBRANCH   3   4
ENDBRANCH   2   3
TORSDOF 3
ENDMDL
MODEL       21
REMARK 921   NORMALIZED FREE ENERGY PREDICTED BY IDOCK:   -4.45 KCAL/MOL
REMARK 922        TOTAL FREE ENERGY PREDICTED BY IDOCK:   -5.52 KCAL/MOL
REMARK 923 INTER-LIGAND FREE ENERGY PREDICTED BY IDOCK:   -5.32 KCAL/MOL
REMARK 924 INTRA-LIGAND FREE ENERGY PREDICTED BY IDOCK:   -0.20 KCAL/MOL
REMARK 927      BINDING AFFINITY PREDICTED BY RF-SCORE:    0.00 PKD
ROOT
HETATM    1  C   UNL     1     -12.517  13.053  65.096  1.00  0.00    -0.552 C  
HETATM    2  C   UNL     1     -11.871  12.348  65.826  1.00  0.00    -0.467 C  
ENDROOT
BRANCH   2   3
HETATM    3  C   UNL     1     -11.169  11.503  66.795  1.00  0.00    -0.285 C  
BRANCH   3   4
HETATM    4  N   UNL     1     -11.949  11.356  68.020  1.00  0.00    -0.640 NA 
HETATM    5  H   UNL     1     -12.494  10.494  68.004  1.00  0.00     0.000 HD 
BRANCH   4   6
HETATM    6  C   UNL     1     -11.124  11.435  69.231  1.00  0.00    -0.254 C  
HETATM    7  C   UNL     1      -9.744  10.778  68.966  1.00  0.00    -0.201 C  
HETATM    8  C   UNL     1      -9.660   9.447  69.731  1.00  0.00    -0.216 C  
HETATM    9  C   UNL     1     -10.867   9.477  70.606  1.00  0.00    -0.371 A  
HETATM   10  C   UNL     1     -11.246   8.520  71.535  1.00  0.00    -0.345 A  
HETATM   11  C   UNL     1     -12.425   8.716  72.258  1.00  0.00    -0.460 A  
HETATM   12  C   UNL     1     -13.180   9.879  72.077  1.00  0.00    -0.555 A  
HETATM   13  C   UNL     1     -12.776  10.845  71.155  1.00  0.00    -0.530 A  
HETATM   14  C   UNL     1     -11.646  10.612  70.380  1.00  0.00    -0.441 A  
ENDBRANCH   4   6
ENDBRANCH   3   4
ENDBRANCH   2   3
TORSDOF 3
ENDMDL
MODEL       22
REMARK 921   NORMALIZED FREE ENERGY PREDICTED BY IDOCK:   -4.44 KCAL/MOL
REMARK 922        TOTAL FREE ENERGY PREDICTED BY IDOCK:   -5.51 KCAL/MOL
REMARK 923 INTER-LIGAND FREE ENERGY PREDICTED BY IDOCK:   -5.29 KCAL/MOL
REMARK 924 INTRA-LIGAND FREE ENERGY PREDICTED BY IDOCK:   -0.22 KCAL/MOL
REMARK 927      BINDING AFFINITY PREDICTED BY RF-SCORE:    0.00 PKD
ROOT
HETATM    1  C   UNL     1     -10.262  11.789  63.222  1.00  0.00    -0.452 C  
HETATM    2  C   UNL     1     -11.390  11.978  63.594  1.00  0.00    -0.536 C  
ENDROOT
BRANCH   2   3
HETATM    3  C   UNL     1     -12.756  12.317  64.002  1.00  0.00    -0.352 C  
BRANCH   3   4
HETATM    4  N   UNL     1     -12.752  13.358  65.024  1.00  0.00    -0.685 NA 
HETATM    5  H   UNL     1     -13.604  13.324  65.583  1.00  0.00     0.000 HD 
BRANCH   4   6
HETATM    6  C   UNL     1     -11.559  13.309  65.879  1.00  0.00    -0.347 C  
HETATM    7  C   UNL     1     -11.910  12.623  67.225  1.00  0.00    -0.395 C  
HETATM    8  C   UNL     1     -11.922  13.678  68.343  1.00  0.00    -0.391 C  
HETATM    9  C   UNL     1     -11.345  14.885  67.684  1.00  0.00    -0.348 A  
HETATM   10  C   UNL     1     -11.097  16.116  68.272  1.00  0.00    -0.348 A  
HETATM   11  C   UNL     1     -10.562  17.139  67.486  1.00  0.00    -0.323 A  
HETATM   12  C   UNL     1     -10.240  16.906  66.146  1.00  0.00    -0.352 A  
HETATM   13  C   UNL     1     -10.472  15.656  65.572  1.00  0.00    -0.426 A  
HETATM   14  C   UNL     1     -11.079  14.663  66.333  1.00  0.00    -0.334 A  
ENDBRANCH   4   6
ENDBRANCH   3   4
ENDBRANCH   2   3
TORSDOF 3
ENDMDL
MODEL       23
REMARK 921   NORMALIZED FREE ENERGY PREDICTED BY IDOCK:   -4.36 KCAL/MOL
REMARK 922        TOTAL FREE ENERGY PREDICTED BY IDOCK:   -5.42 KCAL/MOL
REMARK 923 INTER-LIGAND FREE ENERGY PREDICTED BY IDOCK:   -5.09 KCAL/MOL
REMARK 924 INTRA-LIGAND FREE ENERGY PREDICTED BY IDOCK:   -0.33 KCAL/MOL
REMARK 927      BINDING AFFINITY PREDICTED BY RF-SCORE:    0.00 PKD
ROOT
HETATM    1  C   UNL     1     -10.296  14.468  65.675  1.00  0.00    -0.367 C  
HETATM    2  C   UNL     1      -9.846  14.124  66.736  1.00  0.00    -0.275 C  
ENDROOT
BRANCH   2   3
HETATM    3  C   UNL     1      -9.242  13.619  67.972  1.00  0.00    -0.197 C  
BRANCH   3   4
HETATM    4  N   UNL     1      -9.886  14.203  69.144  1.00  0.00    -0.426 NA 
HETATM    5  H   UNL     1      -9.536  15.144  69.322  1.00  0.00     0.000 HD 
BRANCH   4   6
HETATM    6  C   UNL     1     -11.352  14.197  69.048  1.00  0.00    -0.275 C  
HETATM    7  C   UNL     1     -11.919  15.510  69.646  1.00  0.00    -0.380 C  
HETATM    8  C   UNL     1     -12.613  15.201  70.982  1.00  0.00    -0.441 C  
HETATM    9  C   UNL     1     -12.653  13.711  71.012  1.00  0.00    -0.441 A  
HETATM   10  C   UNL     1     -13.218  12.912  71.995  1.00  0.00    -0.549 A  
HETATM   11  C   UNL     1     -13.146  11.524  71.856  1.00  0.00    -0.492 A  
HETATM   12  C   UNL     1     -12.557  10.958  70.722  1.00  0.00    -0.470 A  
HETATM   13  C   UNL     1     -12.013  11.772  69.728  1.00  0.00    -0.392 A  
HETATM   14  C   UNL     1     -12.014  13.150  69.905  1.00  0.00    -0.387 A  
ENDBRANCH   4   6
ENDBRANCH   3   4
ENDBRANCH   2   3
TORSDOF 3
ENDMDL
MODEL       24
REMARK 921   NORMALIZED FREE ENERGY PREDICTED BY IDOCK:   -4.36 KCAL/MOL
REMARK 922        TOTAL FREE ENERGY PREDICTED BY IDOCK:   -5.41 KCAL/MOL
REMARK 923 INTER-LIGAND FREE ENERGY PREDICTED BY IDOCK:   -5.24 KCAL/MOL
REMARK 924 INTRA-LIGAND FREE ENERGY PREDICTED BY IDOCK:   -0.17 KCAL/MOL
REMARK 927      BINDING AFFINITY PREDICTED BY RF-SCORE:    0.00 PKD
ROOT
HETATM    1  C   UNL     1     -10.018   7.103  73.632  1.00  0.00    -0.367 C  
HETATM    2  C   UNL     1     -10.807   7.749  72.994  1.00  0.00    -0.451 C  
ENDROOT
BRANCH   2   3
HETATM    3  C   UNL     1     -11.845   8.520  72.305  1.00  0.00    -0.383 C  
BRANCH   3   4
HETATM    4  N   UNL     1     -11.253   9.576  71.489  1.00  0.00    -0.383 NA 
HETATM    5  H   UNL     1     -10.443   9.230  70.976  1.00  0.00     0.000 HD 
BRANCH   4   6
HETATM    6  C   UNL     1     -12.223  10.202  70.582  1.00  0.00    -0.302 C  
HETATM    7  C   UNL     1     -11.554  10.472  69.208  1.00  0.00    -0.308 C  
HETATM    8  C   UNL     1     -11.336  11.983  69.038  1.00  0.00    -0.331 C  
HETATM    9  C   UNL     1     -12.093  12.571  70.181  1.00  0.00    -0.368 A  
HETATM   10  C   UNL     1     -12.253  13.918  70.469  1.00  0.00    -0.443 A  
HETATM   11  C   UNL     1     -12.991  14.280  71.598  1.00  0.00    -0.420 A  
HETATM   12  C   UNL     1     -13.594  13.299  72.392  1.00  0.00    -0.694 A  
HETATM   13  C   UNL     1     -13.445  11.948  72.079  1.00  0.00    -0.336 A  
HETATM   14  C   UNL     1     -12.644  11.586  71.001  1.00  0.00    -0.457 A  
ENDBRANCH   4   6
ENDBRANCH   3   4
ENDBRANCH   2   3
TORSDOF 3
ENDMDL
MODEL       25
REMARK 921   NORMALIZED FREE ENERGY PREDICTED BY IDOCK:   -4.32 KCAL/MOL
REMARK 922        TOTAL FREE ENERGY PREDICTED BY IDOCK:   -5.36 KCAL/MOL
REMARK 923 INTER-LIGAND FREE ENERGY PREDICTED BY IDOCK:   -5.05 KCAL/MOL
REMARK 924 INTRA-LIGAND FREE ENERGY PREDICTED BY IDOCK:   -0.32 KCAL/MOL
REMARK 927      BINDING AFFINITY PREDICTED BY RF-SCORE:    0.00 PKD
ROOT
HETATM    1  C   UNL     1     -10.886   6.940  67.111  1.00  0.00    -0.447 C  
HETATM    2  C   UNL     1     -10.655   8.121  67.097  1.00  0.00    -0.355 C  
ENDROOT
BRANCH   2   3
HETATM    3  C   UNL     1     -10.488   9.577  67.084  1.00  0.00    -0.253 C  
BRANCH   3   4
HETATM    4  N   UNL     1     -11.532  10.227  67.869  1.00  0.00    -0.652 NA 
HETATM    5  H   UNL     1     -12.314   9.594  68.033  1.00  0.00     0.000 HD 
BRANCH   4   6
HETATM    6  C   UNL     1     -11.030  10.783  69.132  1.00  0.00    -0.244 C  
HETATM    7  C   UNL     1      -9.528  10.432  69.295  1.00  0.00    -0.214 C  
HETATM    8  C   UNL     1      -9.371   9.376  70.401  1.00  0.00    -0.317 C  
HETATM    9  C   UNL     1     -10.727   9.320  71.018  1.00  0.00    -0.387 A  
HETATM   10  C   UNL     1     -11.119   8.545  72.099  1.00  0.00    -0.436 A  
HETATM   11  C   UNL     1     -12.445   8.615  72.530  1.00  0.00    -0.372 A  
HETATM   12  C   UNL     1     -13.344   9.489  71.910  1.00  0.00    -0.518 A  
HETATM   13  C   UNL     1     -12.932  10.281  70.838  1.00  0.00    -0.456 A  
HETATM   14  C   UNL     1     -11.634  10.151  70.358  1.00  0.00    -0.396 A  
ENDBRANCH   4   6
ENDBRANCH   3   4
ENDBRANCH   2   3
TORSDOF 3
ENDMDL
MODEL       26
REMARK 921   NORMALIZED FREE ENERGY PREDICTED BY IDOCK:   -4.31 KCAL/MOL
REMARK 922        TOTAL FREE ENERGY PREDICTED BY IDOCK:   -5.35 KCAL/MOL
REMARK 923 INTER-LIGAND FREE ENERGY PREDICTED BY IDOCK:   -5.12 KCAL/MOL
REMARK 924 INTRA-LIGAND FREE ENERGY PREDICTED BY IDOCK:   -0.23 KCAL/MOL
REMARK 927      BINDING AFFINITY PREDICTED BY RF-SCORE:    0.00 PKD
ROOT
HETATM    1  C   UNL     1     -12.627   8.741  72.136  1.00  0.00    -0.463 C  
HETATM    2  C   UNL     1     -12.802   9.742  71.491  1.00  0.00    -0.502 C  
ENDROOT
BRANCH   2   3
HETATM    3  C   UNL     1     -12.906  10.946  70.662  1.00  0.00    -0.255 C  
BRANCH   3   4
HETATM    4  N   UNL     1     -12.416  10.692  69.311  1.00  0.00    -0.711 NA 
HETATM    5  H   UNL     1     -13.187  10.653  68.645  1.00  0.00     0.000 HD 
BRANCH   4   6
HETATM    6  C   UNL     1     -11.400  11.662  68.885  1.00  0.00    -0.267 C  
HETATM    7  C   UNL     1     -11.603  12.999  69.645  1.00  0.00    -0.322 C  
HETATM    8  C   UNL     1     -12.146  14.057  68.672  1.00  0.00    -0.332 C  
HETATM    9  C   UNL     1     -12.013  13.401  67.340  1.00  0.00    -0.391 A  
HETATM   10  C   UNL     1     -12.329  13.950  66.106  1.00  0.00    -0.504 A  
HETATM   11  C   UNL     1     -12.149  13.172  64.960  1.00  0.00    -0.458 A  
HETATM   12  C   UNL     1     -11.616  11.883  65.057  1.00  0.00    -0.277 A  
HETATM   13  C   UNL     1     -11.281  11.351  66.302  1.00  0.00    -0.228 A  
HETATM   14  C   UNL     1     -11.535  12.095  67.449  1.00  0.00    -0.415 A  
ENDBRANCH   4   6
ENDBRANCH   3   4
ENDBRANCH   2   3
TORSDOF 3
ENDMDL
MODEL       27
REMARK 921   NORMALIZED FREE ENERGY PREDICTED BY IDOCK:   -4.27 KCAL/MOL
REMARK 922        TOTAL FREE ENERGY PREDICTED BY IDOCK:   -5.32 KCAL/MOL
REMARK 923 INTER-LIGAND FREE ENERGY PREDICTED BY IDOCK:   -4.91 KCAL/MOL
REMARK 924 INTRA-LIGAND FREE ENERGY PREDICTED BY IDOCK:   -0.40 KCAL/MOL
REMARK 927      BINDING AFFINITY PREDICTED BY RF-SCORE:    0.00 PKD
ROOT
HETATM    1  C   UNL     1     -10.552   6.118  68.252  1.00  0.00    -0.324 C  
HETATM    2  C   UNL     1     -11.038   6.240  69.346  1.00  0.00    -0.477 C  
ENDROOT
BRANCH   2   3
HETATM    3  C   UNL     1     -11.730   6.417  70.626  1.00  0.00    -0.311 C  
BRANCH   3   4
HETATM    4  N   UNL     1     -12.524   7.641  70.623  1.00  0.00    -0.521 NA 
HETATM    5  H   UNL     1     -13.472   7.463  70.954  1.00  0.00     0.000 HD 
BRANCH   4   6
HETATM    6  C   UNL     1     -11.895   8.726  71.387  1.00  0.00    -0.308 C  
HETATM    7  C   UNL     1     -12.950   9.395  72.307  1.00  0.00    -0.479 C  
HETATM    8  C   UNL     1     -13.285  10.792  71.762  1.00  0.00    -0.523 C  
HETATM    9  C   UNL     1     -12.257  11.004  70.702  1.00  0.00    -0.481 A  
HETATM   10  C   UNL     1     -12.089  12.137  69.920  1.00  0.00    -0.324 A  
HETATM   11  C   UNL     1     -11.072  12.146  68.962  1.00  0.00    -0.290 A  
HETATM   12  C   UNL     1     -10.215  11.049  68.832  1.00  0.00    -0.218 A  
HETATM   13  C   UNL     1     -10.380   9.925  69.641  1.00  0.00    -0.265 A  
HETATM   14  C   UNL     1     -11.441   9.885  70.538  1.00  0.00    -0.391 A  
ENDBRANCH   4   6
ENDBRANCH   3   4
ENDBRANCH   2   3
TORSDOF 3
ENDMDL
MODEL       28
REMARK 921   NORMALIZED FREE ENERGY PREDICTED BY IDOCK:   -4.27 KCAL/MOL
REMARK 922        TOTAL FREE ENERGY PREDICTED BY IDOCK:   -5.31 KCAL/MOL
REMARK 923 INTER-LIGAND FREE ENERGY PREDICTED BY IDOCK:   -4.98 KCAL/MOL
REMARK 924 INTRA-LIGAND FREE ENERGY PREDICTED BY IDOCK:   -0.32 KCAL/MOL
REMARK 927      BINDING AFFINITY PREDICTED BY RF-SCORE:    0.00 PKD
ROOT
HETATM    1  C   UNL     1     -12.645  11.249  71.152  1.00  0.00    -0.501 C  
HETATM    2  C   UNL     1     -12.201  12.094  70.419  1.00  0.00    -0.378 C  
ENDROOT
BRANCH   2   3
HETATM    3  C   UNL     1     -11.756  13.108  69.459  1.00  0.00    -0.319 C  
BRANCH   3   4
HETATM    4  N   UNL     1     -10.852  12.529  68.470  1.00  0.00    -0.235 NA 
HETATM    5  H   UNL     1     -10.034  12.119  68.920  1.00  0.00     0.000 HD 
BRANCH   4   6
HETATM    6  C   UNL     1     -11.517  11.555  67.596  1.00  0.00    -0.285 C  
HETATM    7  C   UNL     1     -10.697  10.238  67.565  1.00  0.00    -0.348 C  
HETATM    8  C   UNL     1     -10.020  10.094  66.193  1.00  0.00    -0.310 C  
HETATM    9  C   UNL     1     -10.647  11.179  65.385  1.00  0.00    -0.291 A  
HETATM   10  C   UNL     1     -10.414  11.462  64.048  1.00  0.00    -0.435 A  
HETATM   11  C   UNL     1     -11.089  12.534  63.460  1.00  0.00    -0.497 A  
HETATM   12  C   UNL     1     -12.018  13.274  64.199  1.00  0.00    -0.505 A  
HETATM   13  C   UNL     1     -12.261  12.965  65.537  1.00  0.00    -0.527 A  
HETATM   14  C   UNL     1     -11.530  11.949  66.143  1.00  0.00    -0.352 A  
ENDBRANCH   4   6
ENDBRANCH   3   4
ENDBRANCH   2   3
TORSDOF 3
ENDMDL
MODEL       29
REMARK 921   NORMALIZED FREE ENERGY PREDICTED BY IDOCK:   -4.24 KCAL/MOL
REMARK 922        TOTAL FREE ENERGY PREDICTED BY IDOCK:   -5.28 KCAL/MOL
REMARK 923 INTER-LIGAND FREE ENERGY PREDICTED BY IDOCK:   -5.06 KCAL/MOL
REMARK 924 INTRA-LIGAND FREE ENERGY PREDICTED BY IDOCK:   -0.22 KCAL/MOL
REMARK 927      BINDING AFFINITY PREDICTED BY RF-SCORE:    0.00 PKD
ROOT
HETATM    1  C   UNL     1     -10.774  19.388  67.018  1.00  0.00    -0.582 C  
HETATM    2  C   UNL     1     -10.577  18.533  67.841  1.00  0.00    -0.385 C  
ENDROOT
BRANCH   2   3
HETATM    3  C   UNL     1     -10.406  17.552  68.917  1.00  0.00    -0.338 C  
BRANCH   3   4
HETATM    4  N   UNL     1     -10.470  16.191  68.395  1.00  0.00    -0.261 NA 
HETATM    5  H   UNL     1      -9.729  15.613  68.791  1.00  0.00     0.000 HD 
BRANCH   4   6
HETATM    6  C   UNL     1     -11.785  15.569  68.592  1.00  0.00    -0.348 C  
HETATM    7  C   UNL     1     -12.210  15.706  70.078  1.00  0.00    -0.351 C  
HETATM    8  C   UNL     1     -12.133  14.330  70.756  1.00  0.00    -0.418 C  
HETATM    9  C   UNL     1     -11.913  13.395  69.615  1.00  0.00    -0.386 A  
HETATM   10  C   UNL     1     -11.812  12.014  69.678  1.00  0.00    -0.401 A  
HETATM   11  C   UNL     1     -11.590  11.303  68.496  1.00  0.00    -0.384 A  
HETATM   12  C   UNL     1     -11.521  11.973  67.271  1.00  0.00    -0.403 A  
HETATM   13  C   UNL     1     -11.648  13.361  67.218  1.00  0.00    -0.400 A  
HETATM   14  C   UNL     1     -11.788  14.075  68.403  1.00  0.00    -0.397 A  
ENDBRANCH   4   6
ENDBRANCH   3   4
ENDBRANCH   2   3
TORSDOF 3
ENDMDL
MODEL       30
REMARK 921   NORMALIZED FREE ENERGY PREDICTED BY IDOCK:   -4.23 KCAL/MOL
REMARK 922        TOTAL FREE ENERGY PREDICTED BY IDOCK:   -5.27 KCAL/MOL
REMARK 923 INTER-LIGAND FREE ENERGY PREDICTED BY IDOCK:   -4.84 KCAL/MOL
REMARK 924 INTRA-LIGAND FREE ENERGY PREDICTED BY IDOCK:   -0.43 KCAL/MOL
REMARK 927      BINDING AFFINITY PREDICTED BY RF-SCORE:    0.00 PKD
ROOT
HETATM    1  C   UNL     1     -11.108  15.796  64.754  1.00  0.00    -0.413 C  
HETATM    2  C   UNL     1     -11.536  14.672  64.745  1.00  0.00    -0.418 C  
ENDROOT
BRANCH   2   3
HETATM    3  C   UNL     1     -11.979  13.278  64.650  1.00  0.00    -0.394 C  
BRANCH   3   4
HETATM    4  N   UNL     1     -12.456  12.794  65.942  1.00  0.00    -0.534 NA 
HETATM    5  H   UNL     1     -12.894  11.878  65.849  1.00  0.00     0.000 HD 
BRANCH   4   6
HETATM    6  C   UNL     1     -11.402  12.773  66.964  1.00  0.00    -0.314 C  
HETATM    7  C   UNL     1     -11.219  11.327  67.494  1.00  0.00    -0.357 C  
HETATM    8  C   UNL     1     -11.767  11.239  68.927  1.00  0.00    -0.409 C  
HETATM    9  C   UNL     1     -12.023  12.663  69.286  1.00  0.00    -0.301 A  
HETATM   10  C   UNL     1     -12.490  13.146  70.499  1.00  0.00    -0.322 A  
HETATM   11  C   UNL     1     -12.683  14.521  70.645  1.00  0.00    -0.421 A  
HETATM   12  C   UNL     1     -12.363  15.394  69.601  1.00  0.00    -0.250 A  
HETATM   13  C   UNL     1     -11.872  14.899  68.393  1.00  0.00    -0.309 A  
HETATM   14  C   UNL     1     -11.757  13.524  68.221  1.00  0.00    -0.394 A  
ENDBRANCH   4   6
ENDBRANCH   3   4
ENDBRANCH   2   3
TORSDOF 3
ENDMDL
MODEL       31
REMARK 921   NORMALIZED FREE ENERGY PREDICTED BY IDOCK:   -4.22 KCAL/MOL
REMARK 922        TOTAL FREE ENERGY PREDICTED BY IDOCK:   -5.25 KCAL/MOL
REMARK 923 INTER-LIGAND FREE ENERGY PREDICTED BY IDOCK:   -4.90 KCAL/MOL
REMARK 924 INTRA-LIGAND FREE ENERGY PREDICTED BY IDOCK:   -0.35 KCAL/MOL
REMARK 927      BINDING AFFINITY PREDICTED BY RF-SCORE:    0.00 PKD
ROOT
HETATM    1  C   UNL     1      -9.365   8.702  71.894  1.00  0.00    -0.357 C  
HETATM    2  C   UNL     1      -9.506   9.142  70.783  1.00  0.00    -0.334 C  
ENDROOT
BRANCH   2   3
HETATM    3  C   UNL     1      -9.568   9.645  69.408  1.00  0.00    -0.191 C  
BRANCH   3   4
HETATM    4  N   UNL     1      -9.619  11.103  69.388  1.00  0.00    -0.408 NA 
HETATM    5  H   UNL     1      -8.856  11.487  68.830  1.00  0.00     0.000 HD 
BRANCH   4   6
HETATM    6  C   UNL     1     -10.916  11.620  68.934  1.00  0.00    -0.233 C  
HETATM    7  C   UNL     1     -10.714  12.987  68.229  1.00  0.00    -0.261 C  
HETATM    8  C   UNL     1     -11.268  14.106  69.125  1.00  0.00    -0.307 C  
HETATM    9  C   UNL     1     -11.991  13.362  70.197  1.00  0.00    -0.396 A  
HETATM   10  C   UNL     1     -12.710  13.908  71.249  1.00  0.00    -0.444 A  
HETATM   11  C   UNL     1     -13.312  13.047  72.170  1.00  0.00    -0.622 A  
HETATM   12  C   UNL     1     -13.226  11.661  72.001  1.00  0.00    -0.443 A  
HETATM   13  C   UNL     1     -12.519  11.124  70.925  1.00  0.00    -0.509 A  
HETATM   14  C   UNL     1     -11.854  11.981  70.055  1.00  0.00    -0.392 A  
ENDBRANCH   4   6
ENDBRANCH   3   4
ENDBRANCH   2   3
TORSDOF 3
ENDMDL
MODEL       32
REMARK 921   NORMALIZED FREE ENERGY PREDICTED BY IDOCK:   -4.21 KCAL/MOL
REMARK 922        TOTAL FREE ENERGY PREDICTED BY IDOCK:   -5.24 KCAL/MOL
REMARK 923 INTER-LIGAND FREE ENERGY PREDICTED BY IDOCK:   -4.92 KCAL/MOL
REMARK 924 INTRA-LIGAND FREE ENERGY PREDICTED BY IDOCK:   -0.32 KCAL/MOL
REMARK 927      BINDING AFFINITY PREDICTED BY RF-SCORE:    0.00 PKD
ROOT
HETATM    1  C   UNL     1     -12.492  13.602  70.703  1.00  0.00    -0.417 C  
HETATM    2  C   UNL     1     -12.066  12.636  70.127  1.00  0.00    -0.368 C  
ENDROOT
BRANCH   2   3
HETATM    3  C   UNL     1     -11.574  11.397  69.519  1.00  0.00    -0.331 C  
BRANCH   3   4
HETATM    4  N   UNL     1     -12.140  11.208  68.188  1.00  0.00    -0.737 NA 
HETATM    5  H   UNL     1     -12.854  11.909  67.992  1.00  0.00     0.000 HD 
BRANCH   4   6
HETATM    6  C   UNL     1     -11.117  11.189  67.134  1.00  0.00    -0.287 C  
HETATM    7  C   UNL     1      -9.713  11.369  67.767  1.00  0.00    -0.184 C  
HETATM    8  C   UNL     1      -9.175  12.766  67.419  1.00  0.00    -0.193 C  
HETATM    9  C   UNL     1     -10.146  13.265  66.404  1.00  0.00    -0.290 A  
HETATM   10  C   UNL     1     -10.097  14.475  65.729  1.00  0.00    -0.365 A  
HETATM   11  C   UNL     1     -11.111  14.777  64.817  1.00  0.00    -0.393 A  
HETATM   12  C   UNL     1     -12.128  13.853  64.560  1.00  0.00    -0.473 A  
HETATM   13  C   UNL     1     -12.154  12.629  65.228  1.00  0.00    -0.519 A  
HETATM   14  C   UNL     1     -11.189  12.362  66.193  1.00  0.00    -0.364 A  
ENDBRANCH   4   6
ENDBRANCH   3   4
ENDBRANCH   2   3
TORSDOF 3
ENDMDL
MODEL       33
REMARK 921   NORMALIZED FREE ENERGY PREDICTED BY IDOCK:   -4.21 KCAL/MOL
REMARK 922        TOTAL FREE ENERGY PREDICTED BY IDOCK:   -5.24 KCAL/MOL
REMARK 923 INTER-LIGAND FREE ENERGY PREDICTED BY IDOCK:   -4.92 KCAL/MOL
REMARK 924 INTRA-LIGAND FREE ENERGY PREDICTED BY IDOCK:   -0.32 KCAL/MOL
REMARK 927      BINDING AFFINITY PREDICTED BY RF-SCORE:    0.00 PKD
ROOT
HETATM    1  C   UNL     1      -9.688   4.628  70.773  1.00  0.00    -0.269 C  
HETATM    2  C   UNL     1     -10.405   5.263  70.046  1.00  0.00    -0.365 C  
ENDROOT
BRANCH   2   3
HETATM    3  C   UNL     1     -11.237   6.133  69.210  1.00  0.00    -0.367 C  
BRANCH   3   4
HETATM    4  N   UNL     1     -12.160   6.913  70.027  1.00  0.00    -0.637 NA 
HETATM    5  H   UNL     1     -12.826   6.306  70.505  1.00  0.00     0.000 HD 
BRANCH   4   6
HETATM    6  C   UNL     1     -11.471   7.793  70.979  1.00  0.00    -0.281 C  
HETATM    7  C   UNL     1     -12.255   7.828  72.318  1.00  0.00    -0.298 C  
HETATM    8  C   UNL     1     -12.931   9.199  72.474  1.00  0.00    -0.416 C  
HETATM    9  C   UNL     1     -12.335  10.004  71.369  1.00  0.00    -0.512 A  
HETATM   10  C   UNL     1     -12.579  11.339  71.087  1.00  0.00    -0.501 A  
HETATM   11  C   UNL     1     -11.934  11.923  69.994  1.00  0.00    -0.409 A  
HETATM   12  C   UNL     1     -11.024  11.183  69.233  1.00  0.00    -0.300 A  
HETATM   13  C   UNL     1     -10.770   9.847  69.541  1.00  0.00    -0.265 A  
HETATM   14  C   UNL     1     -11.472   9.244  70.578  1.00  0.00    -0.296 A  
ENDBRANCH   4   6
ENDBRANCH   3   4
ENDBRANCH   2   3
TORSDOF 3
ENDMDL
MODEL       34
REMARK 921   NORMALIZED FREE ENERGY PREDICTED BY IDOCK:   -4.18 KCAL/MOL
REMARK 922        TOTAL FREE ENERGY PREDICTED BY IDOCK:   -5.21 KCAL/MOL
REMARK 923 INTER-LIGAND FREE ENERGY PREDICTED BY IDOCK:   -4.77 KCAL/MOL
REMARK 924 INTRA-LIGAND FREE ENERGY PREDICTED BY IDOCK:   -0.44 KCAL/MOL
REMARK 927      BINDING AFFINITY PREDICTED BY RF-SCORE:    0.00 PKD
ROOT
HETATM    1  C   UNL     1     -12.942  10.579  71.703  1.00  0.00    -0.581 C  
HETATM    2  C   UNL     1     -12.036  10.367  70.940  1.00  0.00    -0.478 C  
ENDROOT
BRANCH   2   3
HETATM    3  C   UNL     1     -10.870  10.073  70.103  1.00  0.00    -0.311 C  
BRANCH   3   4
HETATM    4  N   UNL     1     -10.466  11.250  69.340  1.00  0.00    -0.425 NA 
HETATM    5  H   UNL     1      -9.637  11.055  68.780  1.00  0.00     0.000 HD 
BRANCH   4   6
HETATM    6  C   UNL     1     -11.550  11.786  68.508  1.00  0.00    -0.321 C  
HETATM    7  C   UNL     1     -11.168  11.660  67.009  1.00  0.00    -0.376 C  
HETATM    8  C   UNL     1     -10.864  13.056  66.444  1.00  0.00    -0.294 C  
HETATM    9  C   UNL     1     -11.310  13.972  67.534  1.00  0.00    -0.343 A  
HETATM   10  C   UNL     1     -11.291  15.358  67.515  1.00  0.00    -0.269 A  
HETATM   11  C   UNL     1     -11.739  16.051  68.643  1.00  0.00    -0.273 A  
HETATM   12  C   UNL     1     -12.239  15.354  69.747  1.00  0.00    -0.336 A  
HETATM   13  C   UNL     1     -12.274  13.960  69.744  1.00  0.00    -0.388 A  
HETATM   14  C   UNL     1     -11.755  13.271  68.655  1.00  0.00    -0.376 A  
ENDBRANCH   4   6
ENDBRANCH   3   4
ENDBRANCH   2   3
TORSDOF 3
ENDMDL
MODEL       35
REMARK 921   NORMALIZED FREE ENERGY PREDICTED BY IDOCK:   -4.18 KCAL/MOL
REMARK 922        TOTAL FREE ENERGY PREDICTED BY IDOCK:   -5.21 KCAL/MOL
REMARK 923 INTER-LIGAND FREE ENERGY PREDICTED BY IDOCK:   -4.90 KCAL/MOL
REMARK 924 INTRA-LIGAND FREE ENERGY PREDICTED BY IDOCK:   -0.31 KCAL/MOL
REMARK 927      BINDING AFFINITY PREDICTED BY RF-SCORE:    0.00 PKD
ROOT
HETATM    1  C   UNL     1      -8.252   8.060  73.791  1.00  0.00    -0.297 C  
HETATM    2  C   UNL     1      -9.335   7.605  73.531  1.00  0.00    -0.339 C  
ENDROOT
BRANCH   2   3
HETATM    3  C   UNL     1     -10.615   6.947  73.252  1.00  0.00    -0.325 C  
BRANCH   3   4
HETATM    4  N   UNL     1     -11.714   7.905  73.300  1.00  0.00    -0.543 NA 
HETATM    5  H   UNL     1     -11.396   8.809  73.649  1.00  0.00     0.000 HD 
BRANCH   4   6
HETATM    6  C   UNL     1     -12.397   8.050  72.008  1.00  0.00    -0.326 C  
HETATM    7  C   UNL     1     -11.608   7.286  70.913  1.00  0.00    -0.331 C  
HETATM    8  C   UNL     1     -10.928   8.298  69.978  1.00  0.00    -0.197 C  
HETATM    9  C   UNL     1     -11.526   9.601  70.389  1.00  0.00    -0.325 A  
HETATM   10  C   UNL     1     -11.279  10.844  69.827  1.00  0.00    -0.351 A  
HETATM   11  C   UNL     1     -11.927  11.962  70.358  1.00  0.00    -0.400 A  
HETATM   12  C   UNL     1     -12.841  11.816  71.405  1.00  0.00    -0.440 A  
HETATM   13  C   UNL     1     -13.099  10.557  71.947  1.00  0.00    -0.567 A  
HETATM   14  C   UNL     1     -12.394   9.457  71.471  1.00  0.00    -0.452 A  
ENDBRANCH   4   6
ENDBRANCH   3   4
ENDBRANCH   2   3
TORSDOF 3
ENDMDL
MODEL       36
REMARK 921   NORMALIZED FREE ENERGY PREDICTED BY IDOCK:   -4.17 KCAL/MOL
REMARK 922        TOTAL FREE ENERGY PREDICTED BY IDOCK:   -5.19 KCAL/MOL
REMARK 923 INTER-LIGAND FREE ENERGY PREDICTED BY IDOCK:   -4.88 KCAL/MOL
REMARK 924 INTRA-LIGAND FREE ENERGY PREDICTED BY IDOCK:   -0.32 KCAL/MOL
REMARK 927      BINDING AFFINITY PREDICTED BY RF-SCORE:    0.00 PKD
ROOT
HETATM    1  C   UNL     1     -11.048   5.359  73.062  1.00  0.00    -0.368 C  
HETATM    2  C   UNL     1     -11.344   5.765  71.969  1.00  0.00    -0.289 C  
ENDROOT
BRANCH   2   3
HETATM    3  C   UNL     1     -11.653   6.363  70.667  1.00  0.00    -0.347 C  
BRANCH   3   4
HETATM    4  N   UNL     1     -12.566   7.491  70.815  1.00  0.00    -0.554 NA 
HETATM    5  H   UNL     1     -13.456   7.190  71.213  1.00  0.00     0.000 HD 
BRANCH   4   6
HETATM    6  C   UNL     1     -11.986   8.593  71.593  1.00  0.00    -0.326 C  
HETATM    7  C   UNL     1     -13.101   9.296  72.412  1.00  0.00    -0.481 C  
HETATM    8  C   UNL     1     -13.380  10.679  71.804  1.00  0.00    -0.437 C  
HETATM    9  C   UNL     1     -12.273  10.852  70.820  1.00  0.00    -0.483 A  
HETATM   10  C   UNL     1     -12.035  11.961  70.021  1.00  0.00    -0.409 A  
HETATM   11  C   UNL     1     -10.950  11.934  69.143  1.00  0.00    -0.251 A  
HETATM   12  C   UNL     1     -10.095  10.828  69.109  1.00  0.00    -0.224 A  
HETATM   13  C   UNL     1     -10.332   9.729  69.934  1.00  0.00    -0.291 A  
HETATM   14  C   UNL     1     -11.458   9.723  70.749  1.00  0.00    -0.417 A  
ENDBRANCH   4   6
ENDBRANCH   3   4
ENDBRANCH   2   3
TORSDOF 3
ENDMDL
MODEL       37
REMARK 921   NORMALIZED FREE ENERGY PREDICTED BY IDOCK:   -4.16 KCAL/MOL
REMARK 922        TOTAL FREE ENERGY PREDICTED BY IDOCK:   -5.18 KCAL/MOL
REMARK 923 INTER-LIGAND FREE ENERGY PREDICTED BY IDOCK:   -4.92 KCAL/MOL
REMARK 924 INTRA-LIGAND FREE ENERGY PREDICTED BY IDOCK:   -0.26 KCAL/MOL
REMARK 927      BINDING AFFINITY PREDICTED BY RF-SCORE:    0.00 PKD
ROOT
HETATM    1  C   UNL     1     -10.526  19.643  66.464  1.00  0.00    -0.612 C  
HETATM    2  C   UNL     1      -9.790  18.692  66.499  1.00  0.00    -0.388 C  
ENDROOT
BRANCH   2   3
HETATM    3  C   UNL     1      -8.806  17.607  66.519  1.00  0.00    -0.263 C  
BRANCH   3   4
HETATM    4  N   UNL     1      -9.364  16.385  65.949  1.00  0.00    -0.471 NA 
HETATM    5  H   UNL     1      -8.704  15.612  66.023  1.00  0.00     0.000 HD 
BRANCH   4   6
HETATM    6  C   UNL     1     -10.662  16.027  66.535  1.00  0.00    -0.238 C  
HETATM    7  C   UNL     1     -10.452  15.477  67.970  1.00  0.00    -0.259 C  
HETATM    8  C   UNL     1     -10.717  13.964  67.976  1.00  0.00    -0.255 C  
HETATM    9  C   UNL     1     -11.307  13.712  66.630  1.00  0.00    -0.343 A  
HETATM   10  C   UNL     1     -11.765  12.500  66.135  1.00  0.00    -0.466 A  
HETATM   11  C   UNL     1     -12.276  12.455  64.836  1.00  0.00    -0.485 A  
HETATM   12  C   UNL     1     -12.365  13.623  64.072  1.00  0.00    -0.382 A  
HETATM   13  C   UNL     1     -11.923  14.840  64.590  1.00  0.00    -0.448 A  
HETATM   14  C   UNL     1     -11.341  14.869  65.852  1.00  0.00    -0.306 A  
ENDBRANCH   4   6
ENDBRANCH   3   4
ENDBRANCH   2   3
TORSDOF 3
ENDMDL
MODEL       38
REMARK 921   NORMALIZED FREE ENERGY PREDICTED BY IDOCK:   -4.15 KCAL/MOL
REMARK 922        TOTAL FREE ENERGY PREDICTED BY IDOCK:   -5.16 KCAL/MOL
REMARK 923 INTER-LIGAND FREE ENERGY PREDICTED BY IDOCK:   -4.96 KCAL/MOL
REMARK 924 INTRA-LIGAND FREE ENERGY PREDICTED BY IDOCK:   -0.21 KCAL/MOL
REMARK 927      BINDING AFFINITY PREDICTED BY RF-SCORE:    0.00 PKD
ROOT
HETATM    1  C   UNL     1      -9.546  10.601  64.680  1.00  0.00    -0.334 C  
HETATM    2  C   UNL     1     -10.490  11.340  64.782  1.00  0.00    -0.384 C  
ENDROOT
BRANCH   2   3
HETATM    3  C   UNL     1     -11.657  12.226  64.791  1.00  0.00    -0.337 C  
BRANCH   3   4
HETATM    4  N   UNL     1     -12.268  12.268  66.116  1.00  0.00    -0.585 NA 
HETATM    5  H   UNL     1     -12.892  11.473  66.255  1.00  0.00     0.000 HD 
BRANCH   4   6
HETATM    6  C   UNL     1     -11.278  12.357  67.196  1.00  0.00    -0.298 C  
HETATM    7  C   UNL     1     -11.416  11.128  68.132  1.00  0.00    -0.373 C  
HETATM    8  C   UNL     1     -12.019  11.577  69.472  1.00  0.00    -0.402 C  
HETATM    9  C   UNL     1     -11.988  13.065  69.383  1.00  0.00    -0.338 A  
HETATM   10  C   UNL     1     -12.387  13.966  70.358  1.00  0.00    -0.433 A  
HETATM   11  C   UNL     1     -12.297  15.333  70.086  1.00  0.00    -0.392 A  
HETATM   12  C   UNL     1     -11.768  15.778  68.870  1.00  0.00    -0.404 A  
HETATM   13  C   UNL     1     -11.348  14.861  67.906  1.00  0.00    -0.340 A  
HETATM   14  C   UNL     1     -11.513  13.502  68.146  1.00  0.00    -0.338 A  
ENDBRANCH   4   6
ENDBRANCH   3   4
ENDBRANCH   2   3
TORSDOF 3
ENDMDL
MODEL       39
REMARK 921   NORMALIZED FREE ENERGY PREDICTED BY IDOCK:   -4.14 KCAL/MOL
REMARK 922        TOTAL FREE ENERGY PREDICTED BY IDOCK:   -5.15 KCAL/MOL
REMARK 923 INTER-LIGAND FREE ENERGY PREDICTED BY IDOCK:   -4.73 KCAL/MOL
REMARK 924 INTRA-LIGAND FREE ENERGY PREDICTED BY IDOCK:   -0.42 KCAL/MOL
REMARK 927      BINDING AFFINITY PREDICTED BY RF-SCORE:    0.00 PKD
ROOT
HETATM    1  C   UNL     1     -13.050  10.870  71.778  1.00  0.00    -0.564 C  
HETATM    2  C   UNL     1     -12.533  11.258  70.763  1.00  0.00    -0.471 C  
ENDROOT
BRANCH   2   3
HETATM    3  C   UNL     1     -11.927  11.624  69.481  1.00  0.00    -0.317 C  
BRANCH   3   4
HETATM    4  N   UNL     1     -11.932  10.493  68.559  1.00  0.00    -0.786 NA 
HETATM    5  H   UNL     1     -12.247  10.778  67.632  1.00  0.00     0.000 HD 
BRANCH   4   6
HETATM    6  C   UNL     1     -10.633   9.812  68.488  1.00  0.00    -0.221 C  
HETATM    7  C   UNL     1     -10.272   9.531  67.006  1.00  0.00    -0.321 C  
HETATM    8  C   UNL     1     -10.392   8.023  66.733  1.00  0.00    -0.360 C  
HETATM    9  C   UNL     1     -10.572   7.440  68.093  1.00  0.00    -0.216 A  
HETATM   10  C   UNL     1     -10.690   6.096  68.414  1.00  0.00    -0.361 A  
HETATM   11  C   UNL     1     -10.868   5.739  69.752  1.00  0.00    -0.419 A  
HETATM   12  C   UNL     1     -10.878   6.718  70.750  1.00  0.00    -0.291 A  
HETATM   13  C   UNL     1     -10.734   8.065  70.417  1.00  0.00    -0.233 A  
HETATM   14  C   UNL     1     -10.638   8.426  69.078  1.00  0.00    -0.172 A  
ENDBRANCH   4   6
ENDBRANCH   3   4
ENDBRANCH   2   3
TORSDOF 3
ENDMDL
MODEL       40
REMARK 921   NORMALIZED FREE ENERGY PREDICTED BY IDOCK:   -4.13 KCAL/MOL
REMARK 922        TOTAL FREE ENERGY PREDICTED BY IDOCK:   -5.14 KCAL/MOL
REMARK 923 INTER-LIGAND FREE ENERGY PREDICTED BY IDOCK:   -4.79 KCAL/MOL
REMARK 924 INTRA-LIGAND FREE ENERGY PREDICTED BY IDOCK:   -0.35 KCAL/MOL
REMARK 927      BINDING AFFINITY PREDICTED BY RF-SCORE:    0.00 PKD
ROOT
HETATM    1  C   UNL     1      -8.935  15.977  66.731  1.00  0.00    -0.275 C  
HETATM    2  C   UNL     1      -9.840  15.514  67.374  1.00  0.00    -0.224 C  
ENDROOT
BRANCH   2   3
HETATM    3  C   UNL     1     -10.872  14.957  68.252  1.00  0.00    -0.257 C  
BRANCH   3   4
HETATM    4  N   UNL     1     -12.062  14.591  67.491  1.00  0.00    -0.591 NA 
HETATM    5  H   UNL     1     -12.085  15.075  66.594  1.00  0.00     0.000 HD 
BRANCH   4   6
HETATM    6  C   UNL     1     -12.195  13.140  67.309  1.00  0.00    -0.177 C  
HETATM    7  C   UNL     1     -11.121  12.408  68.156  1.00  0.00    -0.288 C  
HETATM    8  C   UNL     1     -10.056  11.814  67.221  1.00  0.00    -0.211 C  
HETATM    9  C   UNL     1     -10.651  11.992  65.865  1.00  0.00    -0.302 A  
HETATM   10  C   UNL     1     -10.107  11.584  64.656  1.00  0.00    -0.318 A  
HETATM   11  C   UNL     1     -10.809  11.853  63.479  1.00  0.00    -0.502 A  
HETATM   12  C   UNL     1     -12.059  12.478  63.529  1.00  0.00    -0.653 A  
HETATM   13  C   UNL     1     -12.606  12.862  64.753  1.00  0.00    -0.493 A  
HETATM   14  C   UNL     1     -11.871  12.667  65.916  1.00  0.00    -0.499 A  
ENDBRANCH   4   6
ENDBRANCH   3   4
ENDBRANCH   2   3
TORSDOF 3
ENDMDL
MODEL       41
REMARK 921   NORMALIZED FREE ENERGY PREDICTED BY IDOCK:   -4.11 KCAL/MOL
REMARK 922        TOTAL FREE ENERGY PREDICTED BY IDOCK:   -5.12 KCAL/MOL
REMARK 923 INTER-LIGAND FREE ENERGY PREDICTED BY IDOCK:   -4.91 KCAL/MOL
REMARK 924 INTRA-LIGAND FREE ENERGY PREDICTED BY IDOCK:   -0.21 KCAL/MOL
REMARK 927      BINDING AFFINITY PREDICTED BY RF-SCORE:    0.00 PKD
ROOT
HETATM    1  C   UNL     1     -12.346  12.016  63.462  1.00  0.00    -0.661 C  
HETATM    2  C   UNL     1     -12.464  12.835  64.336  1.00  0.00    -0.476 C  
ENDROOT
BRANCH   2   3
HETATM    3  C   UNL     1     -12.557  13.754  65.474  1.00  0.00    -0.512 C  
BRANCH   3   4
HETATM    4  N   UNL     1     -11.527  14.784  65.397  1.00  0.00    -0.347 NA 
HETATM    5  H   UNL     1     -11.939  15.701  65.230  1.00  0.00     0.000 HD 
BRANCH   4   6
HETATM    6  C   UNL     1     -10.656  14.805  66.580  1.00  0.00    -0.299 C  
HETATM    7  C   UNL     1     -11.504  14.558  67.855  1.00  0.00    -0.348 C  
HETATM    8  C   UNL     1     -11.605  15.864  68.658  1.00  0.00    -0.383 C  
HETATM    9  C   UNL     1     -10.626  16.762  67.979  1.00  0.00    -0.347 A  
HETATM   10  C   UNL     1     -10.299  18.060  68.338  1.00  0.00    -0.377 A  
HETATM   11  C   UNL     1      -9.363  18.754  67.568  1.00  0.00    -0.315 A  
HETATM   12  C   UNL     1      -8.737  18.130  66.485  1.00  0.00    -0.286 A  
HETATM   13  C   UNL     1      -9.059  16.815  66.147  1.00  0.00    -0.288 A  
HETATM   14  C   UNL     1     -10.048  16.153  66.865  1.00  0.00    -0.273 A  
ENDBRANCH   4   6
ENDBRANCH   3   4
ENDBRANCH   2   3
TORSDOF 3
ENDMDL
MODEL       42
REMARK 921   NORMALIZED FREE ENERGY PREDICTED BY IDOCK:   -4.09 KCAL/MOL
REMARK 922        TOTAL FREE ENERGY PREDICTED BY IDOCK:   -5.10 KCAL/MOL
REMARK 923 INTER-LIGAND FREE ENERGY PREDICTED BY IDOCK:   -4.73 KCAL/MOL
REMARK 924 INTRA-LIGAND FREE ENERGY PREDICTED BY IDOCK:   -0.38 KCAL/MOL
REMARK 927      BINDING AFFINITY PREDICTED BY RF-SCORE:    0.00 PKD
ROOT
HETATM    1  C   UNL     1     -10.142  10.424  65.983  1.00  0.00    -0.307 C  
HETATM    2  C   UNL     1     -10.414  11.327  65.237  1.00  0.00    -0.341 C  
ENDROOT
BRANCH   2   3
HETATM    3  C   UNL     1     -10.643  12.409  64.275  1.00  0.00    -0.363 C  
BRANCH   3   4
HETATM    4  N   UNL     1     -10.098  13.669  64.769  1.00  0.00    -0.621 NA 
HETATM    5  H   UNL     1      -9.475  14.092  64.082  1.00  0.00     0.000 HD 
BRANCH   4   6
HETATM    6  C   UNL     1     -11.142  14.614  65.185  1.00  0.00    -0.377 C  
HETATM    7  C   UNL     1     -10.693  16.063  64.860  1.00  0.00    -0.339 C  
HETATM    8  C   UNL     1     -10.360  16.797  66.169  1.00  0.00    -0.338 C  
HETATM    9  C   UNL     1     -10.851  15.862  67.221  1.00  0.00    -0.279 A  
HETATM   10  C   UNL     1     -10.827  16.065  68.593  1.00  0.00    -0.301 A  
HETATM   11  C   UNL     1     -11.323  15.062  69.429  1.00  0.00    -0.314 A  
HETATM   12  C   UNL     1     -11.875  13.899  68.886  1.00  0.00    -0.393 A  
HETATM   13  C   UNL     1     -11.914  13.715  67.504  1.00  0.00    -0.393 A  
HETATM   14  C   UNL     1     -11.348  14.678  66.676  1.00  0.00    -0.358 A  
ENDBRANCH   4   6
ENDBRANCH   3   4
ENDBRANCH   2   3
TORSDOF 3
ENDMDL
MODEL       43
REMARK 921   NORMALIZED FREE ENERGY PREDICTED BY IDOCK:   -4.08 KCAL/MOL
REMARK 922        TOTAL FREE ENERGY PREDICTED BY IDOCK:   -5.09 KCAL/MOL
REMARK 923 INTER-LIGAND FREE ENERGY PREDICTED BY IDOCK:   -4.67 KCAL/MOL
REMARK 924 INTRA-LIGAND FREE ENERGY PREDICTED BY IDOCK:   -0.42 KCAL/MOL
REMARK 927      BINDING AFFINITY PREDICTED BY RF-SCORE:    0.00 PKD
ROOT
HETATM    1  C   UNL     1     -10.113  14.169  67.046  1.00  0.00    -0.261 C  
HETATM    2  C   UNL     1     -10.417  15.025  66.257  1.00  0.00    -0.309 C  
ENDROOT
BRANCH   2   3
HETATM    3  C   UNL     1     -10.863  16.108  65.376  1.00  0.00    -0.307 C  
BRANCH   3   4
HETATM    4  N   UNL     1     -10.068  17.313  65.589  1.00  0.00    -0.591 NA 
HETATM    5  H   UNL     1     -10.233  17.994  64.849  1.00  0.00     0.000 HD 
BRANCH   4   6
HETATM    6  C   UNL     1     -10.284  17.909  66.913  1.00  0.00    -0.358 C  
HETATM    7  C   UNL     1     -10.769  19.374  66.751  1.00  0.00    -0.550 C  
HETATM    8  C   UNL     1      -9.644  20.330  67.176  1.00  0.00    -0.580 C  
HETATM    9  C   UNL     1      -8.638  19.423  67.800  1.00  0.00    -0.349 A  
HETATM   10  C   UNL     1      -7.437  19.790  68.388  1.00  0.00    -0.349 A  
HETATM   11  C   UNL     1      -6.613  18.791  68.911  1.00  0.00    -0.286 A  
HETATM   12  C   UNL     1      -7.019  17.453  68.881  1.00  0.00    -0.244 A  
HETATM   13  C   UNL     1      -8.240  17.099  68.307  1.00  0.00    -0.230 A  
HETATM   14  C   UNL     1      -9.022  18.084  67.716  1.00  0.00    -0.255 A  
ENDBRANCH   4   6
ENDBRANCH   3   4
ENDBRANCH   2   3
TORSDOF 3
ENDMDL
MODEL       44
REMARK 921   NORMALIZED FREE ENERGY PREDICTED BY IDOCK:   -4.07 KCAL/MOL
REMARK 922        TOTAL FREE ENERGY PREDICTED BY IDOCK:   -5.07 KCAL/MOL
REMARK 923 INTER-LIGAND FREE ENERGY PREDICTED BY IDOCK:   -4.89 KCAL/MOL
REMARK 924 INTRA-LIGAND FREE ENERGY PREDICTED BY IDOCK:   -0.18 KCAL/MOL
REMARK 927      BINDING AFFINITY PREDICTED BY RF-SCORE:    0.00 PKD
ROOT
HETATM    1  C   UNL     1     -11.579  14.383  67.480  1.00  0.00    -0.398 C  
HETATM    2  C   UNL     1     -11.321  15.396  68.076  1.00  0.00    -0.345 C  
ENDROOT
BRANCH   2   3
HETATM    3  C   UNL     1     -11.121  16.639  68.826  1.00  0.00    -0.270 C  
BRANCH   3   4
HETATM    4  N   UNL     1      -9.856  17.268  68.464  1.00  0.00    -0.291 NA 
HETATM    5  H   UNL     1      -9.591  17.032  67.508  1.00  0.00     0.000 HD 
BRANCH   4   6
HETATM    6  C   UNL     1      -9.868  18.723  68.663  1.00  0.00    -0.392 C  
HETATM    7  C   UNL     1     -10.721  19.394  67.555  1.00  0.00    -0.570 C  
HETATM    8  C   UNL     1      -9.794  20.146  66.587  1.00  0.00    -0.588 C  
HETATM    9  C   UNL     1      -8.473  20.108  67.277  1.00  0.00    -0.403 A  
HETATM   10  C   UNL     1      -7.289  20.685  66.842  1.00  0.00    -0.339 A  
HETATM   11  C   UNL     1      -6.141  20.531  67.621  1.00  0.00    -0.290 A  
HETATM   12  C   UNL     1      -6.200  19.848  68.839  1.00  0.00    -0.326 A  
HETATM   13  C   UNL     1      -7.402  19.292  69.278  1.00  0.00    -0.282 A  
HETATM   14  C   UNL     1      -8.525  19.377  68.464  1.00  0.00    -0.397 A  
ENDBRANCH   4   6
ENDBRANCH   3   4
ENDBRANCH   2   3
TORSDOF 3
ENDMDL
MODEL       45
REMARK 921   NORMALIZED FREE ENERGY PREDICTED BY IDOCK:   -4.04 KCAL/MOL
REMARK 922        TOTAL FREE ENERGY PREDICTED BY IDOCK:   -5.04 KCAL/MOL
REMARK 923 INTER-LIGAND FREE ENERGY PREDICTED BY IDOCK:   -4.85 KCAL/MOL
REMARK 924 INTRA-LIGAND FREE ENERGY PREDICTED BY IDOCK:   -0.19 KCAL/MOL
REMARK 927      BINDING AFFINITY PREDICTED BY RF-SCORE:    0.00 PKD
ROOT
HETATM    1  C   UNL     1     -10.822   3.261  73.719  1.00  0.00    -0.310 C  
HETATM    2  C   UNL     1     -10.746   4.386  73.300  1.00  0.00    -0.307 C  
ENDROOT
BRANCH   2   3
HETATM    3  C   UNL     1     -10.555   5.724  72.734  1.00  0.00    -0.226 C  
BRANCH   3   4
HETATM    4  N   UNL     1     -11.751   6.541  72.913  1.00  0.00    -0.482 NA 
HETATM    5  H   UNL     1     -11.551   7.360  73.486  1.00  0.00     0.000 HD 
BRANCH   4   6
HETATM    6  C   UNL     1     -12.370   6.927  71.639  1.00  0.00    -0.371 C  
HETATM    7  C   UNL     1     -11.427   6.553  70.466  1.00  0.00    -0.448 C  
HETATM    8  C   UNL     1     -10.830   7.836  69.866  1.00  0.00    -0.228 C  
HETATM    9  C   UNL     1     -11.614   8.920  70.524  1.00  0.00    -0.189 A  
HETATM   10  C   UNL     1     -11.499  10.284  70.302  1.00  0.00    -0.395 A  
HETATM   11  C   UNL     1     -12.315  11.154  71.028  1.00  0.00    -0.487 A  
HETATM   12  C   UNL     1     -13.262  10.651  71.924  1.00  0.00    -0.528 A  
HETATM   13  C   UNL     1     -13.385   9.276  72.122  1.00  0.00    -0.537 A  
HETATM   14  C   UNL     1     -12.518   8.415  71.459  1.00  0.00    -0.342 A  
ENDBRANCH   4   6
ENDBRANCH   3   4
ENDBRANCH   2   3
TORSDOF 3
ENDMDL
MODEL       46
REMARK 921   NORMALIZED FREE ENERGY PREDICTED BY IDOCK:   -4.03 KCAL/MOL
REMARK 922        TOTAL FREE ENERGY PREDICTED BY IDOCK:   -5.03 KCAL/MOL
REMARK 923 INTER-LIGAND FREE ENERGY PREDICTED BY IDOCK:   -4.63 KCAL/MOL
REMARK 924 INTRA-LIGAND FREE ENERGY PREDICTED BY IDOCK:   -0.40 KCAL/MOL
REMARK 927      BINDING AFFINITY PREDICTED BY RF-SCORE:    0.00 PKD
ROOT
HETATM    1  C   UNL     1     -11.252  11.987  63.365  1.00  0.00    -0.481 C  
HETATM    2  C   UNL     1     -11.665  12.969  63.923  1.00  0.00    -0.531 C  
ENDROOT
BRANCH   2   3
HETATM    3  C   UNL     1     -12.097  14.229  64.535  1.00  0.00    -0.480 C  
BRANCH   3   4
HETATM    4  N   UNL     1     -12.825  13.983  65.776  1.00  0.00    -0.504 NA 
HETATM    5  H   UNL     1     -13.199  13.034  65.798  1.00  0.00     0.000 HD 
BRANCH   4   6
HETATM    6  C   UNL     1     -12.018  14.258  66.971  1.00  0.00    -0.433 C  
HETATM    7  C   UNL     1     -10.831  15.184  66.597  1.00  0.00    -0.318 C  
HETATM    8  C   UNL     1      -9.524  14.378  66.645  1.00  0.00    -0.300 C  
HETATM    9  C   UNL     1      -9.936  13.091  67.276  1.00  0.00    -0.232 A  
HETATM   10  C   UNL     1      -9.118  12.017  67.589  1.00  0.00    -0.179 A  
HETATM   11  C   UNL     1      -9.690  10.882  68.168  1.00  0.00    -0.174 A  
HETATM   12  C   UNL     1     -11.056  10.855  68.468  1.00  0.00    -0.311 A  
HETATM   13  C   UNL     1     -11.865  11.952  68.170  1.00  0.00    -0.338 A  
HETATM   14  C   UNL     1     -11.309  13.048  67.521  1.00  0.00    -0.346 A  
ENDBRANCH   4   6
ENDBRANCH   3   4
ENDBRANCH   2   3
TORSDOF 3
ENDMDL
MODEL       47
REMARK 921   NORMALIZED FREE ENERGY PREDICTED BY IDOCK:   -4.03 KCAL/MOL
REMARK 922        TOTAL FREE ENERGY PREDICTED BY IDOCK:   -5.03 KCAL/MOL
REMARK 923 INTER-LIGAND FREE ENERGY PREDICTED BY IDOCK:   -4.64 KCAL/MOL
REMARK 924 INTRA-LIGAND FREE ENERGY PREDICTED BY IDOCK:   -0.39 KCAL/MOL
REMARK 927      BINDING AFFINITY PREDICTED BY RF-SCORE:    0.00 PKD
ROOT
HETATM    1  C   UNL     1      -9.783   8.940  66.102  1.00  0.00    -0.338 C  
HETATM    2  C   UNL     1      -9.982   9.940  65.463  1.00  0.00    -0.363 C  
ENDROOT
BRANCH   2   3
HETATM    3  C   UNL     1     -10.160  11.216  64.765  1.00  0.00    -0.295 C  
BRANCH   3   4
HETATM    4  N   UNL     1     -10.163  12.329  65.707  1.00  0.00    -0.250 NA 
HETATM    5  H   UNL     1      -9.696  13.145  65.311  1.00  0.00     0.000 HD 
BRANCH   4   6
HETATM    6  C   UNL     1     -11.512  12.671  66.177  1.00  0.00    -0.365 C  
HETATM    7  C   UNL     1     -11.703  14.210  66.139  1.00  0.00    -0.402 C  
HETATM    8  C   UNL     1     -11.724  14.754  67.576  1.00  0.00    -0.370 C  
HETATM    9  C   UNL     1     -11.795  13.520  68.410  1.00  0.00    -0.408 A  
HETATM   10  C   UNL     1     -11.878  13.453  69.793  1.00  0.00    -0.393 A  
HETATM   11  C   UNL     1     -11.922  12.197  70.403  1.00  0.00    -0.360 A  
HETATM   12  C   UNL     1     -11.931  11.035  69.626  1.00  0.00    -0.424 A  
HETATM   13  C   UNL     1     -11.871  11.116  68.235  1.00  0.00    -0.260 A  
HETATM   14  C   UNL     1     -11.746  12.362  67.633  1.00  0.00    -0.412 A  
ENDBRANCH   4   6
ENDBRANCH   3   4
ENDBRANCH   2   3
TORSDOF 3
ENDMDL
MODEL       48
REMARK 921   NORMALIZED FREE ENERGY PREDICTED BY IDOCK:   -4.03 KCAL/MOL
REMARK 922        TOTAL FREE ENERGY PREDICTED BY IDOCK:   -5.03 KCAL/MOL
REMARK 923 INTER-LIGAND FREE ENERGY PREDICTED BY IDOCK:   -4.59 KCAL/MOL
REMARK 924 INTRA-LIGAND FREE ENERGY PREDICTED BY IDOCK:   -0.44 KCAL/MOL
REMARK 927      BINDING AFFINITY PREDICTED BY RF-SCORE:    0.00 PKD
ROOT
HETATM    1  C   UNL     1     -12.361   6.876  71.254  1.00  0.00    -0.422 C  
HETATM    2  C   UNL     1     -12.808   7.942  71.588  1.00  0.00    -0.357 C  
ENDROOT
BRANCH   2   3
HETATM    3  C   UNL     1     -13.282   9.290  71.915  1.00  0.00    -0.423 C  
BRANCH   3   4
HETATM    4  N   UNL     1     -13.283  10.143  70.731  1.00  0.00    -0.558 NA 
HETATM    5  H   UNL     1     -14.057  10.807  70.760  1.00  0.00     0.000 HD 
BRANCH   4   6
HETATM    6  C   UNL     1     -12.004  10.834  70.529  1.00  0.00    -0.361 C  
HETATM    7  C   UNL     1     -12.249  12.361  70.411  1.00  0.00    -0.370 C  
HETATM    8  C   UNL     1     -12.021  12.801  68.956  1.00  0.00    -0.288 C  
HETATM    9  C   UNL     1     -11.418  11.593  68.322  1.00  0.00    -0.369 A  
HETATM   10  C   UNL     1     -10.982  11.471  67.012  1.00  0.00    -0.347 A  
HETATM   11  C   UNL     1     -10.453  10.248  66.592  1.00  0.00    -0.260 A  
HETATM   12  C   UNL     1     -10.324   9.188  67.493  1.00  0.00    -0.324 A  
HETATM   13  C   UNL     1     -10.744   9.331  68.816  1.00  0.00    -0.184 A  
HETATM   14  C   UNL     1     -11.344  10.521  69.211  1.00  0.00    -0.325 A  
ENDBRANCH   4   6
ENDBRANCH   3   4
ENDBRANCH   2   3
TORSDOF 3
ENDMDL
MODEL       49
REMARK 921   NORMALIZED FREE ENERGY PREDICTED BY IDOCK:   -4.02 KCAL/MOL
REMARK 922        TOTAL FREE ENERGY PREDICTED BY IDOCK:   -5.02 KCAL/MOL
REMARK 923 INTER-LIGAND FREE ENERGY PREDICTED BY IDOCK:   -4.74 KCAL/MOL
REMARK 924 INTRA-LIGAND FREE ENERGY PREDICTED BY IDOCK:   -0.29 KCAL/MOL
REMARK 927      BINDING AFFINITY PREDICTED BY RF-SCORE:    0.00 PKD
ROOT
HETATM    1  C   UNL     1     -11.408  15.405  64.573  1.00  0.00    -0.321 C  
HETATM    2  C   UNL     1     -11.820  14.275  64.542  1.00  0.00    -0.456 C  
ENDROOT
BRANCH   2   3
HETATM    3  C   UNL     1     -12.231  12.869  64.574  1.00  0.00    -0.426 C  
BRANCH   3   4
HETATM    4  N   UNL     1     -12.379  12.400  65.948  1.00  0.00    -0.577 NA 
HETATM    5  H   UNL     1     -12.868  11.506  65.978  1.00  0.00     0.000 HD 
BRANCH   4   6
HETATM    6  C   UNL     1     -11.099  12.326  66.663  1.00  0.00    -0.297 C  
HETATM    7  C   UNL     1     -10.173  11.293  65.968  1.00  0.00    -0.295 C  
HETATM    8  C   UNL     1     -10.047  10.046  66.856  1.00  0.00    -0.287 C  
HETATM    9  C   UNL     1     -10.685  10.469  68.136  1.00  0.00    -0.273 A  
HETATM   10  C   UNL     1     -10.800   9.719  69.296  1.00  0.00    -0.240 A  
HETATM   11  C   UNL     1     -11.447  10.283  70.398  1.00  0.00    -0.415 A  
HETATM   12  C   UNL     1     -11.925  11.596  70.341  1.00  0.00    -0.448 A  
HETATM   13  C   UNL     1     -11.782  12.349  69.176  1.00  0.00    -0.376 A  
HETATM   14  C   UNL     1     -11.210  11.759  68.054  1.00  0.00    -0.324 A  
ENDBRANCH   4   6
ENDBRANCH   3   4
ENDBRANCH   2   3
TORSDOF 3
ENDMDL
MODEL       50
REMARK 921   NORMALIZED FREE ENERGY PREDICTED BY IDOCK:   -4.02 KCAL/MOL
REMARK 922        TOTAL FREE ENERGY PREDICTED BY IDOCK:   -5.02 KCAL/MOL
REMARK 923 INTER-LIGAND FREE ENERGY PREDICTED BY IDOCK:   -4.80 KCAL/MOL
REMARK 924 INTRA-LIGAND FREE ENERGY PREDICTED BY IDOCK:   -0.22 KCAL/MOL
REMARK 927      BINDING AFFINITY PREDICTED BY RF-SCORE:    0.00 PKD
ROOT
HETATM    1  C   UNL     1     -12.786  10.507  71.511  1.00  0.00    -0.568 C  
HETATM    2  C   UNL     1     -12.613  11.656  71.199  1.00  0.00    -0.439 C  
ENDROOT
BRANCH   2   3
HETATM    3  C   UNL     1     -12.329  13.017  70.735  1.00  0.00    -0.310 C  
BRANCH   3   4
HETATM    4  N   UNL     1     -11.343  13.005  69.659  1.00  0.00    -0.477 NA 
HETATM    5  H   UNL     1     -10.905  12.088  69.575  1.00  0.00     0.000 HD 
BRANCH   4   6
HETATM    6  C   UNL     1     -11.902  13.442  68.373  1.00  0.00    -0.366 C  
HETATM    7  C   UNL     1     -11.652  12.351  67.299  1.00  0.00    -0.435 C  
HETATM    8  C   UNL     1     -10.584  12.846  66.312  1.00  0.00    -0.281 C  
HETATM    9  C   UNL     1     -10.419  14.283  66.676  1.00  0.00    -0.278 A  
HETATM   10  C   UNL     1      -9.593  15.209  66.058  1.00  0.00    -0.365 A  
HETATM   11  C   UNL     1      -9.561  16.515  66.551  1.00  0.00    -0.292 A  
HETATM   12  C   UNL     1     -10.384  16.887  67.618  1.00  0.00    -0.317 A  
HETATM   13  C   UNL     1     -11.229  15.952  68.217  1.00  0.00    -0.354 A  
HETATM   14  C   UNL     1     -11.200  14.634  67.777  1.00  0.00    -0.320 A  
ENDBRANCH   4   6
ENDBRANCH   3   4
ENDBRANCH   2   3
TORSDOF 3
ENDMDL
MODEL       51
REMARK 921   NORMALIZED FREE ENERGY PREDICTED BY IDOCK:   -4.02 KCAL/MOL
REMARK 922        TOTAL FREE ENERGY PREDICTED BY IDOCK:   -5.02 KCAL/MOL
REMARK 923 INTER-LIGAND FREE ENERGY PREDICTED BY IDOCK:   -4.67 KCAL/MOL
REMARK 924 INTRA-LIGAND FREE ENERGY PREDICTED BY IDOCK:   -0.34 KCAL/MOL
REMARK 927      BINDING AFFINITY PREDICTED BY RF-SCORE:    0.00 PKD
ROOT
HETATM    1  C   UNL     1      -9.680   8.236  66.441  1.00  0.00    -0.300 C  
HETATM    2  C   UNL     1      -9.178   8.892  65.567  1.00  0.00    -0.242 C  
ENDROOT
BRANCH   2   3
HETATM    3  C   UNL     1      -8.610   9.787  64.554  1.00  0.00    -0.184 C  
BRANCH   3   4
HETATM    4  N   UNL     1      -9.154  11.134  64.686  1.00  0.00    -0.362 NA 
HETATM    5  H   UNL     1      -8.889  11.715  63.891  1.00  0.00     0.000 HD 
BRANCH   4   6
HETATM    6  C   UNL     1     -10.610  11.142  64.881  1.00  0.00    -0.289 C  
HETATM    7  C   UNL     1     -11.297  11.799  63.655  1.00  0.00    -0.525 C  
HETATM    8  C   UNL     1     -11.846  13.176  64.059  1.00  0.00    -0.514 C  
HETATM    9  C   UNL     1     -11.693  13.185  65.543  1.00  0.00    -0.393 A  
HETATM   10  C   UNL     1     -12.078  14.193  66.413  1.00  0.00    -0.475 A  
HETATM   11  C   UNL     1     -11.840  14.028  67.780  1.00  0.00    -0.419 A  
HETATM   12  C   UNL     1     -11.266  12.847  68.258  1.00  0.00    -0.304 A  
HETATM   13  C   UNL     1     -10.905  11.830  67.375  1.00  0.00    -0.299 A  
HETATM   14  C   UNL     1     -11.069  12.028  66.009  1.00  0.00    -0.364 A  
ENDBRANCH   4   6
ENDBRANCH   3   4
ENDBRANCH   2   3
TORSDOF 3
ENDMDL
MODEL       52
REMARK 921   NORMALIZED FREE ENERGY PREDICTED BY IDOCK:   -3.99 KCAL/MOL
REMARK 922        TOTAL FREE ENERGY PREDICTED BY IDOCK:   -4.98 KCAL/MOL
REMARK 923 INTER-LIGAND FREE ENERGY PREDICTED BY IDOCK:   -4.56 KCAL/MOL
REMARK 924 INTRA-LIGAND FREE ENERGY PREDICTED BY IDOCK:   -0.41 KCAL/MOL
REMARK 927      BINDING AFFINITY PREDICTED BY RF-SCORE:    0.00 PKD
ROOT
HETATM    1  C   UNL     1     -12.861  10.884  71.527  1.00  0.00    -0.560 C  
HETATM    2  C   UNL     1     -13.015  12.069  71.668  1.00  0.00    -0.439 C  
ENDROOT
BRANCH   2   3
HETATM    3  C   UNL     1     -13.128  13.528  71.750  1.00  0.00    -0.387 C  
BRANCH   3   4
HETATM    4  N   UNL     1     -13.206  14.120  70.419  1.00  0.00    -0.290 NA 
HETATM    5  H   UNL     1     -13.740  14.988  70.436  1.00  0.00     0.000 HD 
BRANCH   4   6
HETATM    6  C   UNL     1     -11.886  14.325  69.810  1.00  0.00    -0.324 C  
HETATM    7  C   UNL     1     -11.755  15.794  69.330  1.00  0.00    -0.384 C  
HETATM    8  C   UNL     1     -11.795  15.831  67.794  1.00  0.00     0.163 C  
HETATM    9  C   UNL     1     -11.696  14.393  67.413  1.00  0.00    -0.424 A  
HETATM   10  C   UNL     1     -11.649  13.873  66.128  1.00  0.00    -0.371 A  
HETATM   11  C   UNL     1     -11.570  12.488  65.967  1.00  0.00    -0.456 A  
HETATM   12  C   UNL     1     -11.494  11.650  67.083  1.00  0.00    -0.344 A  
HETATM   13  C   UNL     1     -11.519  12.186  68.371  1.00  0.00    -0.356 A  
HETATM   14  C   UNL     1     -11.678  13.558  68.531  1.00  0.00    -0.392 A  
ENDBRANCH   4   6
ENDBRANCH   3   4
ENDBRANCH   2   3
TORSDOF 3
ENDMDL
MODEL       53
REMARK 921   NORMALIZED FREE ENERGY PREDICTED BY IDOCK:   -3.96 KCAL/MOL
REMARK 922        TOTAL FREE ENERGY PREDICTED BY IDOCK:   -4.95 KCAL/MOL
REMARK 923 INTER-LIGAND FREE ENERGY PREDICTED BY IDOCK:   -4.78 KCAL/MOL
REMARK 924 INTRA-LIGAND FREE ENERGY PREDICTED BY IDOCK:   -0.17 KCAL/MOL
REMARK 927      BINDING AFFINITY PREDICTED BY RF-SCORE:    0.00 PKD
ROOT
HETATM    1  C   UNL     1     -12.905  13.960  71.363  1.00  0.00    -0.439 C  
HETATM    2  C   UNL     1     -12.367  13.484  70.398  1.00  0.00    -0.397 C  
ENDROOT
BRANCH   2   3
HETATM    3  C   UNL     1     -11.679  12.814  69.290  1.00  0.00    -0.319 C  
BRANCH   3   4
HETATM    4  N   UNL     1     -12.082  13.381  68.008  1.00  0.00    -0.313 NA 
HETATM    5  H   UNL     1     -12.698  14.183  68.140  1.00  0.00     0.000 HD 
BRANCH   4   6
HETATM    6  C   UNL     1     -10.938  13.730  67.157  1.00  0.00    -0.290 C  
HETATM    7  C   UNL     1     -11.226  15.062  66.415  1.00  0.00    -0.310 C  
HETATM    8  C   UNL     1     -11.468  14.771  64.926  1.00  0.00    -0.412 C  
HETATM    9  C   UNL     1     -11.075  13.339  64.787  1.00  0.00    -0.359 A  
HETATM   10  C   UNL     1     -11.067  12.586  63.623  1.00  0.00    -0.523 A  
HETATM   11  C   UNL     1     -10.679  11.246  63.691  1.00  0.00    -0.438 A  
HETATM   12  C   UNL     1     -10.263  10.693  64.906  1.00  0.00    -0.395 A  
HETATM   13  C   UNL     1     -10.253  11.467  66.067  1.00  0.00    -0.289 A  
HETATM   14  C   UNL     1     -10.716  12.776  66.013  1.00  0.00    -0.295 A  
ENDBRANCH   4   6
ENDBRANCH   3   4
ENDBRANCH   2   3
TORSDOF 3
ENDMDL
MODEL       54
REMARK 921   NORMALIZED FREE ENERGY PREDICTED BY IDOCK:   -3.95 KCAL/MOL
REMARK 922        TOTAL FREE ENERGY PREDICTED BY IDOCK:   -4.94 KCAL/MOL
REMARK 923 INTER-LIGAND FREE ENERGY PREDICTED BY IDOCK:   -4.77 KCAL/MOL
REMARK 924 INTRA-LIGAND FREE ENERGY PREDICTED BY IDOCK:   -0.17 KCAL/MOL
REMARK 927      BINDING AFFINITY PREDICTED BY RF-SCORE:    0.00 PKD
ROOT
HETATM    1  C   UNL     1      -6.698  14.473  68.805  1.00  0.00    -0.091 C  
HETATM    2  C   UNL     1      -7.874  14.442  68.551  1.00  0.00    -0.138 C  
ENDROOT
BRANCH   2   3
HETATM    3  C   UNL     1      -9.321  14.483  68.327  1.00  0.00    -0.203 C  
BRANCH   3   4
HETATM    4  N   UNL     1     -10.044  14.510  69.594  1.00  0.00    -0.424 NA 
HETATM    5  H   UNL     1      -9.791  15.333  70.141  1.00  0.00     0.000 HD 
BRANCH   4   6
HETATM    6  C   UNL     1     -11.499  14.421  69.419  1.00  0.00    -0.288 C  
HETATM    7  C   UNL     1     -12.181  15.641  70.094  1.00  0.00    -0.387 C  
HETATM    8  C   UNL     1     -12.916  15.175  71.360  1.00  0.00    -0.476 C  
HETATM    9  C   UNL     1     -12.859  13.688  71.264  1.00  0.00    -0.424 A  
HETATM   10  C   UNL     1     -13.416  12.774  72.145  1.00  0.00    -0.591 A  
HETATM   11  C   UNL     1     -13.246  11.410  71.896  1.00  0.00    -0.485 A  
HETATM   12  C   UNL     1     -12.567  10.981  70.751  1.00  0.00    -0.463 A  
HETATM   13  C   UNL     1     -12.031  11.910  69.859  1.00  0.00    -0.398 A  
HETATM   14  C   UNL     1     -12.131  13.266  70.150  1.00  0.00    -0.403 A  
ENDBRANCH   4   6
ENDBRANCH   3   4
ENDBRANCH   2   3
TORSDOF 3
ENDMDL
MODEL       55
REMARK 921   NORMALIZED FREE ENERGY PREDICTED BY IDOCK:   -3.95 KCAL/MOL
REMARK 922        TOTAL FREE ENERGY PREDICTED BY IDOCK:   -4.93 KCAL/MOL
REMARK 923 INTER-LIGAND FREE ENERGY PREDICTED BY IDOCK:   -4.71 KCAL/MOL
REMARK 924 INTRA-LIGAND FREE ENERGY PREDICTED BY IDOCK:   -0.22 KCAL/MOL
REMARK 927      BINDING AFFINITY PREDICTED BY RF-SCORE:    0.00 PKD
ROOT
HETATM    1  C   UNL     1     -10.279   5.186  66.525  1.00  0.00    -0.300 C  
HETATM    2  C   UNL     1     -10.704   5.705  67.523  1.00  0.00    -0.272 C  
ENDROOT
BRANCH   2   3
HETATM    3  C   UNL     1     -11.236   6.230  68.784  1.00  0.00    -0.273 C  
BRANCH   3   4
HETATM    4  N   UNL     1     -11.133   7.685  68.827  1.00  0.00    -0.412 NA 
HETATM    5  H   UNL     1     -12.015   8.121  68.563  1.00  0.00     0.000 HD 
BRANCH   4   6
HETATM    6  C   UNL     1     -10.667   8.182  70.128  1.00  0.00    -0.243 C  
HETATM    7  C   UNL     1     -10.984   7.137  71.229  1.00  0.00    -0.264 C  
HETATM    8  C   UNL     1     -12.120   7.666  72.118  1.00  0.00    -0.325 C  
HETATM    9  C   UNL     1     -12.268   9.084  71.680  1.00  0.00    -0.418 A  
HETATM   10  C   UNL     1     -13.141  10.028  72.199  1.00  0.00    -0.482 A  
HETATM   11  C   UNL     1     -13.146  11.311  71.647  1.00  0.00    -0.513 A  
HETATM   12  C   UNL     1     -12.254  11.644  70.623  1.00  0.00    -0.461 A  
HETATM   13  C   UNL     1     -11.365  10.691  70.126  1.00  0.00    -0.402 A  
HETATM   14  C   UNL     1     -11.415   9.393  70.621  1.00  0.00    -0.344 A  
ENDBRANCH   4   6
ENDBRANCH   3   4
ENDBRANCH   2   3
TORSDOF 3
ENDMDL
MODEL       56
REMARK 921   NORMALIZED FREE ENERGY PREDICTED BY IDOCK:   -3.94 KCAL/MOL
REMARK 922        TOTAL FREE ENERGY PREDICTED BY IDOCK:   -4.93 KCAL/MOL
REMARK 923 INTER-LIGAND FREE ENERGY PREDICTED BY IDOCK:   -4.62 KCAL/MOL
REMARK 924 INTRA-LIGAND FREE ENERGY PREDICTED BY IDOCK:   -0.30 KCAL/MOL
REMARK 927      BINDING AFFINITY PREDICTED BY RF-SCORE:    0.00 PKD
ROOT
HETATM    1  C   UNL     1     -12.509  15.467  70.669  1.00  0.00    -0.483 C  
HETATM    2  C   UNL     1     -11.793  15.136  69.761  1.00  0.00    -0.364 C  
ENDROOT
BRANCH   2   3
HETATM    3  C   UNL     1     -10.829  14.749  68.728  1.00  0.00    -0.255 C  
BRANCH   3   4
HETATM    4  N   UNL     1     -10.989  15.570  67.532  1.00  0.00    -0.317 NA 
HETATM    5  H   UNL     1     -11.661  16.320  67.692  1.00  0.00     0.000 HD 
BRANCH   4   6
HETATM    6  C   UNL     1      -9.714  16.102  67.034  1.00  0.00    -0.230 C  
HETATM    7  C   UNL     1      -8.585  15.788  68.051  1.00  0.00    -0.163 C  
HETATM    8  C   UNL     1      -8.157  17.087  68.749  1.00  0.00    -0.250 C  
HETATM    9  C   UNL     1      -8.853  18.146  67.964  1.00  0.00    -0.286 A  
HETATM   10  C   UNL     1      -8.770  19.517  68.158  1.00  0.00    -0.368 A  
HETATM   11  C   UNL     1      -9.512  20.358  67.325  1.00  0.00    -0.568 A  
HETATM   12  C   UNL     1     -10.283  19.825  66.288  1.00  0.00    -0.615 A  
HETATM   13  C   UNL     1     -10.340  18.446  66.089  1.00  0.00    -0.431 A  
HETATM   14  C   UNL     1      -9.666  17.606  66.967  1.00  0.00    -0.292 A  
ENDBRANCH   4   6
ENDBRANCH   3   4
ENDBRANCH   2   3
TORSDOF 3
ENDMDL
MODEL       57
REMARK 921   NORMALIZED FREE ENERGY PREDICTED BY IDOCK:   -3.92 KCAL/MOL
REMARK 922        TOTAL FREE ENERGY PREDICTED BY IDOCK:   -4.90 KCAL/MOL
REMARK 923 INTER-LIGAND FREE ENERGY PREDICTED BY IDOCK:   -4.71 KCAL/MOL
REMARK 924 INTRA-LIGAND FREE ENERGY PREDICTED BY IDOCK:   -0.19 KCAL/MOL
REMARK 927      BINDING AFFINITY PREDICTED BY RF-SCORE:    0.00 PKD
ROOT
HETATM    1  C   UNL     1      -9.597   9.932  65.277  1.00  0.00    -0.361 C  
HETATM    2  C   UNL     1      -9.872   9.107  66.109  1.00  0.00    -0.363 C  
ENDROOT
BRANCH   2   3
HETATM    3  C   UNL     1     -10.093   8.099  67.149  1.00  0.00    -0.264 C  
BRANCH   3   4
HETATM    4  N   UNL     1     -11.124   8.533  68.085  1.00  0.00    -0.366 NA 
HETATM    5  H   UNL     1     -11.896   7.867  68.113  1.00  0.00     0.000 HD 
BRANCH   4   6
HETATM    6  C   UNL     1     -10.598   8.787  69.432  1.00  0.00    -0.209 C  
HETATM    7  C   UNL     1     -10.772   7.519  70.308  1.00  0.00    -0.247 C  
HETATM    8  C   UNL     1     -11.872   7.770  71.350  1.00  0.00    -0.324 C  
HETATM    9  C   UNL     1     -12.136   9.233  71.227  1.00  0.00    -0.412 A  
HETATM   10  C   UNL     1     -13.024   9.985  71.981  1.00  0.00    -0.514 A  
HETATM   11  C   UNL     1     -13.146  11.350  71.710  1.00  0.00    -0.523 A  
HETATM   12  C   UNL     1     -12.350  11.949  70.729  1.00  0.00    -0.416 A  
HETATM   13  C   UNL     1     -11.443  11.186  69.994  1.00  0.00    -0.376 A  
HETATM   14  C   UNL     1     -11.380   9.814  70.209  1.00  0.00    -0.333 A  
ENDBRANCH   4   6
ENDBRANCH   3   4
ENDBRANCH   2   3
TORSDOF 3
ENDMDL
MODEL       58
REMARK 921   NORMALIZED FREE ENERGY PREDICTED BY IDOCK:   -3.92 KCAL/MOL
REMARK 922        TOTAL FREE ENERGY PREDICTED BY IDOCK:   -4.90 KCAL/MOL
REMARK 923 INTER-LIGAND FREE ENERGY PREDICTED BY IDOCK:   -4.62 KCAL/MOL
REMARK 924 INTRA-LIGAND FREE ENERGY PREDICTED BY IDOCK:   -0.28 KCAL/MOL
REMARK 927      BINDING AFFINITY PREDICTED BY RF-SCORE:    0.00 PKD
ROOT
HETATM    1  C   UNL     1     -13.320  12.714  72.242  1.00  0.00    -0.527 C  
HETATM    2  C   UNL     1     -13.030  11.719  71.631  1.00  0.00    -0.467 C  
ENDROOT
BRANCH   2   3
HETATM    3  C   UNL     1     -12.707  10.445  70.984  1.00  0.00    -0.394 C  
BRANCH   3   4
HETATM    4  N   UNL     1     -12.661  10.595  69.533  1.00  0.00    -0.643 NA 
HETATM    5  H   UNL     1     -13.437  11.166  69.200  1.00  0.00     0.000 HD 
BRANCH   4   6
HETATM    6  C   UNL     1     -11.376  11.123  69.058  1.00  0.00    -0.276 C  
HETATM    7  C   UNL     1     -11.626  12.294  68.071  1.00  0.00    -0.408 C  
HETATM    8  C   UNL     1     -11.275  11.840  66.646  1.00  0.00    -0.383 C  
HETATM    9  C   UNL     1     -10.603  10.526  66.859  1.00  0.00    -0.303 A  
HETATM   10  C   UNL     1     -10.051   9.705  65.887  1.00  0.00    -0.304 A  
HETATM   11  C   UNL     1      -9.473   8.496  66.278  1.00  0.00    -0.299 A  
HETATM   12  C   UNL     1      -9.413   8.147  67.631  1.00  0.00    -0.172 A  
HETATM   13  C   UNL     1      -9.951   8.991  68.602  1.00  0.00    -0.187 A  
HETATM   14  C   UNL     1     -10.597  10.156  68.204  1.00  0.00    -0.262 A  
ENDBRANCH   4   6
ENDBRANCH   3   4
ENDBRANCH   2   3
TORSDOF 3
ENDMDL
MODEL       59
REMARK 921   NORMALIZED FREE ENERGY PREDICTED BY IDOCK:   -3.88 KCAL/MOL
REMARK 922        TOTAL FREE ENERGY PREDICTED BY IDOCK:   -4.85 KCAL/MOL
REMARK 923 INTER-LIGAND FREE ENERGY PREDICTED BY IDOCK:   -4.51 KCAL/MOL
REMARK 924 INTRA-LIGAND FREE ENERGY PREDICTED BY IDOCK:   -0.34 KCAL/MOL
REMARK 927      BINDING AFFINITY PREDICTED BY RF-SCORE:    0.00 PKD
ROOT
HETATM    1  C   UNL     1      -7.994  17.075  66.244  1.00  0.00    -0.343 C  
HETATM    2  C   UNL     1      -8.922  17.188  67.001  1.00  0.00    -0.244 C  
ENDROOT
BRANCH   2   3
HETATM    3  C   UNL     1     -10.099  17.228  67.874  1.00  0.00    -0.317 C  
BRANCH   3   4
HETATM    4  N   UNL     1     -10.294  15.946  68.544  1.00  0.00    -0.226 NA 
HETATM    5  H   UNL     1     -10.162  16.037  69.551  1.00  0.00     0.000 HD 
BRANCH   4   6
HETATM    6  C   UNL     1     -11.593  15.336  68.236  1.00  0.00    -0.341 C  
HETATM    7  C   UNL     1     -12.015  14.394  69.394  1.00  0.00    -0.370 C  
HETATM    8  C   UNL     1     -11.903  12.934  68.925  1.00  0.00    -0.352 C  
HETATM    9  C   UNL     1     -11.666  13.061  67.459  1.00  0.00    -0.421 A  
HETATM   10  C   UNL     1     -11.532  12.027  66.545  1.00  0.00    -0.413 A  
HETATM   11  C   UNL     1     -11.298  12.341  65.204  1.00  0.00    -0.376 A  
HETATM   12  C   UNL     1     -11.249  13.676  64.790  1.00  0.00    -0.367 A  
HETATM   13  C   UNL     1     -11.408  14.708  65.716  1.00  0.00    -0.340 A  
HETATM   14  C   UNL     1     -11.561  14.394  67.061  1.00  0.00    -0.402 A  
ENDBRANCH   4   6
ENDBRANCH   3   4
ENDBRANCH   2   3
TORSDOF 3
ENDMDL
MODEL       60
REMARK 921   NORMALIZED FREE ENERGY PREDICTED BY IDOCK:   -3.88 KCAL/MOL
REMARK 922        TOTAL FREE ENERGY PREDICTED BY IDOCK:   -4.85 KCAL/MOL
REMARK 923 INTER-LIGAND FREE ENERGY PREDICTED BY IDOCK:   -4.57 KCAL/MOL
REMARK 924 INTRA-LIGAND FREE ENERGY PREDICTED BY IDOCK:   -0.28 KCAL/MOL
REMARK 927      BINDING AFFINITY PREDICTED BY RF-SCORE:    0.00 PKD
ROOT
HETATM    1  C   UNL     1      -8.092  20.504  67.161  1.00  0.00    -0.358 C  
HETATM    2  C   UNL     1      -9.172  20.032  67.405  1.00  0.00    -0.477 C  
ENDROOT
BRANCH   2   3
HETATM    3  C   UNL     1     -10.534  19.554  67.653  1.00  0.00    -0.467 C  
BRANCH   3   4
HETATM    4  N   UNL     1     -10.768  18.277  66.987  1.00  0.00    -0.335 NA 
HETATM    5  H   UNL     1     -10.705  18.377  65.974  1.00  0.00     0.000 HD 
BRANCH   4   6
HETATM    6  C   UNL     1      -9.876  17.214  67.467  1.00  0.00    -0.266 C  
HETATM    7  C   UNL     1      -9.055  16.646  66.280  1.00  0.00    -0.333 C  
HETATM    8  C   UNL     1      -9.560  15.234  65.945  1.00  0.00    -0.377 C  
HETATM    9  C   UNL     1     -10.474  14.917  67.080  1.00  0.00    -0.272 A  
HETATM   10  C   UNL     1     -11.167  13.733  67.286  1.00  0.00    -0.329 A  
HETATM   11  C   UNL     1     -11.992  13.625  68.407  1.00  0.00    -0.391 A  
HETATM   12  C   UNL     1     -12.077  14.675  69.326  1.00  0.00    -0.307 A  
HETATM   13  C   UNL     1     -11.356  15.852  69.120  1.00  0.00    -0.366 A  
HETATM   14  C   UNL     1     -10.598  15.990  67.963  1.00  0.00    -0.295 A  
ENDBRANCH   4   6
ENDBRANCH   3   4
ENDBRANCH   2   3
TORSDOF 3
ENDMDL
MODEL       61
REMARK 921   NORMALIZED FREE ENERGY PREDICTED BY IDOCK:   -3.88 KCAL/MOL
REMARK 922        TOTAL FREE ENERGY PREDICTED BY IDOCK:   -4.85 KCAL/MOL
REMARK 923 INTER-LIGAND FREE ENERGY PREDICTED BY IDOCK:   -4.47 KCAL/MOL
REMARK 924 INTRA-LIGAND FREE ENERGY PREDICTED BY IDOCK:   -0.38 KCAL/MOL
REMARK 927      BINDING AFFINITY PREDICTED BY RF-SCORE:    0.00 PKD
ROOT
HETATM    1  C   UNL     1      -6.336  17.050  66.757  1.00  0.00    -0.246 C  
HETATM    2  C   UNL     1      -7.202  16.222  66.865  1.00  0.00    -0.257 C  
ENDROOT
BRANCH   2   3
HETATM    3  C   UNL     1      -8.199  15.172  67.089  1.00  0.00    -0.221 C  
BRANCH   3   4
HETATM    4  N   UNL     1      -9.007  15.463  68.268  1.00  0.00    -0.181 NA 
HETATM    5  H   UNL     1      -8.508  16.079  68.910  1.00  0.00     0.000 HD 
BRANCH   4   6
HETATM    6  C   UNL     1     -10.326  16.013  67.931  1.00  0.00    -0.269 C  
HETATM    7  C   UNL     1     -10.766  15.494  66.537  1.00  0.00    -0.304 C  
HETATM    8  C   UNL     1     -10.701  16.647  65.523  1.00  0.00    -0.234 C  
HETATM    9  C   UNL     1     -10.472  17.846  66.380  1.00  0.00    -0.318 A  
HETATM   10  C   UNL     1     -10.375  19.163  65.959  1.00  0.00    -0.538 A  
HETATM   11  C   UNL     1     -10.142  20.157  66.913  1.00  0.00    -0.592 A  
HETATM   12  C   UNL     1     -10.058  19.828  68.269  1.00  0.00    -0.575 A  
HETATM   13  C   UNL     1     -10.180  18.502  68.682  1.00  0.00    -0.363 A  
HETATM   14  C   UNL     1     -10.331  17.505  67.725  1.00  0.00    -0.367 A  
ENDBRANCH   4   6
ENDBRANCH   3   4
ENDBRANCH   2   3
TORSDOF 3
ENDMDL
MODEL       62
REMARK 921   NORMALIZED FREE ENERGY PREDICTED BY IDOCK:   -3.87 KCAL/MOL
REMARK 922        TOTAL FREE ENERGY PREDICTED BY IDOCK:   -4.84 KCAL/MOL
REMARK 923 INTER-LIGAND FREE ENERGY PREDICTED BY IDOCK:   -4.62 KCAL/MOL
REMARK 924 INTRA-LIGAND FREE ENERGY PREDICTED BY IDOCK:   -0.22 KCAL/MOL
REMARK 927      BINDING AFFINITY PREDICTED BY RF-SCORE:    0.00 PKD
ROOT
HETATM    1  C   UNL     1      -9.985  17.412  68.626  1.00  0.00    -0.340 C  
HETATM    2  C   UNL     1     -10.727  16.614  69.136  1.00  0.00    -0.342 C  
ENDROOT
BRANCH   2   3
HETATM    3  C   UNL     1     -11.714  15.681  69.686  1.00  0.00    -0.361 C  
BRANCH   3   4
HETATM    4  N   UNL     1     -11.163  14.333  69.775  1.00  0.00    -0.394 NA 
HETATM    5  H   UNL     1     -10.777  14.156  70.702  1.00  0.00     0.000 HD 
BRANCH   4   6
HETATM    6  C   UNL     1     -12.135  13.297  69.403  1.00  0.00    -0.248 C  
HETATM    7  C   UNL     1     -12.149  12.183  70.483  1.00  0.00    -0.383 C  
HETATM    8  C   UNL     1     -11.495  10.915  69.912  1.00  0.00    -0.402 C  
HETATM    9  C   UNL     1     -11.344  11.229  68.462  1.00  0.00    -0.341 A  
HETATM   10  C   UNL     1     -10.837  10.394  67.478  1.00  0.00    -0.358 A  
HETATM   11  C   UNL     1     -10.760  10.871  66.167  1.00  0.00    -0.225 A  
HETATM   12  C   UNL     1     -11.230  12.150  65.852  1.00  0.00    -0.384 A  
HETATM   13  C   UNL     1     -11.759  12.972  66.847  1.00  0.00    -0.441 A  
HETATM   14  C   UNL     1     -11.762  12.527  68.164  1.00  0.00    -0.400 A  
ENDBRANCH   4   6
ENDBRANCH   3   4
ENDBRANCH   2   3
TORSDOF 3
ENDMDL
MODEL       63
REMARK 921   NORMALIZED FREE ENERGY PREDICTED BY IDOCK:   -3.86 KCAL/MOL
REMARK 922        TOTAL FREE ENERGY PREDICTED BY IDOCK:   -4.83 KCAL/MOL
REMARK 923 INTER-LIGAND FREE ENERGY PREDICTED BY IDOCK:   -4.48 KCAL/MOL
REMARK 924 INTRA-LIGAND FREE ENERGY PREDICTED BY IDOCK:   -0.35 KCAL/MOL
REMARK 927      BINDING AFFINITY PREDICTED BY RF-SCORE:    0.00 PKD
ROOT
HETATM    1  C   UNL     1     -12.406  12.447  63.488  1.00  0.00    -0.648 C  
HETATM    2  C   UNL     1     -11.470  11.888  63.997  1.00  0.00    -0.480 C  
ENDROOT
BRANCH   2   3
HETATM    3  C   UNL     1     -10.407  11.130  64.662  1.00  0.00    -0.330 C  
BRANCH   3   4
HETATM    4  N   UNL     1      -9.371  12.023  65.172  1.00  0.00    -0.431 NA 
HETATM    5  H   UNL     1      -9.499  12.970  64.816  1.00  0.00     0.000 HD 
BRANCH   4   6
HETATM    6  C   UNL     1      -9.289  12.018  66.638  1.00  0.00    -0.219 C  
HETATM    7  C   UNL     1     -10.126  10.840  67.203  1.00  0.00    -0.243 C  
HETATM    8  C   UNL     1     -11.387  11.396  67.883  1.00  0.00    -0.371 C  
HETATM    9  C   UNL     1     -11.140  12.866  67.920  1.00  0.00    -0.283 A  
HETATM   10  C   UNL     1     -11.962  13.835  68.473  1.00  0.00    -0.402 A  
HETATM   11  C   UNL     1     -11.567  15.173  68.399  1.00  0.00    -0.356 A  
HETATM   12  C   UNL     1     -10.342  15.516  67.820  1.00  0.00    -0.263 A  
HETATM   13  C   UNL     1      -9.512  14.530  67.288  1.00  0.00    -0.218 A  
HETATM   14  C   UNL     1      -9.943  13.208  67.289  1.00  0.00    -0.230 A  
ENDBRANCH   4   6
ENDBRANCH   3   4
ENDBRANCH   2   3
TORSDOF 3
ENDMDL
MODEL       64
REMARK 921   NORMALIZED FREE ENERGY PREDICTED BY IDOCK:   -3.84 KCAL/MOL
REMARK 922        TOTAL FREE ENERGY PREDICTED BY IDOCK:   -4.81 KCAL/MOL
REMARK 923 INTER-LIGAND FREE ENERGY PREDICTED BY IDOCK:   -4.66 KCAL/MOL
REMARK 924 INTRA-LIGAND FREE ENERGY PREDICTED BY IDOCK:   -0.15 KCAL/MOL
REMARK 927      BINDING AFFINITY PREDICTED BY RF-SCORE:    0.00 PKD
ROOT
HETATM    1  C   UNL     1      -5.623  19.914  71.524  1.00  0.00    -0.404 C  
HETATM    2  C   UNL     1      -6.050  20.016  70.404  1.00  0.00    -0.384 C  
ENDROOT
BRANCH   2   3
HETATM    3  C   UNL     1      -6.529  20.250  69.039  1.00  0.00    -0.282 C  
BRANCH   3   4
HETATM    4  N   UNL     1      -7.730  19.468  68.768  1.00  0.00    -0.352 NA 
HETATM    5  H   UNL     1      -8.502  19.764  69.365  1.00  0.00     0.000 HD 
BRANCH   4   6
HETATM    6  C   UNL     1      -8.119  19.498  67.352  1.00  0.00    -0.280 C  
HETATM    7  C   UNL     1      -9.386  20.377  67.178  1.00  0.00    -0.537 C  
HETATM    8  C   UNL     1     -10.589  19.474  66.861  1.00  0.00    -0.602 C  
HETATM    9  C   UNL     1      -9.965  18.143  66.614  1.00  0.00    -0.363 A  
HETATM   10  C   UNL     1     -10.614  16.974  66.246  1.00  0.00    -0.185 A  
HETATM   11  C   UNL     1      -9.858  15.813  66.072  1.00  0.00    -0.366 A  
HETATM   12  C   UNL     1      -8.468  15.846  66.220  1.00  0.00    -0.302 A  
HETATM   13  C   UNL     1      -7.824  17.033  66.568  1.00  0.00    -0.331 A  
HETATM   14  C   UNL     1      -8.585  18.169  66.819  1.00  0.00    -0.272 A  
ENDBRANCH   4   6
ENDBRANCH   3   4
ENDBRANCH   2   3
TORSDOF 3
ENDMDL
MODEL       65
REMARK 921   NORMALIZED FREE ENERGY PREDICTED BY IDOCK:   -3.80 KCAL/MOL
REMARK 922        TOTAL FREE ENERGY PREDICTED BY IDOCK:   -4.76 KCAL/MOL
REMARK 923 INTER-LIGAND FREE ENERGY PREDICTED BY IDOCK:   -4.53 KCAL/MOL
REMARK 924 INTRA-LIGAND FREE ENERGY PREDICTED BY IDOCK:   -0.23 KCAL/MOL
REMARK 927      BINDING AFFINITY PREDICTED BY RF-SCORE:    0.00 PKD
ROOT
HETATM    1  C   UNL     1      -8.479   8.766  65.603  1.00  0.00    -0.174 C  
HETATM    2  C   UNL     1      -9.458   8.514  66.254  1.00  0.00    -0.299 C  
ENDROOT
BRANCH   2   3
HETATM    3  C   UNL     1     -10.590   8.121  67.099  1.00  0.00    -0.285 C  
BRANCH   3   4
HETATM    4  N   UNL     1     -10.893   9.158  68.079  1.00  0.00    -0.473 NA 
HETATM    5  H   UNL     1     -11.882   9.405  68.056  1.00  0.00     0.000 HD 
BRANCH   4   6
HETATM    6  C   UNL     1     -10.472   8.796  69.438  1.00  0.00    -0.222 C  
HETATM    7  C   UNL     1     -10.295   7.258  69.536  1.00  0.00    -0.230 C  
HETATM    8  C   UNL     1     -11.433   6.670  70.386  1.00  0.00    -0.444 C  
HETATM    9  C   UNL     1     -12.092   7.877  70.961  1.00  0.00    -0.246 A  
HETATM   10  C   UNL     1     -13.163   7.901  71.842  1.00  0.00    -0.314 A  
HETATM   11  C   UNL     1     -13.657   9.137  72.264  1.00  0.00    -0.548 A  
HETATM   12  C   UNL     1     -13.049  10.323  71.841  1.00  0.00    -0.568 A  
HETATM   13  C   UNL     1     -11.958  10.285  70.973  1.00  0.00    -0.483 A  
HETATM   14  C   UNL     1     -11.518   9.058  70.490  1.00  0.00    -0.248 A  
ENDBRANCH   4   6
ENDBRANCH   3   4
ENDBRANCH   2   3
TORSDOF 3
ENDMDL
MODEL       66
REMARK 921   NORMALIZED FREE ENERGY PREDICTED BY IDOCK:   -3.78 KCAL/MOL
REMARK 922        TOTAL FREE ENERGY PREDICTED BY IDOCK:   -4.73 KCAL/MOL
REMARK 923 INTER-LIGAND FREE ENERGY PREDICTED BY IDOCK:   -4.46 KCAL/MOL
REMARK 924 INTRA-LIGAND FREE ENERGY PREDICTED BY IDOCK:   -0.27 KCAL/MOL
REMARK 927      BINDING AFFINITY PREDICTED BY RF-SCORE:    0.00 PKD
ROOT
HETATM    1  C   UNL     1     -10.529  12.433  66.165  1.00  0.00    -0.274 C  
HETATM    2  C   UNL     1     -11.014  12.270  67.254  1.00  0.00    -0.301 C  
ENDROOT
BRANCH   2   3
HETATM    3  C   UNL     1     -11.601  11.955  68.559  1.00  0.00    -0.318 C  
BRANCH   3   4
HETATM    4  N   UNL     1     -11.844  10.522  68.689  1.00  0.00    -0.716 NA 
HETATM    5  H   UNL     1     -12.153  10.122  67.804  1.00  0.00     0.000 HD 
BRANCH   4   6
HETATM    6  C   UNL     1     -10.683   9.796  69.219  1.00  0.00    -0.224 C  
HETATM    7  C   UNL     1     -10.171   8.786  68.157  1.00  0.00    -0.250 C  
HETATM    8  C   UNL     1     -10.507   7.358  68.613  1.00  0.00    -0.211 C  
HETATM    9  C   UNL     1     -10.973   7.545  70.017  1.00  0.00    -0.252 A  
HETATM   10  C   UNL     1     -11.362   6.553  70.904  1.00  0.00    -0.393 A  
HETATM   11  C   UNL     1     -11.784   6.924  72.183  1.00  0.00    -0.327 A  
HETATM   12  C   UNL     1     -11.766   8.267  72.571  1.00  0.00    -0.451 A  
HETATM   13  C   UNL     1     -11.350   9.254  71.677  1.00  0.00    -0.467 A  
HETATM   14  C   UNL     1     -11.007   8.892  70.379  1.00  0.00    -0.275 A  
ENDBRANCH   4   6
ENDBRANCH   3   4
ENDBRANCH   2   3
TORSDOF 3
ENDMDL
MODEL       67
REMARK 921   NORMALIZED FREE ENERGY PREDICTED BY IDOCK:   -3.73 KCAL/MOL
REMARK 922        TOTAL FREE ENERGY PREDICTED BY IDOCK:   -4.68 KCAL/MOL
REMARK 923 INTER-LIGAND FREE ENERGY PREDICTED BY IDOCK:   -4.40 KCAL/MOL
REMARK 924 INTRA-LIGAND FREE ENERGY PREDICTED BY IDOCK:   -0.28 KCAL/MOL
REMARK 927      BINDING AFFINITY PREDICTED BY RF-SCORE:    0.00 PKD
ROOT
HETATM    1  C   UNL     1     -14.229   8.777  72.300  1.00  0.00    -0.498 C  
HETATM    2  C   UNL     1     -13.038   8.901  72.180  1.00  0.00    -0.475 C  
ENDROOT
BRANCH   2   3
HETATM    3  C   UNL     1     -11.606   9.062  71.917  1.00  0.00    -0.370 C  
BRANCH   3   4
HETATM    4  N   UNL     1     -10.858   7.896  72.374  1.00  0.00    -0.289 NA 
HETATM    5  H   UNL     1     -10.684   7.944  73.378  1.00  0.00     0.000 HD 
BRANCH   4   6
HETATM    6  C   UNL     1     -11.505   6.629  72.012  1.00  0.00    -0.291 C  
HETATM    7  C   UNL     1     -11.065   5.517  73.000  1.00  0.00    -0.350 C  
HETATM    8  C   UNL     1     -10.124   4.541  72.278  1.00  0.00    -0.253 C  
HETATM    9  C   UNL     1     -10.231   4.952  70.849  1.00  0.00    -0.272 A  
HETATM   10  C   UNL     1      -9.605   4.361  69.762  1.00  0.00    -0.276 A  
HETATM   11  C   UNL     1      -9.816   4.898  68.490  1.00  0.00    -0.208 A  
HETATM   12  C   UNL     1     -10.682   5.982  68.317  1.00  0.00    -0.352 A  
HETATM   13  C   UNL     1     -11.325   6.554  69.415  1.00  0.00    -0.395 A  
HETATM   14  C   UNL     1     -11.051   6.069  70.689  1.00  0.00    -0.371 A  
ENDBRANCH   4   6
ENDBRANCH   3   4
ENDBRANCH   2   3
TORSDOF 3
ENDMDL
MODEL       68
REMARK 921   NORMALIZED FREE ENERGY PREDICTED BY IDOCK:   -3.72 KCAL/MOL
REMARK 922        TOTAL FREE ENERGY PREDICTED BY IDOCK:   -4.67 KCAL/MOL
REMARK 923 INTER-LIGAND FREE ENERGY PREDICTED BY IDOCK:   -4.38 KCAL/MOL
REMARK 924 INTRA-LIGAND FREE ENERGY PREDICTED BY IDOCK:   -0.29 KCAL/MOL
REMARK 927      BINDING AFFINITY PREDICTED BY RF-SCORE:    0.00 PKD
ROOT
HETATM    1  C   UNL     1      -5.389  19.421  71.669  1.00  0.00    -0.388 C  
HETATM    2  C   UNL     1      -5.553  19.940  70.596  1.00  0.00    -0.309 C  
ENDROOT
BRANCH   2   3
HETATM    3  C   UNL     1      -5.808  20.660  69.346  1.00  0.00    -0.347 C  
BRANCH   3   4
HETATM    4  N   UNL     1      -5.904  19.734  68.222  1.00  0.00    -0.225 NA 
HETATM    5  H   UNL     1      -4.979  19.434  67.916  1.00  0.00     0.000 HD 
BRANCH   4   6
HETATM    6  C   UNL     1      -6.764  18.580  68.510  1.00  0.00    -0.255 C  
HETATM    7  C   UNL     1      -6.391  17.404  67.569  1.00  0.00    -0.166 C  
HETATM    8  C   UNL     1      -7.510  17.209  66.534  1.00  0.00    -0.318 C  
HETATM    9  C   UNL     1      -8.602  18.090  67.038  1.00  0.00    -0.254 A  
HETATM   10  C   UNL     1      -9.863  18.253  66.484  1.00  0.00    -0.363 A  
HETATM   11  C   UNL     1     -10.754  19.140  67.093  1.00  0.00    -0.567 A  
HETATM   12  C   UNL     1     -10.392  19.812  68.264  1.00  0.00    -0.536 A  
HETATM   13  C   UNL     1      -9.129  19.622  68.824  1.00  0.00    -0.322 A  
HETATM   14  C   UNL     1      -8.215  18.802  68.174  1.00  0.00    -0.332 A  
ENDBRANCH   4   6
ENDBRANCH   3   4
ENDBRANCH   2   3
TORSDOF 3
ENDMDL
MODEL       69
REMARK 921   NORMALIZED FREE ENERGY PREDICTED BY IDOCK:   -3.70 KCAL/MOL
REMARK 922        TOTAL FREE ENERGY PREDICTED BY IDOCK:   -4.64 KCAL/MOL
REMARK 923 INTER-LIGAND FREE ENERGY PREDICTED BY IDOCK:   -4.45 KCAL/MOL
REMARK 924 INTRA-LIGAND FREE ENERGY PREDICTED BY IDOCK:   -0.19 KCAL/MOL
REMARK 927      BINDING AFFINITY PREDICTED BY RF-SCORE:    0.00 PKD
ROOT
HETATM    1  C   UNL     1     -12.574  11.892  63.330  1.00  0.00    -0.555 C  
HETATM    2  C   UNL     1     -11.681  11.857  64.136  1.00  0.00    -0.428 C  
ENDROOT
BRANCH   2   3
HETATM    3  C   UNL     1     -10.675  11.838  65.201  1.00  0.00    -0.291 C  
BRANCH   3   4
HETATM    4  N   UNL     1      -9.848  13.040  65.158  1.00  0.00    -0.509 NA 
HETATM    5  H   UNL     1      -9.876  13.470  64.233  1.00  0.00     0.000 HD 
BRANCH   4   6
HETATM    6  C   UNL     1     -10.202  14.010  66.201  1.00  0.00    -0.302 C  
HETATM    7  C   UNL     1     -11.253  15.010  65.649  1.00  0.00    -0.327 C  
HETATM    8  C   UNL     1     -10.591  16.382  65.449  1.00  0.00    -0.338 C  
HETATM    9  C   UNL     1      -9.264  16.224  66.111  1.00  0.00    -0.376 A  
HETATM   10  C   UNL     1      -8.283  17.193  66.250  1.00  0.00    -0.306 A  
HETATM   11  C   UNL     1      -7.090  16.853  66.893  1.00  0.00    -0.251 A  
HETATM   12  C   UNL     1      -6.915  15.572  67.425  1.00  0.00    -0.232 A  
HETATM   13  C   UNL     1      -7.919  14.613  67.299  1.00  0.00    -0.223 A  
HETATM   14  C   UNL     1      -9.072  14.927  66.590  1.00  0.00    -0.309 A  
ENDBRANCH   4   6
ENDBRANCH   3   4
ENDBRANCH   2   3
TORSDOF 3
ENDMDL
MODEL       70
REMARK 921   NORMALIZED FREE ENERGY PREDICTED BY IDOCK:   -3.66 KCAL/MOL
REMARK 922        TOTAL FREE ENERGY PREDICTED BY IDOCK:   -4.60 KCAL/MOL
REMARK 923 INTER-LIGAND FREE ENERGY PREDICTED BY IDOCK:   -4.35 KCAL/MOL
REMARK 924 INTRA-LIGAND FREE ENERGY PREDICTED BY IDOCK:   -0.24 KCAL/MOL
REMARK 927      BINDING AFFINITY PREDICTED BY RF-SCORE:    0.00 PKD
ROOT
HETATM    1  C   UNL     1     -12.489   8.376  71.602  1.00  0.00    -0.363 C  
HETATM    2  C   UNL     1     -11.511   8.868  71.103  1.00  0.00    -0.364 C  
ENDROOT
BRANCH   2   3
HETATM    3  C   UNL     1     -10.256   9.398  70.564  1.00  0.00    -0.271 C  
BRANCH   3   4
HETATM    4  N   UNL     1     -10.460  10.712  69.964  1.00  0.00    -0.449 NA 
HETATM    5  H   UNL     1      -9.570  11.140  69.710  1.00  0.00     0.000 HD 
BRANCH   4   6
HETATM    6  C   UNL     1     -11.374  10.675  68.815  1.00  0.00    -0.277 C  
HETATM    7  C   UNL     1     -10.821   9.702  67.740  1.00  0.00    -0.278 C  
HETATM    8  C   UNL     1     -10.314  10.511  66.537  1.00  0.00    -0.294 C  
HETATM    9  C   UNL     1     -10.800  11.892  66.821  1.00  0.00    -0.307 A  
HETATM   10  C   UNL     1     -10.644  13.012  66.018  1.00  0.00    -0.292 A  
HETATM   11  C   UNL     1     -11.159  14.232  66.460  1.00  0.00    -0.323 A  
HETATM   12  C   UNL     1     -11.860  14.307  67.667  1.00  0.00    -0.420 A  
HETATM   13  C   UNL     1     -12.031  13.169  68.455  1.00  0.00    -0.324 A  
HETATM   14  C   UNL     1     -11.448  11.972  68.053  1.00  0.00    -0.392 A  
ENDBRANCH   4   6
ENDBRANCH   3   4
ENDBRANCH   2   3
TORSDOF 3
ENDMDL
MODEL       71
REMARK 921   NORMALIZED FREE ENERGY PREDICTED BY IDOCK:   -3.64 KCAL/MOL
REMARK 922        TOTAL FREE ENERGY PREDICTED BY IDOCK:   -4.57 KCAL/MOL
REMARK 923 INTER-LIGAND FREE ENERGY PREDICTED BY IDOCK:   -4.27 KCAL/MOL
REMARK 924 INTRA-LIGAND FREE ENERGY PREDICTED BY IDOCK:   -0.30 KCAL/MOL
REMARK 927      BINDING AFFINITY PREDICTED BY RF-SCORE:    0.00 PKD
ROOT
HETATM    1  C   UNL     1      -8.784   9.295  64.949  1.00  0.00    -0.224 C  
HETATM    2  C   UNL     1      -9.377  10.143  64.336  1.00  0.00    -0.348 C  
ENDROOT
BRANCH   2   3
HETATM    3  C   UNL     1     -10.132  11.222  63.692  1.00  0.00    -0.382 C  
BRANCH   3   4
HETATM    4  N   UNL     1      -9.882  12.498  64.354  1.00  0.00    -0.551 NA 
HETATM    5  H   UNL     1     -10.221  13.276  63.787  1.00  0.00     0.000 HD 
BRANCH   4   6
HETATM    6  C   UNL     1     -10.441  12.554  65.710  1.00  0.00    -0.271 C  
HETATM    7  C   UNL     1     -11.974  12.777  65.635  1.00  0.00    -0.503 C  
HETATM    8  C   UNL     1     -12.302  14.205  66.097  1.00  0.00    -0.463 C  
HETATM    9  C   UNL     1     -11.009  14.690  66.659  1.00  0.00    -0.323 A  
HETATM   10  C   UNL     1     -10.768  15.920  67.252  1.00  0.00    -0.306 A  
HETATM   11  C   UNL     1      -9.479  16.204  67.710  1.00  0.00    -0.217 A  
HETATM   12  C   UNL     1      -8.468  15.244  67.612  1.00  0.00    -0.172 A  
HETATM   13  C   UNL     1      -8.728  14.001  67.035  1.00  0.00    -0.220 A  
HETATM   14  C   UNL     1      -9.989  13.750  66.507  1.00  0.00    -0.290 A  
ENDBRANCH   4   6
ENDBRANCH   3   4
ENDBRANCH   2   3
TORSDOF 3
ENDMDL
MODEL       72
REMARK 921   NORMALIZED FREE ENERGY PREDICTED BY IDOCK:   -3.63 KCAL/MOL
REMARK 922        TOTAL FREE ENERGY PREDICTED BY IDOCK:   -4.55 KCAL/MOL
REMARK 923 INTER-LIGAND FREE ENERGY PREDICTED BY IDOCK:   -4.31 KCAL/MOL
REMARK 924 INTRA-LIGAND FREE ENERGY PREDICTED BY IDOCK:   -0.24 KCAL/MOL
REMARK 927      BINDING AFFINITY PREDICTED BY RF-SCORE:    0.00 PKD
ROOT
HETATM    1  C   UNL     1      -7.633  15.453  69.130  1.00  0.00    -0.198 C  
HETATM    2  C   UNL     1      -8.749  15.683  68.745  1.00  0.00    -0.197 C  
ENDROOT
BRANCH   2   3
HETATM    3  C   UNL     1     -10.073  15.928  68.168  1.00  0.00    -0.229 C  
BRANCH   3   4
HETATM    4  N   UNL     1     -10.519  14.784  67.380  1.00  0.00    -0.254 NA 
HETATM    5  H   UNL     1     -11.531  14.672  67.438  1.00  0.00     0.000 HD 
BRANCH   4   6
HETATM    6  C   UNL     1     -10.076  14.850  65.982  1.00  0.00    -0.311 C  
HETATM    7  C   UNL     1     -10.780  16.034  65.268  1.00  0.00    -0.417 C  
HETATM    8  C   UNL     1     -11.817  15.484  64.277  1.00  0.00    -0.179 C  
HETATM    9  C   UNL     1     -11.526  14.021  64.251  1.00  0.00    -0.314 A  
HETATM   10  C   UNL     1     -12.159  13.060  63.477  1.00  0.00    -0.617 A  
HETATM   11  C   UNL     1     -11.757  11.728  63.600  1.00  0.00    -0.517 A  
HETATM   12  C   UNL     1     -10.704  11.384  64.454  1.00  0.00    -0.405 A  
HETATM   13  C   UNL     1     -10.060  12.364  65.210  1.00  0.00    -0.285 A  
HETATM   14  C   UNL     1     -10.514  13.676  65.147  1.00  0.00    -0.388 A  
ENDBRANCH   4   6
ENDBRANCH   3   4
ENDBRANCH   2   3
TORSDOF 3
ENDMDL
MODEL       73
REMARK 921   NORMALIZED FREE ENERGY PREDICTED BY IDOCK:   -3.61 KCAL/MOL
REMARK 922        TOTAL FREE ENERGY PREDICTED BY IDOCK:   -4.53 KCAL/MOL
REMARK 923 INTER-LIGAND FREE ENERGY PREDICTED BY IDOCK:   -4.16 KCAL/MOL
REMARK 924 INTRA-LIGAND FREE ENERGY PREDICTED BY IDOCK:   -0.37 KCAL/MOL
REMARK 927      BINDING AFFINITY PREDICTED BY RF-SCORE:    0.00 PKD
ROOT
HETATM    1  C   UNL     1      -7.190  13.624  68.421  1.00  0.00    -0.109 C  
HETATM    2  C   UNL     1      -7.977  14.116  67.656  1.00  0.00    -0.187 C  
ENDROOT
BRANCH   2   3
HETATM    3  C   UNL     1      -8.944  14.611  66.672  1.00  0.00    -0.238 C  
BRANCH   3   4
HETATM    4  N   UNL     1      -9.599  13.504  65.984  1.00  0.00    -0.462 NA 
HETATM    5  H   UNL     1      -9.115  12.625  66.163  1.00  0.00     0.000 HD 
BRANCH   4   6
HETATM    6  C   UNL     1     -11.026  13.396  66.313  1.00  0.00    -0.288 C  
HETATM    7  C   UNL     1     -11.556  14.773  66.791  1.00  0.00    -0.333 C  
HETATM    8  C   UNL     1     -11.827  14.715  68.303  1.00  0.00    -0.333 C  
HETATM    9  C   UNL     1     -11.690  13.265  68.621  1.00  0.00    -0.376 A  
HETATM   10  C   UNL     1     -11.877  12.662  69.856  1.00  0.00    -0.364 A  
HETATM   11  C   UNL     1     -11.690  11.283  69.965  1.00  0.00    -0.428 A  
HETATM   12  C   UNL     1     -11.368  10.522  68.837  1.00  0.00    -0.313 A  
HETATM   13  C   UNL     1     -11.205  11.137  67.595  1.00  0.00    -0.364 A  
HETATM   14  C   UNL     1     -11.312  12.520  67.504  1.00  0.00    -0.368 A  
ENDBRANCH   4   6
ENDBRANCH   3   4
ENDBRANCH   2   3
TORSDOF 3
ENDMDL
MODEL       74
REMARK 921   NORMALIZED FREE ENERGY PREDICTED BY IDOCK:   -3.60 KCAL/MOL
REMARK 922        TOTAL FREE ENERGY PREDICTED BY IDOCK:   -4.53 KCAL/MOL
REMARK 923 INTER-LIGAND FREE ENERGY PREDICTED BY IDOCK:   -4.19 KCAL/MOL
REMARK 924 INTRA-LIGAND FREE ENERGY PREDICTED BY IDOCK:   -0.34 KCAL/MOL
REMARK 927      BINDING AFFINITY PREDICTED BY RF-SCORE:    0.00 PKD
ROOT
HETATM    1  C   UNL     1     -13.397  13.259  71.960  1.00  0.00    -0.582 C  
HETATM    2  C   UNL     1     -13.376  12.059  71.882  1.00  0.00    -0.408 C  
ENDROOT
BRANCH   2   3
HETATM    3  C   UNL     1     -13.417  10.594  71.882  1.00  0.00    -0.238 C  
BRANCH   3   4
HETATM    4  N   UNL     1     -12.943  10.060  70.609  1.00  0.00    -0.570 NA 
HETATM    5  H   UNL     1     -13.594  10.278  69.856  1.00  0.00     0.000 HD 
BRANCH   4   6
HETATM    6  C   UNL     1     -11.584  10.507  70.277  1.00  0.00    -0.332 C  
HETATM    7  C   UNL     1     -11.476  10.756  68.750  1.00  0.00    -0.364 C  
HETATM    8  C   UNL     1     -10.614   9.654  68.116  1.00  0.00    -0.273 C  
HETATM    9  C   UNL     1     -10.042   8.943  69.296  1.00  0.00    -0.205 A  
HETATM   10  C   UNL     1      -9.154   7.878  69.276  1.00  0.00    -0.148 A  
HETATM   11  C   UNL     1      -8.737   7.330  70.491  1.00  0.00    -0.148 A  
HETATM   12  C   UNL     1      -9.174   7.878  71.701  1.00  0.00    -0.180 A  
HETATM   13  C   UNL     1     -10.049   8.964  71.707  1.00  0.00    -0.407 A  
HETATM   14  C   UNL     1     -10.526   9.458  70.499  1.00  0.00    -0.335 A  
ENDBRANCH   4   6
ENDBRANCH   3   4
ENDBRANCH   2   3
TORSDOF 3
ENDMDL
MODEL       75
REMARK 921   NORMALIZED FREE ENERGY PREDICTED BY IDOCK:   -3.60 KCAL/MOL
REMARK 922        TOTAL FREE ENERGY PREDICTED BY IDOCK:   -4.53 KCAL/MOL
REMARK 923 INTER-LIGAND FREE ENERGY PREDICTED BY IDOCK:   -4.19 KCAL/MOL
REMARK 924 INTRA-LIGAND FREE ENERGY PREDICTED BY IDOCK:   -0.33 KCAL/MOL
REMARK 927      BINDING AFFINITY PREDICTED BY RF-SCORE:    0.00 PKD
ROOT
HETATM    1  C   UNL     1      -8.122  10.838  66.273  1.00  0.00    -0.159 C  
HETATM    2  C   UNL     1      -8.146  10.408  67.396  1.00  0.00    -0.107 C  
ENDROOT
BRANCH   2   3
HETATM    3  C   UNL     1      -8.209   9.991  68.799  1.00  0.00    -0.115 C  
BRANCH   3   4
HETATM    4  N   UNL     1      -9.083  10.873  69.566  1.00  0.00    -0.383 NA 
HETATM    5  H   UNL     1      -8.751  11.836  69.531  1.00  0.00     0.000 HD 
BRANCH   4   6
HETATM    6  C   UNL     1     -10.487  10.784  69.147  1.00  0.00    -0.218 C  
HETATM    7  C   UNL     1     -11.082  12.211  69.010  1.00  0.00    -0.290 C  
HETATM    8  C   UNL     1     -12.073  12.459  70.158  1.00  0.00    -0.366 C  
HETATM    9  C   UNL     1     -12.222  11.113  70.781  1.00  0.00    -0.484 A  
HETATM   10  C   UNL     1     -13.043  10.775  71.846  1.00  0.00    -0.557 A  
HETATM   11  C   UNL     1     -13.038   9.456  72.305  1.00  0.00    -0.509 A  
HETATM   12  C   UNL     1     -12.254   8.489  71.668  1.00  0.00    -0.371 A  
HETATM   13  C   UNL     1     -11.449   8.837  70.584  1.00  0.00    -0.263 A  
HETATM   14  C   UNL     1     -11.393  10.166  70.179  1.00  0.00    -0.372 A  
ENDBRANCH   4   6
ENDBRANCH   3   4
ENDBRANCH   2   3
TORSDOF 3
ENDMDL
MODEL       76
REMARK 921   NORMALIZED FREE ENERGY PREDICTED BY IDOCK:   -3.60 KCAL/MOL
REMARK 922        TOTAL FREE ENERGY PREDICTED BY IDOCK:   -4.52 KCAL/MOL
REMARK 923 INTER-LIGAND FREE ENERGY PREDICTED BY IDOCK:   -4.24 KCAL/MOL
REMARK 924 INTRA-LIGAND FREE ENERGY PREDICTED BY IDOCK:   -0.28 KCAL/MOL
REMARK 927      BINDING AFFINITY PREDICTED BY RF-SCORE:    0.00 PKD
ROOT
HETATM    1  C   UNL     1      -6.378  16.030  68.441  1.00  0.00    -0.109 C  
HETATM    2  C   UNL     1      -7.079  16.729  67.758  1.00  0.00    -0.146 C  
ENDROOT
BRANCH   2   3
HETATM    3  C   UNL     1      -7.981  17.622  67.025  1.00  0.00    -0.220 C  
BRANCH   3   4
HETATM    4  N   UNL     1      -8.689  16.898  65.973  1.00  0.00    -0.517 NA 
HETATM    5  H   UNL     1      -8.384  15.927  65.930  1.00  0.00     0.000 HD 
BRANCH   4   6
HETATM    6  C   UNL     1     -10.148  16.987  66.108  1.00  0.00    -0.319 C  
HETATM    7  C   UNL     1     -10.523  17.203  67.598  1.00  0.00    -0.355 C  
HETATM    8  C   UNL     1     -11.159  15.918  68.152  1.00  0.00    -0.338 C  
HETATM    9  C   UNL     1     -11.367  15.084  66.934  1.00  0.00    -0.302 A  
HETATM   10  C   UNL     1     -11.954  13.829  66.874  1.00  0.00    -0.460 A  
HETATM   11  C   UNL     1     -12.051  13.191  65.636  1.00  0.00    -0.501 A  
HETATM   12  C   UNL     1     -11.605  13.831  64.475  1.00  0.00    -0.413 A  
HETATM   13  C   UNL     1     -11.038  15.103  64.545  1.00  0.00    -0.252 A  
HETATM   14  C   UNL     1     -10.869  15.704  65.787  1.00  0.00    -0.312 A  
ENDBRANCH   4   6
ENDBRANCH   3   4
ENDBRANCH   2   3
TORSDOF 3
ENDMDL
MODEL       77
REMARK 921   NORMALIZED FREE ENERGY PREDICTED BY IDOCK:   -3.59 KCAL/MOL
REMARK 922        TOTAL FREE ENERGY PREDICTED BY IDOCK:   -4.52 KCAL/MOL
REMARK 923 INTER-LIGAND FREE ENERGY PREDICTED BY IDOCK:   -4.25 KCAL/MOL
REMARK 924 INTRA-LIGAND FREE ENERGY PREDICTED BY IDOCK:   -0.27 KCAL/MOL
REMARK 927      BINDING AFFINITY PREDICTED BY RF-SCORE:    0.00 PKD
ROOT
HETATM    1  C   UNL     1      -8.654  12.733  66.895  1.00  0.00    -0.140 C  
HETATM    2  C   UNL     1      -9.842  12.560  66.827  1.00  0.00    -0.232 C  
ENDROOT
BRANCH   2   3
HETATM    3  C   UNL     1     -11.271  12.237  66.770  1.00  0.00    -0.318 C  
BRANCH   3   4
HETATM    4  N   UNL     1     -11.558  11.014  67.513  1.00  0.00    -0.543 NA 
HETATM    5  H   UNL     1     -11.386  10.189  66.939  1.00  0.00     0.000 HD 
BRANCH   4   6
HETATM    6  C   UNL     1     -10.824  10.936  68.782  1.00  0.00    -0.209 C  
HETATM    7  C   UNL     1     -10.422   9.464  69.062  1.00  0.00    -0.233 C  
HETATM    8  C   UNL     1     -11.271   8.917  70.219  1.00  0.00    -0.219 C  
HETATM    9  C   UNL     1     -11.959  10.131  70.745  1.00  0.00    -0.442 A  
HETATM   10  C   UNL     1     -12.822  10.196  71.829  1.00  0.00    -0.554 A  
HETATM   11  C   UNL     1     -13.385  11.429  72.166  1.00  0.00    -0.271 A  
HETATM   12  C   UNL     1     -13.045  12.580  71.449  1.00  0.00    -0.303 A  
HETATM   13  C   UNL     1     -12.158  12.506  70.375  1.00  0.00    -0.380 A  
HETATM   14  C   UNL     1     -11.660  11.266  69.991  1.00  0.00    -0.404 A  
ENDBRANCH   4   6
ENDBRANCH   3   4
ENDBRANCH   2   3
TORSDOF 3
ENDMDL
MODEL       78
REMARK 921   NORMALIZED FREE ENERGY PREDICTED BY IDOCK:   -3.59 KCAL/MOL
REMARK 922        TOTAL FREE ENERGY PREDICTED BY IDOCK:   -4.51 KCAL/MOL
REMARK 923 INTER-LIGAND FREE ENERGY PREDICTED BY IDOCK:   -4.14 KCAL/MOL
REMARK 924 INTRA-LIGAND FREE ENERGY PREDICTED BY IDOCK:   -0.37 KCAL/MOL
REMARK 927      BINDING AFFINITY PREDICTED BY RF-SCORE:    0.00 PKD
ROOT
HETATM    1  C   UNL     1      -6.643  15.783  68.300  1.00  0.00    -0.124 C  
HETATM    2  C   UNL     1      -7.227  16.420  67.464  1.00  0.00    -0.171 C  
ENDROOT
BRANCH   2   3
HETATM    3  C   UNL     1      -7.989  17.256  66.532  1.00  0.00    -0.283 C  
BRANCH   3   4
HETATM    4  N   UNL     1      -9.001  16.470  65.835  1.00  0.00    -0.488 NA 
HETATM    5  H   UNL     1      -8.801  15.472  65.904  1.00  0.00     0.000 HD 
BRANCH   4   6
HETATM    6  C   UNL     1     -10.365  16.766  66.293  1.00  0.00    -0.310 C  
HETATM    7  C   UNL     1     -10.329  17.932  67.316  1.00  0.00    -0.374 C  
HETATM    8  C   UNL     1     -10.628  17.384  68.720  1.00  0.00    -0.283 C  
HETATM    9  C   UNL     1     -11.070  15.985  68.456  1.00  0.00    -0.347 A  
HETATM   10  C   UNL     1     -11.499  15.056  69.393  1.00  0.00    -0.320 A  
HETATM   11  C   UNL     1     -11.862  13.781  68.956  1.00  0.00    -0.397 A  
HETATM   12  C   UNL     1     -11.838  13.467  67.594  1.00  0.00    -0.399 A  
HETATM   13  C   UNL     1     -11.428  14.417  66.659  1.00  0.00    -0.372 A  
HETATM   14  C   UNL     1     -10.990  15.660  67.102  1.00  0.00    -0.270 A  
ENDBRANCH   4   6
ENDBRANCH   3   4
ENDBRANCH   2   3
TORSDOF 3
ENDMDL
MODEL       79
REMARK 921   NORMALIZED FREE ENERGY PREDICTED BY IDOCK:   -3.57 KCAL/MOL
REMARK 922        TOTAL FREE ENERGY PREDICTED BY IDOCK:   -4.49 KCAL/MOL
REMARK 923 INTER-LIGAND FREE ENERGY PREDICTED BY IDOCK:   -4.16 KCAL/MOL
REMARK 924 INTRA-LIGAND FREE ENERGY PREDICTED BY IDOCK:   -0.33 KCAL/MOL
REMARK 927      BINDING AFFINITY PREDICTED BY RF-SCORE:    0.00 PKD
ROOT
HETATM    1  C   UNL     1     -12.185  12.864  63.262  1.00  0.00    -0.481 C  
HETATM    2  C   UNL     1     -11.136  12.299  63.428  1.00  0.00    -0.487 C  
ENDROOT
BRANCH   2   3
HETATM    3  C   UNL     1      -9.899  11.524  63.562  1.00  0.00    -0.383 C  
BRANCH   3   4
HETATM    4  N   UNL     1     -10.146  10.265  64.257  1.00  0.00    -0.410 NA 
HETATM    5  H   UNL     1      -9.953   9.469  63.650  1.00  0.00     0.000 HD 
BRANCH   4   6
HETATM    6  C   UNL     1      -9.401  10.158  65.518  1.00  0.00    -0.207 C  
HETATM    7  C   UNL     1      -9.154   8.664  65.853  1.00  0.00    -0.259 C  
HETATM    8  C   UNL     1     -10.036   8.258  67.044  1.00  0.00    -0.353 C  
HETATM    9  C   UNL     1     -10.580   9.559  67.528  1.00  0.00    -0.338 A  
HETATM   10  C   UNL     1     -11.411   9.760  68.620  1.00  0.00     0.024 A  
HETATM   11  C   UNL     1     -11.832  11.059  68.913  1.00  0.00    -0.378 A  
HETATM   12  C   UNL     1     -11.383  12.137  68.145  1.00  0.00    -0.349 A  
HETATM   13  C   UNL     1     -10.529  11.925  67.063  1.00  0.00    -0.253 A  
HETATM   14  C   UNL     1     -10.175  10.625  66.724  1.00  0.00    -0.284 A  
ENDBRANCH   4   6
ENDBRANCH   3   4
ENDBRANCH   2   3
TORSDOF 3
ENDMDL
MODEL       80
REMARK 921   NORMALIZED FREE ENERGY PREDICTED BY IDOCK:   -3.56 KCAL/MOL
REMARK 922        TOTAL FREE ENERGY PREDICTED BY IDOCK:   -4.48 KCAL/MOL
REMARK 923 INTER-LIGAND FREE ENERGY PREDICTED BY IDOCK:   -4.33 KCAL/MOL
REMARK 924 INTRA-LIGAND FREE ENERGY PREDICTED BY IDOCK:   -0.15 KCAL/MOL
REMARK 927      BINDING AFFINITY PREDICTED BY RF-SCORE:    0.00 PKD
ROOT
HETATM    1  C   UNL     1     -12.773  10.885  71.246  1.00  0.00    -0.542 C  
HETATM    2  C   UNL     1     -13.153   9.818  71.651  1.00  0.00    -0.516 C  
ENDROOT
BRANCH   2   3
HETATM    3  C   UNL     1     -13.707   8.528  72.073  1.00  0.00    -0.403 C  
BRANCH   3   4
HETATM    4  N   UNL     1     -13.284   7.460  71.173  1.00  0.00    -0.585 NA 
HETATM    5  H   UNL     1     -13.072   7.827  70.245  1.00  0.00     0.000 HD 
BRANCH   4   6
HETATM    6  C   UNL     1     -12.157   6.684  71.703  1.00  0.00    -0.355 C  
HETATM    7  C   UNL     1     -11.555   7.413  72.933  1.00  0.00    -0.200 C  
HETATM    8  C   UNL     1     -10.185   7.998  72.556  1.00  0.00    -0.361 C  
HETATM    9  C   UNL     1      -9.911   7.396  71.219  1.00  0.00    -0.182 A  
HETATM   10  C   UNL     1      -8.773   7.570  70.446  1.00  0.00    -0.144 A  
HETATM   11  C   UNL     1      -8.701   6.932  69.205  1.00  0.00    -0.135 A  
HETATM   12  C   UNL     1      -9.739   6.099  68.778  1.00  0.00    -0.148 A  
HETATM   13  C   UNL     1     -10.869   5.914  69.575  1.00  0.00    -0.442 A  
HETATM   14  C   UNL     1     -10.975   6.612  70.773  1.00  0.00    -0.318 A  
ENDBRANCH   4   6
ENDBRANCH   3   4
ENDBRANCH   2   3
TORSDOF 3
ENDMDL
MODEL       81
REMARK 921   NORMALIZED FREE ENERGY PREDICTED BY IDOCK:   -3.55 KCAL/MOL
REMARK 922        TOTAL FREE ENERGY PREDICTED BY IDOCK:   -4.46 KCAL/MOL
REMARK 923 INTER-LIGAND FREE ENERGY PREDICTED BY IDOCK:   -4.05 KCAL/MOL
REMARK 924 INTRA-LIGAND FREE ENERGY PREDICTED BY IDOCK:   -0.41 KCAL/MOL
REMARK 927      BINDING AFFINITY PREDICTED BY RF-SCORE:    0.00 PKD
ROOT
HETATM    1  C   UNL     1     -10.256  20.158  67.087  1.00  0.00    -0.554 C  
HETATM    2  C   UNL     1      -9.224  19.732  66.641  1.00  0.00    -0.467 C  
ENDROOT
BRANCH   2   3
HETATM    3  C   UNL     1      -7.951  19.317  66.044  1.00  0.00    -0.243 C  
BRANCH   3   4
HETATM    4  N   UNL     1      -7.901  17.868  65.879  1.00  0.00    -0.545 NA 
HETATM    5  H   UNL     1      -6.996  17.573  65.514  1.00  0.00     0.000 HD 
BRANCH   4   6
HETATM    6  C   UNL     1      -8.233  17.145  67.113  1.00  0.00    -0.192 C  
HETATM    7  C   UNL     1      -6.965  16.440  67.661  1.00  0.00    -0.157 C  
HETATM    8  C   UNL     1      -7.099  14.923  67.456  1.00  0.00    -0.215 C  
HETATM    9  C   UNL     1      -8.519  14.757  67.031  1.00  0.00    -0.250 A  
HETATM   10  C   UNL     1      -9.172  13.566  66.755  1.00  0.00    -0.248 A  
HETATM   11  C   UNL     1     -10.510  13.611  66.354  1.00  0.00    -0.288 A  
HETATM   12  C   UNL     1     -11.185  14.833  66.282  1.00  0.00    -0.343 A  
HETATM   13  C   UNL     1     -10.523  16.023  66.585  1.00  0.00    -0.304 A  
HETATM   14  C   UNL     1      -9.171  15.985  66.905  1.00  0.00    -0.244 A  
ENDBRANCH   4   6
ENDBRANCH   3   4
ENDBRANCH   2   3
TORSDOF 3
ENDMDL
MODEL       82
REMARK 921   NORMALIZED FREE ENERGY PREDICTED BY IDOCK:   -3.54 KCAL/MOL
REMARK 922        TOTAL FREE ENERGY PREDICTED BY IDOCK:   -4.45 KCAL/MOL
REMARK 923 INTER-LIGAND FREE ENERGY PREDICTED BY IDOCK:   -4.08 KCAL/MOL
REMARK 924 INTRA-LIGAND FREE ENERGY PREDICTED BY IDOCK:   -0.37 KCAL/MOL
REMARK 927      BINDING AFFINITY PREDICTED BY RF-SCORE:    0.00 PKD
ROOT
HETATM    1  C   UNL     1     -11.258  10.444  69.530  1.00  0.00    -0.325 C  
HETATM    2  C   UNL     1     -11.588   9.830  70.510  1.00  0.00    -0.365 C  
ENDROOT
BRANCH   2   3
HETATM    3  C   UNL     1     -12.078   9.159  71.717  1.00  0.00    -0.376 C  
BRANCH   3   4
HETATM    4  N   UNL     1     -11.205   8.049  72.087  1.00  0.00    -0.295 NA 
HETATM    5  H   UNL     1     -10.981   8.076  73.081  1.00  0.00     0.000 HD 
BRANCH   4   6
HETATM    6  C   UNL     1     -11.756   6.742  71.706  1.00  0.00    -0.312 C  
HETATM    7  C   UNL     1     -11.407   5.693  72.794  1.00  0.00    -0.350 C  
HETATM    8  C   UNL     1     -10.347   4.726  72.244  1.00  0.00    -0.264 C  
HETATM    9  C   UNL     1     -10.286   5.071  70.794  1.00  0.00    -0.265 A  
HETATM   10  C   UNL     1      -9.506   4.459  69.825  1.00  0.00    -0.254 A  
HETATM   11  C   UNL     1      -9.572   4.932  68.513  1.00  0.00    -0.210 A  
HETATM   12  C   UNL     1     -10.446   5.971  68.180  1.00  0.00    -0.292 A  
HETATM   13  C   UNL     1     -11.244   6.563  69.160  1.00  0.00    -0.367 A  
HETATM   14  C   UNL     1     -11.118   6.146  70.480  1.00  0.00    -0.405 A  
ENDBRANCH   4   6
ENDBRANCH   3   4
ENDBRANCH   2   3
TORSDOF 3
ENDMDL
MODEL       83
REMARK 921   NORMALIZED FREE ENERGY PREDICTED BY IDOCK:   -3.54 KCAL/MOL
REMARK 922        TOTAL FREE ENERGY PREDICTED BY IDOCK:   -4.45 KCAL/MOL
REMARK 923 INTER-LIGAND FREE ENERGY PREDICTED BY IDOCK:   -4.30 KCAL/MOL
REMARK 924 INTRA-LIGAND FREE ENERGY PREDICTED BY IDOCK:   -0.14 KCAL/MOL
REMARK 927      BINDING AFFINITY PREDICTED BY RF-SCORE:    0.00 PKD
ROOT
HETATM    1  C   UNL     1     -13.455  14.540  71.811  1.00  0.00    -0.458 C  
HETATM    2  C   UNL     1     -12.941  14.856  70.770  1.00  0.00    -0.418 C  
ENDROOT
BRANCH   2   3
HETATM    3  C   UNL     1     -12.251  15.143  69.510  1.00  0.00    -0.233 C  
BRANCH   3   4
HETATM    4  N   UNL     1     -12.106  13.933  68.708  1.00  0.00    -0.440 NA 
HETATM    5  H   UNL     1     -13.003  13.462  68.592  1.00  0.00     0.000 HD 
BRANCH   4   6
HETATM    6  C   UNL     1     -11.472  14.185  67.408  1.00  0.00    -0.345 C  
HETATM    7  C   UNL     1     -12.532  14.077  66.281  1.00  0.00    -0.439 C  
HETATM    8  C   UNL     1     -12.281  12.796  65.470  1.00  0.00    -0.519 C  
HETATM    9  C   UNL     1     -10.958  12.325  65.972  1.00  0.00    -0.327 A  
HETATM   10  C   UNL     1     -10.249  11.217  65.535  1.00  0.00    -0.319 A  
HETATM   11  C   UNL     1      -9.024  10.923  66.139  1.00  0.00    -0.196 A  
HETATM   12  C   UNL     1      -8.507  11.761  67.131  1.00  0.00    -0.170 A  
HETATM   13  C   UNL     1      -9.219  12.886  67.546  1.00  0.00    -0.192 A  
HETATM   14  C   UNL     1     -10.474  13.133  67.001  1.00  0.00    -0.248 A  
ENDBRANCH   4   6
ENDBRANCH   3   4
ENDBRANCH   2   3
TORSDOF 3
ENDMDL
MODEL       84
REMARK 921   NORMALIZED FREE ENERGY PREDICTED BY IDOCK:   -3.53 KCAL/MOL
REMARK 922        TOTAL FREE ENERGY PREDICTED BY IDOCK:   -4.44 KCAL/MOL
REMARK 923 INTER-LIGAND FREE ENERGY PREDICTED BY IDOCK:   -4.14 KCAL/MOL
REMARK 924 INTRA-LIGAND FREE ENERGY PREDICTED BY IDOCK:   -0.30 KCAL/MOL
REMARK 927      BINDING AFFINITY PREDICTED BY RF-SCORE:    0.00 PKD
ROOT
HETATM    1  C   UNL     1     -11.706  12.363  66.638  1.00  0.00    -0.438 C  
HETATM    2  C   UNL     1     -11.636  13.180  67.517  1.00  0.00    -0.398 C  
ENDROOT
BRANCH   2   3
HETATM    3  C   UNL     1     -11.435  14.154  68.594  1.00  0.00    -0.299 C  
BRANCH   3   4
HETATM    4  N   UNL     1     -10.163  14.851  68.435  1.00  0.00    -0.226 NA 
HETATM    5  H   UNL     1      -9.379  14.223  68.606  1.00  0.00     0.000 HD 
BRANCH   4   6
HETATM    6  C   UNL     1     -10.037  15.510  67.129  1.00  0.00    -0.254 C  
HETATM    7  C   UNL     1      -8.693  15.103  66.468  1.00  0.00    -0.280 C  
HETATM    8  C   UNL     1      -7.735  16.303  66.486  1.00  0.00    -0.260 C  
HETATM    9  C   UNL     1      -8.606  17.433  66.920  1.00  0.00    -0.270 A  
HETATM   10  C   UNL     1      -8.237  18.762  67.062  1.00  0.00    -0.271 A  
HETATM   11  C   UNL     1      -9.195  19.682  67.496  1.00  0.00    -0.409 A  
HETATM   12  C   UNL     1     -10.510  19.272  67.735  1.00  0.00    -0.539 A  
HETATM   13  C   UNL     1     -10.874  17.936  67.567  1.00  0.00    -0.239 A  
HETATM   14  C   UNL     1      -9.902  17.008  67.213  1.00  0.00    -0.260 A  
ENDBRANCH   4   6
ENDBRANCH   3   4
ENDBRANCH   2   3
TORSDOF 3
ENDMDL
MODEL       85
REMARK 921   NORMALIZED FREE ENERGY PREDICTED BY IDOCK:   -3.53 KCAL/MOL
REMARK 922        TOTAL FREE ENERGY PREDICTED BY IDOCK:   -4.44 KCAL/MOL
REMARK 923 INTER-LIGAND FREE ENERGY PREDICTED BY IDOCK:   -4.23 KCAL/MOL
REMARK 924 INTRA-LIGAND FREE ENERGY PREDICTED BY IDOCK:   -0.20 KCAL/MOL
REMARK 927      BINDING AFFINITY PREDICTED BY RF-SCORE:    0.00 PKD
ROOT
HETATM    1  C   UNL     1      -9.431  11.210  66.184  1.00  0.00    -0.229 C  
HETATM    2  C   UNL     1      -9.801  12.342  66.019  1.00  0.00    -0.268 C  
ENDROOT
BRANCH   2   3
HETATM    3  C   UNL     1     -10.289  13.721  65.931  1.00  0.00    -0.309 C  
BRANCH   3   4
HETATM    4  N   UNL     1     -10.037  14.444  67.173  1.00  0.00    -0.251 NA 
HETATM    5  H   UNL     1      -9.179  14.992  67.109  1.00  0.00     0.000 HD 
BRANCH   4   6
HETATM    6  C   UNL     1     -11.169  15.284  67.581  1.00  0.00    -0.320 C  
HETATM    7  C   UNL     1     -10.717  16.766  67.659  1.00  0.00    -0.305 C  
HETATM    8  C   UNL     1     -10.652  17.199  69.132  1.00  0.00    -0.259 C  
HETATM    9  C   UNL     1     -11.294  16.062  69.854  1.00  0.00    -0.340 A  
HETATM   10  C   UNL     1     -11.526  15.966  71.217  1.00  0.00    -0.489 A  
HETATM   11  C   UNL     1     -12.131  14.810  71.716  1.00  0.00    -0.417 A  
HETATM   12  C   UNL     1     -12.536  13.794  70.845  1.00  0.00    -0.428 A  
HETATM   13  C   UNL     1     -12.319  13.913  69.472  1.00  0.00    -0.275 A  
HETATM   14  C   UNL     1     -11.644  15.027  68.987  1.00  0.00    -0.342 A  
ENDBRANCH   4   6
ENDBRANCH   3   4
ENDBRANCH   2   3
TORSDOF 3
ENDMDL
MODEL       86
REMARK 921   NORMALIZED FREE ENERGY PREDICTED BY IDOCK:   -3.51 KCAL/MOL
REMARK 922        TOTAL FREE ENERGY PREDICTED BY IDOCK:   -4.42 KCAL/MOL
REMARK 923 INTER-LIGAND FREE ENERGY PREDICTED BY IDOCK:   -4.10 KCAL/MOL
REMARK 924 INTRA-LIGAND FREE ENERGY PREDICTED BY IDOCK:   -0.33 KCAL/MOL
REMARK 927      BINDING AFFINITY PREDICTED BY RF-SCORE:    0.00 PKD
ROOT
HETATM    1  C   UNL     1      -7.315   5.506  72.018  1.00  0.00    -0.093 C  
HETATM    2  C   UNL     1      -7.805   6.483  72.522  1.00  0.00    -0.103 C  
ENDROOT
BRANCH   2   3
HETATM    3  C   UNL     1      -8.363   7.632  73.240  1.00  0.00    -0.147 C  
BRANCH   3   4
HETATM    4  N   UNL     1      -8.570   8.759  72.337  1.00  0.00    -0.406 NA 
HETATM    5  H   UNL     1      -7.680   9.130  72.005  1.00  0.00     0.000 HD 
BRANCH   4   6
HETATM    6  C   UNL     1      -9.456   8.431  71.213  1.00  0.00    -0.186 C  
HETATM    7  C   UNL     1      -9.045   9.257  69.966  1.00  0.00    -0.229 C  
HETATM    8  C   UNL     1     -10.107  10.334  69.697  1.00  0.00    -0.257 C  
HETATM    9  C   UNL     1     -11.216   9.961  70.621  1.00  0.00    -0.416 A  
HETATM   10  C   UNL     1     -12.444  10.593  70.747  1.00  0.00    -0.480 A  
HETATM   11  C   UNL     1     -13.358  10.105  71.684  1.00  0.00    -0.463 A  
HETATM   12  C   UNL     1     -13.054   8.971  72.443  1.00  0.00    -0.487 A  
HETATM   13  C   UNL     1     -11.825   8.329  72.290  1.00  0.00    -0.451 A  
HETATM   14  C   UNL     1     -10.885   8.863  71.416  1.00  0.00    -0.378 A  
ENDBRANCH   4   6
ENDBRANCH   3   4
ENDBRANCH   2   3
TORSDOF 3
ENDMDL
MODEL       87
REMARK 921   NORMALIZED FREE ENERGY PREDICTED BY IDOCK:   -3.49 KCAL/MOL
REMARK 922        TOTAL FREE ENERGY PREDICTED BY IDOCK:   -4.40 KCAL/MOL
REMARK 923 INTER-LIGAND FREE ENERGY PREDICTED BY IDOCK:   -4.25 KCAL/MOL
REMARK 924 INTRA-LIGAND FREE ENERGY PREDICTED BY IDOCK:   -0.14 KCAL/MOL
REMARK 927      BINDING AFFINITY PREDICTED BY RF-SCORE:    0.00 PKD
ROOT
HETATM    1  C   UNL     1     -11.862  13.208  66.367  1.00  0.00    -0.455 C  
HETATM    2  C   UNL     1     -11.595  14.249  65.827  1.00  0.00    -0.346 C  
ENDROOT
BRANCH   2   3
HETATM    3  C   UNL     1     -11.313  15.572  65.263  1.00  0.00    -0.189 C  
BRANCH   3   4
HETATM    4  N   UNL     1      -9.883  15.858  65.295  1.00  0.00    -0.400 NA 
HETATM    5  H   UNL     1      -9.610  16.444  64.507  1.00  0.00     0.000 HD 
BRANCH   4   6
HETATM    6  C   UNL     1      -9.450  16.451  66.567  1.00  0.00    -0.272 C  
HETATM    7  C   UNL     1     -10.653  17.155  67.249  1.00  0.00    -0.270 C  
HETATM    8  C   UNL     1     -10.461  18.677  67.173  1.00  0.00    -0.461 C  
HETATM    9  C   UNL     1      -9.060  18.823  66.682  1.00  0.00    -0.323 A  
HETATM   10  C   UNL     1      -8.369  20.007  66.475  1.00  0.00    -0.353 A  
HETATM   11  C   UNL     1      -7.059  19.945  65.994  1.00  0.00    -0.301 A  
HETATM   12  C   UNL     1      -6.446  18.708  65.773  1.00  0.00    -0.296 A  
HETATM   13  C   UNL     1      -7.144  17.523  66.007  1.00  0.00    -0.299 A  
HETATM   14  C   UNL     1      -8.473  17.587  66.409  1.00  0.00    -0.287 A  
ENDBRANCH   4   6
ENDBRANCH   3   4
ENDBRANCH   2   3
TORSDOF 3
ENDMDL
MODEL       88
REMARK 921   NORMALIZED FREE ENERGY PREDICTED BY IDOCK:   -3.48 KCAL/MOL
REMARK 922        TOTAL FREE ENERGY PREDICTED BY IDOCK:   -4.38 KCAL/MOL
REMARK 923 INTER-LIGAND FREE ENERGY PREDICTED BY IDOCK:   -4.08 KCAL/MOL
REMARK 924 INTRA-LIGAND FREE ENERGY PREDICTED BY IDOCK:   -0.30 KCAL/MOL
REMARK 927      BINDING AFFINITY PREDICTED BY RF-SCORE:    0.00 PKD
ROOT
HETATM    1  C   UNL     1      -5.981  12.682  67.521  1.00  0.00    -0.151 C  
HETATM    2  C   UNL     1      -6.762  11.808  67.250  1.00  0.00    -0.133 C  
ENDROOT
BRANCH   2   3
HETATM    3  C   UNL     1      -7.775  10.824  66.861  1.00  0.00    -0.130 C  
BRANCH   3   4
HETATM    4  N   UNL     1      -9.098  11.225  67.327  1.00  0.00    -0.154 NA 
HETATM    5  H   UNL     1      -9.157  11.176  68.344  1.00  0.00     0.000 HD 
BRANCH   4   6
HETATM    6  C   UNL     1      -9.492  12.553  66.840  1.00  0.00    -0.219 C  
HETATM    7  C   UNL     1     -10.461  13.215  67.855  1.00  0.00    -0.245 C  
HETATM    8  C   UNL     1     -11.877  13.245  67.259  1.00  0.00    -0.421 C  
HETATM    9  C   UNL     1     -11.662  12.839  65.840  1.00  0.00    -0.464 A  
HETATM   10  C   UNL     1     -12.623  12.745  64.846  1.00  0.00    -0.541 A  
HETATM   11  C   UNL     1     -12.232  12.331  63.571  1.00  0.00    -0.669 A  
HETATM   12  C   UNL     1     -10.888  12.065  63.296  1.00  0.00    -0.400 A  
HETATM   13  C   UNL     1      -9.926  12.186  64.299  1.00  0.00    -0.262 A  
HETATM   14  C   UNL     1     -10.327  12.520  65.587  1.00  0.00    -0.294 A  
ENDBRANCH   4   6
ENDBRANCH   3   4
ENDBRANCH   2   3
TORSDOF 3
ENDMDL
MODEL       89
REMARK 921   NORMALIZED FREE ENERGY PREDICTED BY IDOCK:   -3.47 KCAL/MOL
REMARK 922        TOTAL FREE ENERGY PREDICTED BY IDOCK:   -4.37 KCAL/MOL
REMARK 923 INTER-LIGAND FREE ENERGY PREDICTED BY IDOCK:   -4.09 KCAL/MOL
REMARK 924 INTRA-LIGAND FREE ENERGY PREDICTED BY IDOCK:   -0.28 KCAL/MOL
REMARK 927      BINDING AFFINITY PREDICTED BY RF-SCORE:    0.00 PKD
ROOT
HETATM    1  C   UNL     1      -8.805  15.582  66.313  1.00  0.00    -0.338 C  
HETATM    2  C   UNL     1      -8.627  14.494  66.794  1.00  0.00    -0.163 C  
ENDROOT
BRANCH   2   3
HETATM    3  C   UNL     1      -8.381  13.131  67.272  1.00  0.00    -0.179 C  
BRANCH   3   4
HETATM    4  N   UNL     1      -9.568  12.585  67.921  1.00  0.00    -0.199 NA 
HETATM    5  H   UNL     1     -10.264  13.312  68.081  1.00  0.00     0.000 HD 
BRANCH   4   6
HETATM    6  C   UNL     1     -10.147  11.453  67.186  1.00  0.00    -0.198 C  
HETATM    7  C   UNL     1      -9.011  10.529  66.673  1.00  0.00    -0.155 C  
HETATM    8  C   UNL     1      -8.891  10.672  65.148  1.00  0.00    -0.207 C  
HETATM    9  C   UNL     1     -10.097  11.469  64.781  1.00  0.00    -0.316 A  
HETATM   10  C   UNL     1     -10.489  11.846  63.506  1.00  0.00    -0.505 A  
HETATM   11  C   UNL     1     -11.650  12.609  63.358  1.00  0.00    -0.536 A  
HETATM   12  C   UNL     1     -12.423  12.941  64.475  1.00  0.00    -0.468 A  
HETATM   13  C   UNL     1     -12.030  12.536  65.750  1.00  0.00    -0.482 A  
HETATM   14  C   UNL     1     -10.833  11.846  65.904  1.00  0.00    -0.342 A  
ENDBRANCH   4   6
ENDBRANCH   3   4
ENDBRANCH   2   3
TORSDOF 3
ENDMDL
MODEL       90
REMARK 921   NORMALIZED FREE ENERGY PREDICTED BY IDOCK:   -3.47 KCAL/MOL
REMARK 922        TOTAL FREE ENERGY PREDICTED BY IDOCK:   -4.37 KCAL/MOL
REMARK 923 INTER-LIGAND FREE ENERGY PREDICTED BY IDOCK:   -4.27 KCAL/MOL
REMARK 924 INTRA-LIGAND FREE ENERGY PREDICTED BY IDOCK:   -0.09 KCAL/MOL
REMARK 927      BINDING AFFINITY PREDICTED BY RF-SCORE:    0.00 PKD
ROOT
HETATM    1  C   UNL     1      -7.725  18.856  68.798  1.00  0.00    -0.366 C  
HETATM    2  C   UNL     1      -8.864  19.161  68.560  1.00  0.00    -0.406 C  
ENDROOT
BRANCH   2   3
HETATM    3  C   UNL     1     -10.241  19.474  68.168  1.00  0.00    -0.444 C  
BRANCH   3   4
HETATM    4  N   UNL     1     -11.127  18.345  68.429  1.00  0.00     0.001 NA 
HETATM    5  H   UNL     1     -11.848  18.272  67.711  1.00  0.00     0.000 HD 
BRANCH   4   6
HETATM    6  C   UNL     1     -10.402  17.077  68.578  1.00  0.00    -0.359 C  
HETATM    7  C   UNL     1     -10.510  16.257  67.265  1.00  0.00    -0.300 C  
HETATM    8  C   UNL     1     -11.437  15.053  67.494  1.00  0.00    -0.339 C  
HETATM    9  C   UNL     1     -11.644  15.055  68.971  1.00  0.00    -0.342 A  
HETATM   10  C   UNL     1     -12.379  14.139  69.710  1.00  0.00    -0.350 A  
HETATM   11  C   UNL     1     -12.472  14.313  71.092  1.00  0.00    -0.433 A  
HETATM   12  C   UNL     1     -11.796  15.364  71.719  1.00  0.00    -0.483 A  
HETATM   13  C   UNL     1     -11.042  16.265  70.968  1.00  0.00    -0.105 A  
HETATM   14  C   UNL     1     -11.015  16.138  69.584  1.00  0.00    -0.346 A  
ENDBRANCH   4   6
ENDBRANCH   3   4
ENDBRANCH   2   3
TORSDOF 3
ENDMDL
MODEL       91
REMARK 921   NORMALIZED FREE ENERGY PREDICTED BY IDOCK:   -3.46 KCAL/MOL
REMARK 922        TOTAL FREE ENERGY PREDICTED BY IDOCK:   -4.36 KCAL/MOL
REMARK 923 INTER-LIGAND FREE ENERGY PREDICTED BY IDOCK:   -4.13 KCAL/MOL
REMARK 924 INTRA-LIGAND FREE ENERGY PREDICTED BY IDOCK:   -0.23 KCAL/MOL
REMARK 927      BINDING AFFINITY PREDICTED BY RF-SCORE:    0.00 PKD
ROOT
HETATM    1  C   UNL     1      -6.651  10.555  69.582  1.00  0.00    -0.098 C  
HETATM    2  C   UNL     1      -7.832  10.448  69.380  1.00  0.00    -0.163 C  
ENDROOT
BRANCH   2   3
HETATM    3  C   UNL     1      -9.251  10.207  69.102  1.00  0.00    -0.197 C  
BRANCH   3   4
HETATM    4  N   UNL     1      -9.803  11.263  68.259  1.00  0.00    -0.190 NA 
HETATM    5  H   UNL     1      -9.061  11.775  67.782  1.00  0.00     0.000 HD 
BRANCH   4   6
HETATM    6  C   UNL     1     -10.797  10.763  67.301  1.00  0.00    -0.288 C  
HETATM    7  C   UNL     1     -10.156   9.669  66.407  1.00  0.00    -0.317 C  
HETATM    8  C   UNL     1      -9.962  10.223  64.988  1.00  0.00    -0.393 C  
HETATM    9  C   UNL     1     -10.707  11.515  65.018  1.00  0.00    -0.350 A  
HETATM   10  C   UNL     1     -10.881  12.401  63.965  1.00  0.00    -0.441 A  
HETATM   11  C   UNL     1     -11.603  13.575  64.189  1.00  0.00    -0.415 A  
HETATM   12  C   UNL     1     -12.178  13.824  65.438  1.00  0.00    -0.465 A  
HETATM   13  C   UNL     1     -12.016  12.913  66.483  1.00  0.00    -0.447 A  
HETATM   14  C   UNL     1     -11.230  11.785  66.283  1.00  0.00    -0.370 A  
ENDBRANCH   4   6
ENDBRANCH   3   4
ENDBRANCH   2   3
TORSDOF 3
ENDMDL
MODEL       92
REMARK 921   NORMALIZED FREE ENERGY PREDICTED BY IDOCK:   -3.46 KCAL/MOL
REMARK 922        TOTAL FREE ENERGY PREDICTED BY IDOCK:   -4.36 KCAL/MOL
REMARK 923 INTER-LIGAND FREE ENERGY PREDICTED BY IDOCK:   -4.11 KCAL/MOL
REMARK 924 INTRA-LIGAND FREE ENERGY PREDICTED BY IDOCK:   -0.25 KCAL/MOL
REMARK 927      BINDING AFFINITY PREDICTED BY RF-SCORE:    0.00 PKD
ROOT
HETATM    1  C   UNL     1      -7.859  15.316  69.399  1.00  0.00    -0.227 C  
HETATM    2  C   UNL     1      -8.308  15.643  68.332  1.00  0.00    -0.162 C  
ENDROOT
BRANCH   2   3
HETATM    3  C   UNL     1      -8.938  15.959  67.047  1.00  0.00    -0.217 C  
BRANCH   3   4
HETATM    4  N   UNL     1      -8.893  14.810  66.148  1.00  0.00    -0.454 NA 
HETATM    5  H   UNL     1      -7.938  14.467  66.041  1.00  0.00     0.000 HD 
BRANCH   4   6
HETATM    6  C   UNL     1      -9.797  13.730  66.562  1.00  0.00    -0.290 C  
HETATM    7  C   UNL     1      -8.970  12.472  66.936  1.00  0.00    -0.212 C  
HETATM    8  C   UNL     1      -9.165  11.397  65.855  1.00  0.00    -0.231 C  
HETATM    9  C   UNL     1     -10.274  11.945  65.022  1.00  0.00    -0.316 A  
HETATM   10  C   UNL     1     -10.868  11.339  63.925  1.00  0.00    -0.427 A  
HETATM   11  C   UNL     1     -11.891  12.016  63.257  1.00  0.00    -0.450 A  
HETATM   12  C   UNL     1     -12.335  13.259  63.719  1.00  0.00    -0.440 A  
HETATM   13  C   UNL     1     -11.744  13.847  64.837  1.00  0.00    -0.378 A  
HETATM   14  C   UNL     1     -10.673  13.210  65.453  1.00  0.00    -0.308 A  
ENDBRANCH   4   6
ENDBRANCH   3   4
ENDBRANCH   2   3
TORSDOF 3
ENDMDL
MODEL       93
REMARK 921   NORMALIZED FREE ENERGY PREDICTED BY IDOCK:   -3.46 KCAL/MOL
REMARK 922        TOTAL FREE ENERGY PREDICTED BY IDOCK:   -4.35 KCAL/MOL
REMARK 923 INTER-LIGAND FREE ENERGY PREDICTED BY IDOCK:   -4.10 KCAL/MOL
REMARK 924 INTRA-LIGAND FREE ENERGY PREDICTED BY IDOCK:   -0.26 KCAL/MOL
REMARK 927      BINDING AFFINITY PREDICTED BY RF-SCORE:    0.00 PKD
ROOT
HETATM    1  C   UNL     1     -12.934  12.054  71.186  1.00  0.00    -0.252 C  
HETATM    2  C   UNL     1     -12.169  11.393  70.533  1.00  0.00    -0.478 C  
ENDROOT
BRANCH   2   3
HETATM    3  C   UNL     1     -11.294  10.626  69.643  1.00  0.00    -0.294 C  
BRANCH   3   4
HETATM    4  N   UNL     1     -11.590   9.199  69.725  1.00  0.00    -0.426 NA 
HETATM    5  H   UNL     1     -12.087   8.881  68.893  1.00  0.00     0.000 HD 
BRANCH   4   6
HETATM    6  C   UNL     1     -10.393   8.384  69.967  1.00  0.00    -0.211 C  
HETATM    7  C   UNL     1     -10.336   7.222  68.941  1.00  0.00    -0.207 C  
HETATM    8  C   UNL     1     -10.641   5.898  69.658  1.00  0.00    -0.383 C  
HETATM    9  C   UNL     1     -10.620   6.274  71.101  1.00  0.00    -0.289 A  
HETATM   10  C   UNL     1     -10.799   5.429  72.185  1.00  0.00    -0.275 A  
HETATM   11  C   UNL     1     -10.760   5.970  73.472  1.00  0.00    -0.270 A  
HETATM   12  C   UNL     1     -10.498   7.330  73.658  1.00  0.00    -0.391 A  
HETATM   13  C   UNL     1     -10.297   8.167  72.561  1.00  0.00    -0.401 A  
HETATM   14  C   UNL     1     -10.415   7.643  71.278  1.00  0.00    -0.223 A  
ENDBRANCH   4   6
ENDBRANCH   3   4
ENDBRANCH   2   3
TORSDOF 3
ENDMDL
MODEL       94
REMARK 921   NORMALIZED FREE ENERGY PREDICTED BY IDOCK:   -3.46 KCAL/MOL
REMARK 922        TOTAL FREE ENERGY PREDICTED BY IDOCK:   -4.35 KCAL/MOL
REMARK 923 INTER-LIGAND FREE ENERGY PREDICTED BY IDOCK:   -4.70 KCAL/MOL
REMARK 924 INTRA-LIGAND FREE ENERGY PREDICTED BY IDOCK:    0.34 KCAL/MOL
REMARK 927      BINDING AFFINITY PREDICTED BY RF-SCORE:    0.00 PKD
ROOT
HETATM    1  C   UNL     1     -12.854  12.845  71.572  1.00  0.00    -0.380 C  
HETATM    2  C   UNL     1     -12.494  13.358  70.545  1.00  0.00    -0.350 C  
ENDROOT
BRANCH   2   3
HETATM    3  C   UNL     1     -11.968  14.033  69.355  1.00  0.00    -0.343 C  
BRANCH   3   4
HETATM    4  N   UNL     1     -10.521  14.199  69.447  1.00  0.00    -0.435 NA 
HETATM    5  H   UNL     1     -10.156  13.754  70.289  1.00  0.00     0.000 HD 
BRANCH   4   6
HETATM    6  C   UNL     1      -9.817  13.720  68.251  1.00  0.00    -0.232 C  
HETATM    7  C   UNL     1      -8.594  14.630  67.967  1.00  0.00    -0.162 C  
HETATM    8  C   UNL     1      -8.874  15.482  66.719  1.00  0.00    -0.297 C  
HETATM    9  C   UNL     1     -10.123  14.883  66.167  1.00  0.00    -0.316 A  
HETATM   10  C   UNL     1     -10.787  15.260  65.009  1.00  0.00    -0.457 A  
HETATM   11  C   UNL     1     -11.959  14.587  64.658  1.00  0.00    -0.478 A  
HETATM   12  C   UNL     1     -12.423  13.523  65.437  1.00  0.00    -0.540 A  
HETATM   13  C   UNL     1     -11.734  13.138  66.587  1.00  0.00    -0.427 A  
HETATM   14  C   UNL     1     -10.613  13.860  66.979  1.00  0.00    -0.279 A  
ENDBRANCH   4   6
ENDBRANCH   3   4
ENDBRANCH   2   3
TORSDOF 3
ENDMDL
MODEL       95
REMARK 921   NORMALIZED FREE ENERGY PREDICTED BY IDOCK:   -3.45 KCAL/MOL
REMARK 922        TOTAL FREE ENERGY PREDICTED BY IDOCK:   -4.35 KCAL/MOL
REMARK 923 INTER-LIGAND FREE ENERGY PREDICTED BY IDOCK:   -4.08 KCAL/MOL
REMARK 924 INTRA-LIGAND FREE ENERGY PREDICTED BY IDOCK:   -0.27 KCAL/MOL
REMARK 927      BINDING AFFINITY PREDICTED BY RF-SCORE:    0.00 PKD
ROOT
HETATM    1  C   UNL     1      -7.154  10.072  68.449  1.00  0.00    -0.072 C  
HETATM    2  C   UNL     1      -8.331   9.961  68.673  1.00  0.00    -0.110 C  
ENDROOT
BRANCH   2   3
HETATM    3  C   UNL     1      -9.750   9.709  68.941  1.00  0.00    -0.162 C  
BRANCH   3   4
HETATM    4  N   UNL     1     -10.325  10.777  69.751  1.00  0.00    -0.445 NA 
HETATM    5  H   UNL     1      -9.647  11.524  69.905  1.00  0.00     0.000 HD 
BRANCH   4   6
HETATM    6  C   UNL     1     -11.574  11.307  69.190  1.00  0.00    -0.319 C  
HETATM    7  C   UNL     1     -11.513  11.252  67.640  1.00  0.00    -0.341 C  
HETATM    8  C   UNL     1     -11.372  12.679  67.088  1.00  0.00    -0.373 C  
HETATM    9  C   UNL     1     -11.601  13.536  68.287  1.00  0.00    -0.381 A  
HETATM   10  C   UNL     1     -11.623  14.922  68.328  1.00  0.00    -0.356 A  
HETATM   11  C   UNL     1     -11.840  15.555  69.554  1.00  0.00    -0.390 A  
HETATM   12  C   UNL     1     -12.078  14.799  70.706  1.00  0.00    -0.374 A  
HETATM   13  C   UNL     1     -12.077  13.405  70.647  1.00  0.00    -0.374 A  
HETATM   14  C   UNL     1     -11.781  12.777  69.443  1.00  0.00    -0.380 A  
ENDBRANCH   4   6
ENDBRANCH   3   4
ENDBRANCH   2   3
TORSDOF 3
ENDMDL
MODEL       96
REMARK 921   NORMALIZED FREE ENERGY PREDICTED BY IDOCK:   -3.45 KCAL/MOL
REMARK 922        TOTAL FREE ENERGY PREDICTED BY IDOCK:   -4.35 KCAL/MOL
REMARK 923 INTER-LIGAND FREE ENERGY PREDICTED BY IDOCK:   -4.10 KCAL/MOL
REMARK 924 INTRA-LIGAND FREE ENERGY PREDICTED BY IDOCK:   -0.25 KCAL/MOL
REMARK 927      BINDING AFFINITY PREDICTED BY RF-SCORE:    0.00 PKD
ROOT
HETATM    1  C   UNL     1     -11.162  15.586  64.637  1.00  0.00    -0.381 C  
HETATM    2  C   UNL     1     -10.797  15.134  65.690  1.00  0.00    -0.367 C  
ENDROOT
BRANCH   2   3
HETATM    3  C   UNL     1     -10.328  14.484  66.917  1.00  0.00    -0.264 C  
BRANCH   3   4
HETATM    4  N   UNL     1     -10.207  13.042  66.728  1.00  0.00    -0.243 NA 
HETATM    5  H   UNL     1      -9.358  12.686  67.167  1.00  0.00     0.000 HD 
BRANCH   4   6
HETATM    6  C   UNL     1     -11.389  12.307  67.196  1.00  0.00    -0.335 C  
HETATM    7  C   UNL     1     -12.006  13.036  68.418  1.00  0.00    -0.309 C  
HETATM    8  C   UNL     1     -11.743  12.210  69.687  1.00  0.00    -0.396 C  
HETATM    9  C   UNL     1     -11.210  10.923  69.155  1.00  0.00    -0.318 A  
HETATM   10  C   UNL     1     -10.848   9.804  69.890  1.00  0.00    -0.306 A  
HETATM   11  C   UNL     1     -10.352   8.688  69.213  1.00  0.00    -0.228 A  
HETATM   12  C   UNL     1     -10.269   8.687  67.818  1.00  0.00    -0.282 A  
HETATM   13  C   UNL     1     -10.658   9.810  67.088  1.00  0.00    -0.298 A  
HETATM   14  C   UNL     1     -11.076  10.949  67.767  1.00  0.00    -0.371 A  
ENDBRANCH   4   6
ENDBRANCH   3   4
ENDBRANCH   2   3
TORSDOF 3
ENDMDL
MODEL       97
REMARK 921   NORMALIZED FREE ENERGY PREDICTED BY IDOCK:   -3.44 KCAL/MOL
REMARK 922        TOTAL FREE ENERGY PREDICTED BY IDOCK:   -4.34 KCAL/MOL
REMARK 923 INTER-LIGAND FREE ENERGY PREDICTED BY IDOCK:   -4.05 KCAL/MOL
REMARK 924 INTRA-LIGAND FREE ENERGY PREDICTED BY IDOCK:   -0.29 KCAL/MOL
REMARK 927      BINDING AFFINITY PREDICTED BY RF-SCORE:    0.00 PKD
ROOT
HETATM    1  C   UNL     1     -12.340  11.845  63.539  1.00  0.00    -0.603 C  
HETATM    2  C   UNL     1     -12.133  12.964  63.930  1.00  0.00    -0.553 C  
ENDROOT
BRANCH   2   3
HETATM    3  C   UNL     1     -11.917  14.365  64.301  1.00  0.00    -0.410 C  
BRANCH   3   4
HETATM    4  N   UNL     1     -10.749  14.501  65.164  1.00  0.00    -0.378 NA 
HETATM    5  H   UNL     1     -10.470  15.479  65.250  1.00  0.00     0.000 HD 
BRANCH   4   6
HETATM    6  C   UNL     1     -10.944  13.892  66.485  1.00  0.00    -0.300 C  
HETATM    7  C   UNL     1     -12.028  14.679  67.268  1.00  0.00    -0.312 C  
HETATM    8  C   UNL     1     -11.360  15.468  68.404  1.00  0.00    -0.357 C  
HETATM    9  C   UNL     1      -9.966  14.940  68.417  1.00  0.00    -0.222 A  
HETATM   10  C   UNL     1      -8.949  15.295  69.290  1.00  0.00    -0.241 A  
HETATM   11  C   UNL     1      -7.695  14.698  69.138  1.00  0.00    -0.113 A  
HETATM   12  C   UNL     1      -7.489  13.728  68.153  1.00  0.00    -0.124 A  
HETATM   13  C   UNL     1      -8.527  13.362  67.296  1.00  0.00    -0.205 A  
HETATM   14  C   UNL     1      -9.751  14.014  67.396  1.00  0.00    -0.233 A  
ENDBRANCH   4   6
ENDBRANCH   3   4
ENDBRANCH   2   3
TORSDOF 3
ENDMDL
MODEL       98
REMARK 921   NORMALIZED FREE ENERGY PREDICTED BY IDOCK:   -3.42 KCAL/MOL
REMARK 922        TOTAL FREE ENERGY PREDICTED BY IDOCK:   -4.31 KCAL/MOL
REMARK 923 INTER-LIGAND FREE ENERGY PREDICTED BY IDOCK:   -4.09 KCAL/MOL
REMARK 924 INTRA-LIGAND FREE ENERGY PREDICTED BY IDOCK:   -0.22 KCAL/MOL
REMARK 927      BINDING AFFINITY PREDICTED BY RF-SCORE:    0.00 PKD
ROOT
HETATM    1  C   UNL     1     -13.042  13.817  71.841  1.00  0.00    -0.474 C  
HETATM    2  C   UNL     1     -12.579  13.623  70.748  1.00  0.00    -0.397 C  
ENDROOT
BRANCH   2   3
HETATM    3  C   UNL     1     -11.969  13.494  69.422  1.00  0.00    -0.330 C  
BRANCH   3   4
HETATM    4  N   UNL     1     -11.166  12.279  69.334  1.00  0.00    -0.429 NA 
HETATM    5  H   UNL     1     -10.909  11.943  70.262  1.00  0.00     0.000 HD 
BRANCH   4   6
HETATM    6  C   UNL     1     -11.820  11.221  68.553  1.00  0.00    -0.285 C  
HETATM    7  C   UNL     1     -11.648   9.859  69.275  1.00  0.00     0.034 C  
HETATM    8  C   UNL     1     -10.658   8.989  68.485  1.00  0.00    -0.196 C  
HETATM    9  C   UNL     1     -10.470   9.747  67.215  1.00  0.00    -0.324 A  
HETATM   10  C   UNL     1      -9.694   9.372  66.128  1.00  0.00    -0.334 A  
HETATM   11  C   UNL     1      -9.629  10.225  65.024  1.00  0.00    -0.346 A  
HETATM   12  C   UNL     1     -10.372  11.409  65.002  1.00  0.00    -0.342 A  
HETATM   13  C   UNL     1     -11.166  11.764  66.092  1.00  0.00    -0.363 A  
HETATM   14  C   UNL     1     -11.168  10.955  67.222  1.00  0.00    -0.307 A  
ENDBRANCH   4   6
ENDBRANCH   3   4
ENDBRANCH   2   3
TORSDOF 3
ENDMDL
MODEL       99
REMARK 921   NORMALIZED FREE ENERGY PREDICTED BY IDOCK:   -3.42 KCAL/MOL
REMARK 922        TOTAL FREE ENERGY PREDICTED BY IDOCK:   -4.31 KCAL/MOL
REMARK 923 INTER-LIGAND FREE ENERGY PREDICTED BY IDOCK:   -4.56 KCAL/MOL
REMARK 924 INTRA-LIGAND FREE ENERGY PREDICTED BY IDOCK:    0.25 KCAL/MOL
REMARK 927      BINDING AFFINITY PREDICTED BY RF-SCORE:    0.00 PKD
ROOT
HETATM    1  C   UNL     1     -11.506  10.139  70.202  1.00  0.00    -0.368 C  
HETATM    2  C   UNL     1     -11.301  11.122  69.539  1.00  0.00    -0.359 C  
ENDROOT
BRANCH   2   3
HETATM    3  C   UNL     1     -10.983  12.253  68.664  1.00  0.00    -0.239 C  
BRANCH   3   4
HETATM    4  N   UNL     1     -11.552  12.058  67.334  1.00  0.00    -0.461 NA 
HETATM    5  H   UNL     1     -12.130  11.219  67.304  1.00  0.00     0.000 HD 
BRANCH   4   6
HETATM    6  C   UNL     1     -12.297  13.230  66.859  1.00  0.00    -0.161 C  
HETATM    7  C   UNL     1     -12.544  13.107  65.332  1.00  0.00    -0.512 C  
HETATM    8  C   UNL     1     -11.663  14.126  64.592  1.00  0.00    -0.427 C  
HETATM    9  C   UNL     1     -11.121  14.975  65.692  1.00  0.00    -0.349 A  
HETATM   10  C   UNL     1     -10.292  16.078  65.561  1.00  0.00    -0.415 A  
HETATM   11  C   UNL     1      -9.872  16.744  66.715  1.00  0.00    -0.282 A  
HETATM   12  C   UNL     1     -10.321  16.328  67.973  1.00  0.00    -0.279 A  
HETATM   13  C   UNL     1     -11.173  15.231  68.090  1.00  0.00    -0.328 A  
HETATM   14  C   UNL     1     -11.526  14.521  66.948  1.00  0.00    -0.375 A  
ENDBRANCH   4   6
ENDBRANCH   3   4
ENDBRANCH   2   3
TORSDOF 3
ENDMDL
MODEL      100
REMARK 921   NORMALIZED FREE ENERGY PREDICTED BY IDOCK:   -3.41 KCAL/MOL
REMARK 922        TOTAL FREE ENERGY PREDICTED BY IDOCK:   -4.30 KCAL/MOL
REMARK 923 INTER-LIGAND FREE ENERGY PREDICTED BY IDOCK:   -4.13 KCAL/MOL
REMARK 924 INTRA-LIGAND FREE ENERGY PREDICTED BY IDOCK:   -0.17 KCAL/MOL
REMARK 927      BINDING AFFINITY PREDICTED BY RF-SCORE:    0.00 PKD
ROOT
HETATM    1  C   UNL     1     -11.127   9.453  70.977  1.00  0.00    -0.414 C  
HETATM    2  C   UNL     1     -11.064   9.802  69.828  1.00  0.00    -0.272 C  
ENDROOT
BRANCH   2   3
HETATM    3  C   UNL     1     -10.968  10.114  68.399  1.00  0.00    -0.244 C  
BRANCH   3   4
HETATM    4  N   UNL     1     -11.997  11.071  68.005  1.00  0.00    -0.761 NA 
HETATM    5  H   UNL     1     -12.337  11.594  68.811  1.00  0.00     0.000 HD 
BRANCH   4   6
HETATM    6  C   UNL     1     -11.551  11.977  66.939  1.00  0.00    -0.318 C  
HETATM    7  C   UNL     1     -10.222  11.454  66.333  1.00  0.00    -0.270 C  
HETATM    8  C   UNL     1      -9.071  12.376  66.764  1.00  0.00    -0.212 C  
HETATM    9  C   UNL     1      -9.772  13.533  67.391  1.00  0.00    -0.229 A  
HETATM   10  C   UNL     1      -9.188  14.676  67.915  1.00  0.00    -0.197 A  
HETATM   11  C   UNL     1     -10.012  15.653  68.478  1.00  0.00    -0.211 A  
HETATM   12  C   UNL     1     -11.402  15.497  68.467  1.00  0.00    -0.356 A  
HETATM   13  C   UNL     1     -11.978  14.352  67.916  1.00  0.00    -0.348 A  
HETATM   14  C   UNL     1     -11.154  13.345  67.429  1.00  0.00    -0.297 A  
ENDBRANCH   4   6
ENDBRANCH   3   4
ENDBRANCH   2   3
TORSDOF 3
ENDMDL
MODEL      101
REMARK 921   NORMALIZED FREE ENERGY PREDICTED BY IDOCK:   -3.38 KCAL/MOL
REMARK 922        TOTAL FREE ENERGY PREDICTED BY IDOCK:   -4.27 KCAL/MOL
REMARK 923 INTER-LIGAND FREE ENERGY PREDICTED BY IDOCK:   -3.98 KCAL/MOL
REMARK 924 INTRA-LIGAND FREE ENERGY PREDICTED BY IDOCK:   -0.28 KCAL/MOL
REMARK 927      BINDING AFFINITY PREDICTED BY RF-SCORE:    0.00 PKD
ROOT
HETATM    1  C   UNL     1     -11.436   1.908  73.446  1.00  0.00    -0.283 C  
HETATM    2  C   UNL     1     -11.128   3.032  73.744  1.00  0.00    -0.295 C  
ENDROOT
BRANCH   2   3
HETATM    3  C   UNL     1     -10.680   4.356  74.187  1.00  0.00    -0.252 C  
BRANCH   3   4
HETATM    4  N   UNL     1     -11.455   5.411  73.542  1.00  0.00    -0.433 NA 
HETATM    5  H   UNL     1     -12.030   5.909  74.221  1.00  0.00     0.000 HD 
BRANCH   4   6
HETATM    6  C   UNL     1     -10.617   6.342  72.776  1.00  0.00    -0.229 C  
HETATM    7  C   UNL     1     -11.382   7.675  72.561  1.00  0.00    -0.409 C  
HETATM    8  C   UNL     1     -11.796   7.790  71.086  1.00  0.00    -0.311 C  
HETATM    9  C   UNL     1     -11.064   6.667  70.434  1.00  0.00    -0.374 A  
HETATM   10  C   UNL     1     -11.060   6.347  69.085  1.00  0.00    -0.428 A  
HETATM   11  C   UNL     1     -10.319   5.243  68.659  1.00  0.00    -0.193 A  
HETATM   12  C   UNL     1      -9.559   4.507  69.573  1.00  0.00    -0.266 A  
HETATM   13  C   UNL     1      -9.553   4.852  70.925  1.00  0.00    -0.241 A  
HETATM   14  C   UNL     1     -10.353   5.902  71.360  1.00  0.00    -0.271 A  
ENDBRANCH   4   6
ENDBRANCH   3   4
ENDBRANCH   2   3
TORSDOF 3
ENDMDL
MODEL      102
REMARK 921   NORMALIZED FREE ENERGY PREDICTED BY IDOCK:   -3.38 KCAL/MOL
REMARK 922        TOTAL FREE ENERGY PREDICTED BY IDOCK:   -4.26 KCAL/MOL
REMARK 923 INTER-LIGAND FREE ENERGY PREDICTED BY IDOCK:   -3.84 KCAL/MOL
REMARK 924 INTRA-LIGAND FREE ENERGY PREDICTED BY IDOCK:   -0.42 KCAL/MOL
REMARK 927      BINDING AFFINITY PREDICTED BY RF-SCORE:    0.00 PKD
ROOT
HETATM    1  C   UNL     1      -7.285  13.257  68.789  1.00  0.00    -0.088 C  
HETATM    2  C   UNL     1      -7.467  12.480  67.889  1.00  0.00    -0.120 C  
ENDROOT
BRANCH   2   3
HETATM    3  C   UNL     1      -7.766  11.478  66.862  1.00  0.00    -0.157 C  
BRANCH   3   4
HETATM    4  N   UNL     1      -8.708  12.003  65.880  1.00  0.00    -0.396 NA 
HETATM    5  H   UNL     1      -8.910  11.310  65.160  1.00  0.00     0.000 HD 
BRANCH   4   6
HETATM    6  C   UNL     1      -9.946  12.503  66.492  1.00  0.00    -0.244 C  
HETATM    7  C   UNL     1     -11.144  11.634  66.029  1.00  0.00    -0.325 C  
HETATM    8  C   UNL     1     -12.015  12.445  65.058  1.00  0.00    -0.458 C  
HETATM    9  C   UNL     1     -11.458  13.825  65.167  1.00  0.00    -0.329 A  
HETATM   10  C   UNL     1     -11.916  14.961  64.518  1.00  0.00    -0.420 A  
HETATM   11  C   UNL     1     -11.253  16.171  64.735  1.00  0.00    -0.313 A  
HETATM   12  C   UNL     1     -10.179  16.238  65.628  1.00  0.00    -0.368 A  
HETATM   13  C   UNL     1      -9.742  15.092  66.292  1.00  0.00    -0.316 A  
HETATM   14  C   UNL     1     -10.351  13.873  66.015  1.00  0.00    -0.310 A  
ENDBRANCH   4   6
ENDBRANCH   3   4
ENDBRANCH   2   3
TORSDOF 3
ENDMDL
MODEL      103
REMARK 921   NORMALIZED FREE ENERGY PREDICTED BY IDOCK:   -3.37 KCAL/MOL
REMARK 922        TOTAL FREE ENERGY PREDICTED BY IDOCK:   -4.26 KCAL/MOL
REMARK 923 INTER-LIGAND FREE ENERGY PREDICTED BY IDOCK:   -4.10 KCAL/MOL
REMARK 924 INTRA-LIGAND FREE ENERGY PREDICTED BY IDOCK:   -0.16 KCAL/MOL
REMARK 927      BINDING AFFINITY PREDICTED BY RF-SCORE:    0.00 PKD
ROOT
HETATM    1  C   UNL     1     -10.642   4.726  66.319  1.00  0.00    -0.246 C  
HETATM    2  C   UNL     1     -10.709   5.859  66.718  1.00  0.00    -0.371 C  
ENDROOT
BRANCH   2   3
HETATM    3  C   UNL     1     -10.811   7.272  67.094  1.00  0.00    -0.308 C  
BRANCH   3   4
HETATM    4  N   UNL     1     -10.142   8.121  66.114  1.00  0.00    -0.447 NA 
HETATM    5  H   UNL     1     -10.780   8.388  65.365  1.00  0.00     0.000 HD 
BRANCH   4   6
HETATM    6  C   UNL     1      -9.518   9.304  66.721  1.00  0.00    -0.175 C  
HETATM    7  C   UNL     1      -9.774   9.302  68.251  1.00  0.00    -0.167 C  
HETATM    8  C   UNL     1     -10.783  10.409  68.597  1.00  0.00    -0.250 C  
HETATM    9  C   UNL     1     -10.898  11.179  67.325  1.00  0.00    -0.326 A  
HETATM   10  C   UNL     1     -11.660  12.317  67.107  1.00  0.00    -0.423 A  
HETATM   11  C   UNL     1     -11.654  12.896  65.836  1.00  0.00    -0.423 A  
HETATM   12  C   UNL     1     -10.855  12.361  64.821  1.00  0.00    -0.340 A  
HETATM   13  C   UNL     1     -10.075  11.229  65.059  1.00  0.00    -0.331 A  
HETATM   14  C   UNL     1     -10.144  10.607  66.300  1.00  0.00    -0.291 A  
ENDBRANCH   4   6
ENDBRANCH   3   4
ENDBRANCH   2   3
TORSDOF 3
ENDMDL
MODEL      104
REMARK 921   NORMALIZED FREE ENERGY PREDICTED BY IDOCK:   -3.36 KCAL/MOL
REMARK 922        TOTAL FREE ENERGY PREDICTED BY IDOCK:   -4.24 KCAL/MOL
REMARK 923 INTER-LIGAND FREE ENERGY PREDICTED BY IDOCK:   -4.01 KCAL/MOL
REMARK 924 INTRA-LIGAND FREE ENERGY PREDICTED BY IDOCK:   -0.23 KCAL/MOL
REMARK 927      BINDING AFFINITY PREDICTED BY RF-SCORE:    0.00 PKD
ROOT
HETATM    1  C   UNL     1      -9.689  17.156  67.607  1.00  0.00    -0.263 C  
HETATM    2  C   UNL     1     -10.488  16.410  68.110  1.00  0.00    -0.302 C  
ENDROOT
BRANCH   2   3
HETATM    3  C   UNL     1     -11.545  15.569  68.677  1.00  0.00    -0.368 C  
BRANCH   3   4
HETATM    4  N   UNL     1     -11.452  14.203  68.171  1.00  0.00    -0.292 NA 
HETATM    5  H   UNL     1     -12.335  13.707  68.295  1.00  0.00     0.000 HD 
BRANCH   4   6
HETATM    6  C   UNL     1     -11.007  14.145  66.773  1.00  0.00    -0.300 C  
HETATM    7  C   UNL     1     -12.241  14.100  65.834  1.00  0.00    -0.458 C  
HETATM    8  C   UNL     1     -12.359  12.697  65.219  1.00  0.00    -0.528 C  
HETATM    9  C   UNL     1     -11.077  12.042  65.608  1.00  0.00    -0.361 A  
HETATM   10  C   UNL     1     -10.657  10.765  65.267  1.00  0.00    -0.230 A  
HETATM   11  C   UNL     1      -9.421  10.316  65.739  1.00  0.00    -0.255 A  
HETATM   12  C   UNL     1      -8.607  11.160  66.499  1.00  0.00    -0.169 A  
HETATM   13  C   UNL     1      -9.030  12.451  66.816  1.00  0.00    -0.205 A  
HETATM   14  C   UNL     1     -10.293  12.868  66.414  1.00  0.00    -0.277 A  
ENDBRANCH   4   6
ENDBRANCH   3   4
ENDBRANCH   2   3
TORSDOF 3
ENDMDL
MODEL      105
REMARK 921   NORMALIZED FREE ENERGY PREDICTED BY IDOCK:   -3.36 KCAL/MOL
REMARK 922        TOTAL FREE ENERGY PREDICTED BY IDOCK:   -4.24 KCAL/MOL
REMARK 923 INTER-LIGAND FREE ENERGY PREDICTED BY IDOCK:   -3.96 KCAL/MOL
REMARK 924 INTRA-LIGAND FREE ENERGY PREDICTED BY IDOCK:   -0.28 KCAL/MOL
REMARK 927      BINDING AFFINITY PREDICTED BY RF-SCORE:    0.00 PKD
ROOT
HETATM    1  C   UNL     1      -8.614   8.884  64.733  1.00  0.00    -0.184 C  
HETATM    2  C   UNL     1      -9.268   9.241  65.677  1.00  0.00    -0.291 C  
ENDROOT
BRANCH   2   3
HETATM    3  C   UNL     1     -10.078   9.780  66.773  1.00  0.00    -0.231 C  
BRANCH   3   4
HETATM    4  N   UNL     1     -10.823   8.718  67.441  1.00  0.00    -0.451 NA 
HETATM    5  H   UNL     1     -11.241   8.082  66.761  1.00  0.00     0.000 HD 
BRANCH   4   6
HETATM    6  C   UNL     1     -10.011   7.984  68.419  1.00  0.00    -0.185 C  
HETATM    7  C   UNL     1     -10.043   6.468  68.090  1.00  0.00    -0.170 C  
HETATM    8  C   UNL     1     -10.883   5.737  69.149  1.00  0.00    -0.355 C  
HETATM    9  C   UNL     1     -11.110   6.782  70.190  1.00  0.00    -0.365 A  
HETATM   10  C   UNL     1     -11.786   6.629  71.390  1.00  0.00    -0.374 A  
HETATM   11  C   UNL     1     -11.909   7.732  72.237  1.00  0.00    -0.378 A  
HETATM   12  C   UNL     1     -11.319   8.953  71.896  1.00  0.00    -0.446 A  
HETATM   13  C   UNL     1     -10.621   9.089  70.696  1.00  0.00    -0.290 A  
HETATM   14  C   UNL     1     -10.568   8.013  69.818  1.00  0.00    -0.238 A  
ENDBRANCH   4   6
ENDBRANCH   3   4
ENDBRANCH   2   3
TORSDOF 3
ENDMDL
MODEL      106
REMARK 921   NORMALIZED FREE ENERGY PREDICTED BY IDOCK:   -3.35 KCAL/MOL
REMARK 922        TOTAL FREE ENERGY PREDICTED BY IDOCK:   -4.23 KCAL/MOL
REMARK 923 INTER-LIGAND FREE ENERGY PREDICTED BY IDOCK:   -4.04 KCAL/MOL
REMARK 924 INTRA-LIGAND FREE ENERGY PREDICTED BY IDOCK:   -0.19 KCAL/MOL
REMARK 927      BINDING AFFINITY PREDICTED BY RF-SCORE:    0.00 PKD
ROOT
HETATM    1  C   UNL     1     -12.814  12.854  71.433  1.00  0.00    -0.377 C  
HETATM    2  C   UNL     1     -12.408  13.908  71.018  1.00  0.00    -0.453 C  
ENDROOT
BRANCH   2   3
HETATM    3  C   UNL     1     -11.917  15.231  70.624  1.00  0.00    -0.343 C  
BRANCH   3   4
HETATM    4  N   UNL     1     -10.566  15.146  70.081  1.00  0.00    -0.459 NA 
HETATM    5  H   UNL     1     -10.183  14.208  70.202  1.00  0.00     0.000 HD 
BRANCH   4   6
HETATM    6  C   UNL     1     -10.490  15.570  68.678  1.00  0.00    -0.237 C  
HETATM    7  C   UNL     1      -9.531  14.630  67.900  1.00  0.00    -0.210 C  
HETATM    8  C   UNL     1      -8.238  15.388  67.566  1.00  0.00    -0.187 C  
HETATM    9  C   UNL     1      -8.562  16.798  67.926  1.00  0.00    -0.202 A  
HETATM   10  C   UNL     1      -7.741  17.906  67.780  1.00  0.00    -0.220 A  
HETATM   11  C   UNL     1      -8.217  19.153  68.190  1.00  0.00    -0.353 A  
HETATM   12  C   UNL     1      -9.514  19.284  68.693  1.00  0.00    -0.463 A  
HETATM   13  C   UNL     1     -10.340  18.166  68.814  1.00  0.00    -0.270 A  
HETATM   14  C   UNL     1      -9.838  16.913  68.481  1.00  0.00    -0.267 A  
ENDBRANCH   4   6
ENDBRANCH   3   4
ENDBRANCH   2   3
TORSDOF 3
ENDMDL
MODEL      107
REMARK 921   NORMALIZED FREE ENERGY PREDICTED BY IDOCK:   -3.35 KCAL/MOL
REMARK 922        TOTAL FREE ENERGY PREDICTED BY IDOCK:   -4.23 KCAL/MOL
REMARK 923 INTER-LIGAND FREE ENERGY PREDICTED BY IDOCK:   -4.00 KCAL/MOL
REMARK 924 INTRA-LIGAND FREE ENERGY PREDICTED BY IDOCK:   -0.22 KCAL/MOL
REMARK 927      BINDING AFFINITY PREDICTED BY RF-SCORE:    0.00 PKD
ROOT
HETATM    1  C   UNL     1     -10.184  18.806  67.632  1.00  0.00    -0.450 C  
HETATM    2  C   UNL     1     -10.431  17.870  66.917  1.00  0.00    -0.334 C  
ENDROOT
BRANCH   2   3
HETATM    3  C   UNL     1     -10.649  16.772  65.972  1.00  0.00    -0.228 C  
BRANCH   3   4
HETATM    4  N   UNL     1     -10.250  15.495  66.556  1.00  0.00    -0.273 NA 
HETATM    5  H   UNL     1      -9.640  15.637  67.361  1.00  0.00     0.000 HD 
BRANCH   4   6
HETATM    6  C   UNL     1     -11.397  14.648  66.906  1.00  0.00    -0.356 C  
HETATM    7  C   UNL     1     -11.670  14.743  68.430  1.00  0.00    -0.343 C  
HETATM    8  C   UNL     1     -11.264  13.422  69.102  1.00  0.00    -0.300 C  
HETATM    9  C   UNL     1     -11.004  12.515  67.947  1.00  0.00    -0.262 A  
HETATM   10  C   UNL     1     -10.642  11.178  68.004  1.00  0.00    -0.233 A  
HETATM   11  C   UNL     1     -10.426  10.489  66.808  1.00  0.00    -0.302 A  
HETATM   12  C   UNL     1     -10.620  11.129  65.580  1.00  0.00    -0.286 A  
HETATM   13  C   UNL     1     -11.007  12.468  65.536  1.00  0.00    -0.322 A  
HETATM   14  C   UNL     1     -11.143  13.174  66.725  1.00  0.00    -0.314 A  
ENDBRANCH   4   6
ENDBRANCH   3   4
ENDBRANCH   2   3
TORSDOF 3
ENDMDL
MODEL      108
REMARK 921   NORMALIZED FREE ENERGY PREDICTED BY IDOCK:   -3.34 KCAL/MOL
REMARK 922        TOTAL FREE ENERGY PREDICTED BY IDOCK:   -4.22 KCAL/MOL
REMARK 923 INTER-LIGAND FREE ENERGY PREDICTED BY IDOCK:   -4.05 KCAL/MOL
REMARK 924 INTRA-LIGAND FREE ENERGY PREDICTED BY IDOCK:   -0.17 KCAL/MOL
REMARK 927      BINDING AFFINITY PREDICTED BY RF-SCORE:    0.00 PKD
ROOT
HETATM    1  C   UNL     1     -12.312  12.190  63.415  1.00  0.00    -0.648 C  
HETATM    2  C   UNL     1     -12.241  13.288  63.902  1.00  0.00    -0.491 C  
ENDROOT
BRANCH   2   3
HETATM    3  C   UNL     1     -12.171  14.669  64.387  1.00  0.00    -0.452 C  
BRANCH   3   4
HETATM    4  N   UNL     1     -11.446  14.741  65.651  1.00  0.00    -0.346 NA 
HETATM    5  H   UNL     1     -11.811  14.064  66.320  1.00  0.00     0.000 HD 
BRANCH   4   6
HETATM    6  C   UNL     1      -9.996  14.588  65.483  1.00  0.00    -0.342 C  
HETATM    7  C   UNL     1      -9.553  13.199  66.015  1.00  0.00    -0.169 C  
HETATM    8  C   UNL     1      -8.769  13.384  67.324  1.00  0.00    -0.219 C  
HETATM    9  C   UNL     1      -8.559  14.859  67.394  1.00  0.00    -0.208 A  
HETATM   10  C   UNL     1      -7.864  15.556  68.370  1.00  0.00    -0.126 A  
HETATM   11  C   UNL     1      -7.784  16.947  68.275  1.00  0.00    -0.205 A  
HETATM   12  C   UNL     1      -8.356  17.614  67.187  1.00  0.00    -0.233 A  
HETATM   13  C   UNL     1      -9.033  16.899  66.199  1.00  0.00    -0.271 A  
HETATM   14  C   UNL     1      -9.181  15.524  66.336  1.00  0.00    -0.339 A  
ENDBRANCH   4   6
ENDBRANCH   3   4
ENDBRANCH   2   3
TORSDOF 3
ENDMDL
MODEL      109
REMARK 921   NORMALIZED FREE ENERGY PREDICTED BY IDOCK:   -3.34 KCAL/MOL
REMARK 922        TOTAL FREE ENERGY PREDICTED BY IDOCK:   -4.21 KCAL/MOL
REMARK 923 INTER-LIGAND FREE ENERGY PREDICTED BY IDOCK:   -3.92 KCAL/MOL
REMARK 924 INTRA-LIGAND FREE ENERGY PREDICTED BY IDOCK:   -0.30 KCAL/MOL
REMARK 927      BINDING AFFINITY PREDICTED BY RF-SCORE:    0.00 PKD
ROOT
HETATM    1  C   UNL     1      -6.571  14.542  70.075  1.00  0.00    -0.140 C  
HETATM    2  C   UNL     1      -6.860  14.326  68.928  1.00  0.00    -0.104 C  
ENDROOT
BRANCH   2   3
HETATM    3  C   UNL     1      -7.296  14.143  67.541  1.00  0.00    -0.175 C  
BRANCH   3   4
HETATM    4  N   UNL     1      -8.437  13.236  67.469  1.00  0.00    -0.189 NA 
HETATM    5  H   UNL     1      -8.267  12.391  68.014  1.00  0.00     0.000 HD 
BRANCH   4   6
HETATM    6  C   UNL     1      -9.697  13.876  67.869  1.00  0.00    -0.231 C  
HETATM    7  C   UNL     1     -10.582  12.854  68.630  1.00  0.00    -0.256 C  
HETATM    8  C   UNL     1     -11.772  12.455  67.744  1.00  0.00    -0.413 C  
HETATM    9  C   UNL     1     -11.695  13.419  66.609  1.00  0.00    -0.428 A  
HETATM   10  C   UNL     1     -12.571  13.517  65.539  1.00  0.00    -0.531 A  
HETATM   11  C   UNL     1     -12.327  14.481  64.558  1.00  0.00    -0.434 A  
HETATM   12  C   UNL     1     -11.246  15.358  64.683  1.00  0.00    -0.374 A  
HETATM   13  C   UNL     1     -10.385  15.265  65.777  1.00  0.00    -0.364 A  
HETATM   14  C   UNL     1     -10.582  14.255  66.711  1.00  0.00    -0.278 A  
ENDBRANCH   4   6
ENDBRANCH   3   4
ENDBRANCH   2   3
TORSDOF 3
ENDMDL
MODEL      110
REMARK 921   NORMALIZED FREE ENERGY PREDICTED BY IDOCK:   -3.34 KCAL/MOL
REMARK 922        TOTAL FREE ENERGY PREDICTED BY IDOCK:   -4.21 KCAL/MOL
REMARK 923 INTER-LIGAND FREE ENERGY PREDICTED BY IDOCK:   -3.78 KCAL/MOL
REMARK 924 INTRA-LIGAND FREE ENERGY PREDICTED BY IDOCK:   -0.44 KCAL/MOL
REMARK 927      BINDING AFFINITY PREDICTED BY RF-SCORE:    0.00 PKD
ROOT
HETATM    1  C   UNL     1      -8.688   5.078  69.725  1.00  0.00    -0.111 C  
HETATM    2  C   UNL     1      -9.568   5.801  69.336  1.00  0.00    -0.179 C  
ENDROOT
BRANCH   2   3
HETATM    3  C   UNL     1     -10.671   6.695  68.973  1.00  0.00    -0.259 C  
BRANCH   3   4
HETATM    4  N   UNL     1     -11.749   6.616  69.953  1.00  0.00    -0.635 NA 
HETATM    5  H   UNL     1     -11.727   5.725  70.448  1.00  0.00     0.000 HD 
BRANCH   4   6
HETATM    6  C   UNL     1     -11.744   7.742  70.895  1.00  0.00    -0.265 C  
HETATM    7  C   UNL     1     -11.093   8.980  70.223  1.00  0.00    -0.263 C  
HETATM    8  C   UNL     1      -9.716   9.235  70.856  1.00  0.00    -0.346 C  
HETATM    9  C   UNL     1      -9.701   8.314  72.029  1.00  0.00    -0.322 A  
HETATM   10  C   UNL     1      -8.691   8.179  72.969  1.00  0.00    -0.309 A  
HETATM   11  C   UNL     1      -8.851   7.247  73.998  1.00  0.00    -0.257 A  
HETATM   12  C   UNL     1     -10.029   6.502  74.099  1.00  0.00    -0.344 A  
HETATM   13  C   UNL     1     -11.048   6.663  73.160  1.00  0.00    -0.204 A  
HETATM   14  C   UNL     1     -10.855   7.532  72.092  1.00  0.00    -0.282 A  
ENDBRANCH   4   6
ENDBRANCH   3   4
ENDBRANCH   2   3
TORSDOF 3
ENDMDL
MODEL      111
REMARK 921   NORMALIZED FREE ENERGY PREDICTED BY IDOCK:   -3.34 KCAL/MOL
REMARK 922        TOTAL FREE ENERGY PREDICTED BY IDOCK:   -4.21 KCAL/MOL
REMARK 923 INTER-LIGAND FREE ENERGY PREDICTED BY IDOCK:   -4.01 KCAL/MOL
REMARK 924 INTRA-LIGAND FREE ENERGY PREDICTED BY IDOCK:   -0.21 KCAL/MOL
REMARK 927      BINDING AFFINITY PREDICTED BY RF-SCORE:    0.00 PKD
ROOT
HETATM    1  C   UNL     1      -7.861   7.179  67.130  1.00  0.00    -0.110 C  
HETATM    2  C   UNL     1      -8.167   7.744  66.113  1.00  0.00    -0.123 C  
ENDROOT
BRANCH   2   3
HETATM    3  C   UNL     1      -8.467   8.518  64.906  1.00  0.00    -0.147 C  
BRANCH   3   4
HETATM    4  N   UNL     1      -9.663   9.333  65.094  1.00  0.00    -0.439 NA 
HETATM    5  H   UNL     1     -10.226   8.982  65.868  1.00  0.00     0.000 HD 
BRANCH   4   6
HETATM    6  C   UNL     1      -9.357  10.758  65.269  1.00  0.00    -0.210 C  
HETATM    7  C   UNL     1      -9.220  11.080  66.781  1.00  0.00    -0.174 C  
HETATM    8  C   UNL     1     -10.432  11.908  67.235  1.00  0.00    -0.248 C  
HETATM    9  C   UNL     1     -11.109  12.258  65.953  1.00  0.00    -0.360 A  
HETATM   10  C   UNL     1     -12.244  13.039  65.797  1.00  0.00    -0.511 A  
HETATM   11  C   UNL     1     -12.744  13.247  64.510  1.00  0.00    -0.229 A  
HETATM   12  C   UNL     1     -12.081  12.715  63.400  1.00  0.00    -0.614 A  
HETATM   13  C   UNL     1     -10.927  11.951  63.568  1.00  0.00    -0.505 A  
HETATM   14  C   UNL     1     -10.475  11.677  64.854  1.00  0.00    -0.339 A  
ENDBRANCH   4   6
ENDBRANCH   3   4
ENDBRANCH   2   3
TORSDOF 3
ENDMDL
MODEL      112
REMARK 921   NORMALIZED FREE ENERGY PREDICTED BY IDOCK:   -3.33 KCAL/MOL
REMARK 922        TOTAL FREE ENERGY PREDICTED BY IDOCK:   -4.20 KCAL/MOL
REMARK 923 INTER-LIGAND FREE ENERGY PREDICTED BY IDOCK:   -4.02 KCAL/MOL
REMARK 924 INTRA-LIGAND FREE ENERGY PREDICTED BY IDOCK:   -0.18 KCAL/MOL
REMARK 927      BINDING AFFINITY PREDICTED BY RF-SCORE:    0.00 PKD
ROOT
HETATM    1  C   UNL     1     -12.795   7.434  71.472  1.00  0.00    -0.416 C  
HETATM    2  C   UNL     1     -11.802   8.111  71.518  1.00  0.00    -0.332 C  
ENDROOT
BRANCH   2   3
HETATM    3  C   UNL     1     -10.638   8.988  71.668  1.00  0.00    -0.364 C  
BRANCH   3   4
HETATM    4  N   UNL     1     -10.062   9.317  70.368  1.00  0.00    -0.218 NA 
HETATM    5  H   UNL     1      -9.218   8.771  70.194  1.00  0.00     0.000 HD 
BRANCH   4   6
HETATM    6  C   UNL     1     -11.022   9.168  69.268  1.00  0.00    -0.061 C  
HETATM    7  C   UNL     1     -10.443   8.206  68.197  1.00  0.00    -0.225 C  
HETATM    8  C   UNL     1     -10.061   9.011  66.946  1.00  0.00    -0.338 C  
HETATM    9  C   UNL     1     -10.644  10.358  67.212  1.00  0.00    -0.322 A  
HETATM   10  C   UNL     1     -10.618  11.458  66.368  1.00  0.00    -0.311 A  
HETATM   11  C   UNL     1     -11.209  12.648  66.798  1.00  0.00    -0.347 A  
HETATM   12  C   UNL     1     -11.856  12.708  68.036  1.00  0.00    -0.376 A  
HETATM   13  C   UNL     1     -11.897  11.587  68.866  1.00  0.00    -0.406 A  
HETATM   14  C   UNL     1     -11.238  10.428  68.472  1.00  0.00    -0.308 A  
ENDBRANCH   4   6
ENDBRANCH   3   4
ENDBRANCH   2   3
TORSDOF 3
ENDMDL
MODEL      113
REMARK 921   NORMALIZED FREE ENERGY PREDICTED BY IDOCK:   -3.32 KCAL/MOL
REMARK 922        TOTAL FREE ENERGY PREDICTED BY IDOCK:   -4.20 KCAL/MOL
REMARK 923 INTER-LIGAND FREE ENERGY PREDICTED BY IDOCK:   -3.91 KCAL/MOL
REMARK 924 INTRA-LIGAND FREE ENERGY PREDICTED BY IDOCK:   -0.29 KCAL/MOL
REMARK 927      BINDING AFFINITY PREDICTED BY RF-SCORE:    0.00 PKD
ROOT
HETATM    1  C   UNL     1      -7.352  15.202  67.574  1.00  0.00    -0.222 C  
HETATM    2  C   UNL     1      -8.500  15.256  67.929  1.00  0.00    -0.151 C  
ENDROOT
BRANCH   2   3
HETATM    3  C   UNL     1      -9.915  15.218  68.309  1.00  0.00    -0.222 C  
BRANCH   3   4
HETATM    4  N   UNL     1     -10.209  14.030  69.103  1.00  0.00    -0.431 NA 
HETATM    5  H   UNL     1     -10.349  14.271  70.083  1.00  0.00     0.000 HD 
BRANCH   4   6
HETATM    6  C   UNL     1     -11.349  13.266  68.580  1.00  0.00    -0.288 C  
HETATM    7  C   UNL     1     -11.987  12.434  69.724  1.00  0.00    -0.359 C  
HETATM    8  C   UNL     1     -11.671  10.946  69.506  1.00  0.00    -0.400 C  
HETATM    9  C   UNL     1     -11.081  10.916  68.137  1.00  0.00    -0.337 A  
HETATM   10  C   UNL     1     -10.658   9.797  67.437  1.00  0.00    -0.330 A  
HETATM   11  C   UNL     1     -10.115   9.968  66.161  1.00  0.00    -0.317 A  
HETATM   12  C   UNL     1     -10.048  11.241  65.588  1.00  0.00    -0.295 A  
HETATM   13  C   UNL     1     -10.499  12.357  66.292  1.00  0.00    -0.271 A  
HETATM   14  C   UNL     1     -10.964  12.196  67.592  1.00  0.00    -0.289 A  
ENDBRANCH   4   6
ENDBRANCH   3   4
ENDBRANCH   2   3
TORSDOF 3
ENDMDL
MODEL      114
REMARK 921   NORMALIZED FREE ENERGY PREDICTED BY IDOCK:   -3.32 KCAL/MOL
REMARK 922        TOTAL FREE ENERGY PREDICTED BY IDOCK:   -4.19 KCAL/MOL
REMARK 923 INTER-LIGAND FREE ENERGY PREDICTED BY IDOCK:   -3.99 KCAL/MOL
REMARK 924 INTRA-LIGAND FREE ENERGY PREDICTED BY IDOCK:   -0.20 KCAL/MOL
REMARK 927      BINDING AFFINITY PREDICTED BY RF-SCORE:    0.00 PKD
ROOT
HETATM    1  C   UNL     1     -10.784   9.846  67.934  1.00  0.00    -0.316 C  
HETATM    2  C   UNL     1     -11.234  10.934  67.691  1.00  0.00    -0.379 C  
ENDROOT
BRANCH   2   3
HETATM    3  C   UNL     1     -11.751  12.243  67.282  1.00  0.00    -0.324 C  
BRANCH   3   4
HETATM    4  N   UNL     1     -10.965  13.321  67.873  1.00  0.00    -0.242 NA 
HETATM    5  H   UNL     1      -9.967  13.163  67.737  1.00  0.00     0.000 HD 
BRANCH   4   6
HETATM    6  C   UNL     1     -11.359  14.647  67.381  1.00  0.00    -0.356 C  
HETATM    7  C   UNL     1     -11.596  14.586  65.849  1.00  0.00    -0.349 C  
HETATM    8  C   UNL     1     -10.459  15.328  65.130  1.00  0.00    -0.438 C  
HETATM    9  C   UNL     1      -9.734  16.007  66.243  1.00  0.00    -0.332 A  
HETATM   10  C   UNL     1      -8.637  16.848  66.131  1.00  0.00    -0.277 A  
HETATM   11  C   UNL     1      -8.080  17.384  67.295  1.00  0.00    -0.218 A  
HETATM   12  C   UNL     1      -8.652  17.111  68.541  1.00  0.00    -0.258 A  
HETATM   13  C   UNL     1      -9.769  16.282  68.638  1.00  0.00    -0.235 A  
HETATM   14  C   UNL     1     -10.273  15.685  67.489  1.00  0.00    -0.263 A  
ENDBRANCH   4   6
ENDBRANCH   3   4
ENDBRANCH   2   3
TORSDOF 3
ENDMDL
MODEL      115
REMARK 921   NORMALIZED FREE ENERGY PREDICTED BY IDOCK:   -3.31 KCAL/MOL
REMARK 922        TOTAL FREE ENERGY PREDICTED BY IDOCK:   -4.18 KCAL/MOL
REMARK 923 INTER-LIGAND FREE ENERGY PREDICTED BY IDOCK:   -3.89 KCAL/MOL
REMARK 924 INTRA-LIGAND FREE ENERGY PREDICTED BY IDOCK:   -0.28 KCAL/MOL
REMARK 927      BINDING AFFINITY PREDICTED BY RF-SCORE:    0.00 PKD
ROOT
HETATM    1  C   UNL     1     -11.216  15.764  64.679  1.00  0.00    -0.373 C  
HETATM    2  C   UNL     1     -11.130  15.419  65.829  1.00  0.00    -0.260 C  
ENDROOT
BRANCH   2   3
HETATM    3  C   UNL     1     -11.138  14.965  67.222  1.00  0.00    -0.336 C  
BRANCH   3   4
HETATM    4  N   UNL     1     -10.369  15.870  68.069  1.00  0.00    -0.256 NA 
HETATM    5  H   UNL     1     -10.209  15.461  68.990  1.00  0.00     0.000 HD 
BRANCH   4   6
HETATM    6  C   UNL     1      -9.104  16.289  67.452  1.00  0.00    -0.195 C  
HETATM    7  C   UNL     1      -7.926  15.973  68.410  1.00  0.00    -0.151 C  
HETATM    8  C   UNL     1      -7.376  17.286  68.987  1.00  0.00    -0.209 C  
HETATM    9  C   UNL     1      -8.064  18.333  68.179  1.00  0.00    -0.297 A  
HETATM   10  C   UNL     1      -7.890  19.705  68.271  1.00  0.00    -0.355 A  
HETATM   11  C   UNL     1      -8.639  20.535  67.433  1.00  0.00    -0.361 A  
HETATM   12  C   UNL     1      -9.511  19.984  66.489  1.00  0.00    -0.518 A  
HETATM   13  C   UNL     1      -9.660  18.601  66.390  1.00  0.00    -0.338 A  
HETATM   14  C   UNL     1      -8.975  17.779  67.278  1.00  0.00    -0.246 A  
ENDBRANCH   4   6
ENDBRANCH   3   4
ENDBRANCH   2   3
TORSDOF 3
ENDMDL
MODEL      116
REMARK 921   NORMALIZED FREE ENERGY PREDICTED BY IDOCK:   -3.30 KCAL/MOL
REMARK 922        TOTAL FREE ENERGY PREDICTED BY IDOCK:   -4.17 KCAL/MOL
REMARK 923 INTER-LIGAND FREE ENERGY PREDICTED BY IDOCK:   -3.95 KCAL/MOL
REMARK 924 INTRA-LIGAND FREE ENERGY PREDICTED BY IDOCK:   -0.22 KCAL/MOL
REMARK 927      BINDING AFFINITY PREDICTED BY RF-SCORE:    0.00 PKD
ROOT
HETATM    1  C   UNL     1     -10.039   3.489  73.684  1.00  0.00    -0.190 C  
HETATM    2  C   UNL     1      -9.735   4.366  72.919  1.00  0.00    -0.176 C  
ENDROOT
BRANCH   2   3
HETATM    3  C   UNL     1      -9.264   5.376  71.968  1.00  0.00    -0.137 C  
BRANCH   3   4
HETATM    4  N   UNL     1      -9.917   6.660  72.206  1.00  0.00    -0.167 NA 
HETATM    5  H   UNL     1      -9.268   7.327  72.622  1.00  0.00     0.000 HD 
BRANCH   4   6
HETATM    6  C   UNL     1     -10.538   7.213  70.996  1.00  0.00    -0.221 C  
HETATM    7  C   UNL     1      -9.839   8.544  70.613  1.00  0.00    -0.218 C  
HETATM    8  C   UNL     1     -10.788   9.717  70.903  1.00  0.00    -0.399 C  
HETATM    9  C   UNL     1     -12.084   9.045  71.206  1.00  0.00    -0.375 A  
HETATM   10  C   UNL     1     -13.293   9.658  71.498  1.00  0.00    -0.468 A  
HETATM   11  C   UNL     1     -14.404   8.857  71.771  1.00  0.00    -0.351 A  
HETATM   12  C   UNL     1     -14.305   7.465  71.702  1.00  0.00    -0.614 A  
HETATM   13  C   UNL     1     -13.089   6.859  71.384  1.00  0.00    -0.316 A  
HETATM   14  C   UNL     1     -11.965   7.655  71.192  1.00  0.00    -0.319 A  
ENDBRANCH   4   6
ENDBRANCH   3   4
ENDBRANCH   2   3
TORSDOF 3
ENDMDL
MODEL      117
REMARK 921   NORMALIZED FREE ENERGY PREDICTED BY IDOCK:   -3.30 KCAL/MOL
REMARK 922        TOTAL FREE ENERGY PREDICTED BY IDOCK:   -4.16 KCAL/MOL
REMARK 923 INTER-LIGAND FREE ENERGY PREDICTED BY IDOCK:   -3.85 KCAL/MOL
REMARK 924 INTRA-LIGAND FREE ENERGY PREDICTED BY IDOCK:   -0.32 KCAL/MOL
REMARK 927      BINDING AFFINITY PREDICTED BY RF-SCORE:    0.00 PKD
ROOT
HETATM    1  C   UNL     1      -7.735  15.408  69.088  1.00  0.00    -0.207 C  
HETATM    2  C   UNL     1      -8.901  15.568  68.837  1.00  0.00    -0.217 C  
ENDROOT
BRANCH   2   3
HETATM    3  C   UNL     1     -10.340  15.771  68.647  1.00  0.00    -0.225 C  
BRANCH   3   4
HETATM    4  N   UNL     1     -10.767  15.278  67.342  1.00  0.00    -0.287 NA 
HETATM    5  H   UNL     1      -9.974  14.924  66.807  1.00  0.00     0.000 HD 
BRANCH   4   6
HETATM    6  C   UNL     1     -11.831  14.270  67.436  1.00  0.00    -0.409 C  
HETATM    7  C   UNL     1     -12.276  14.119  68.915  1.00  0.00    -0.257 C  
HETATM    8  C   UNL     1     -11.784  12.769  69.458  1.00  0.00    -0.383 C  
HETATM    9  C   UNL     1     -11.290  12.067  68.239  1.00  0.00    -0.342 A  
HETATM   10  C   UNL     1     -10.773  10.782  68.169  1.00  0.00    -0.257 A  
HETATM   11  C   UNL     1     -10.345  10.296  66.932  1.00  0.00    -0.298 A  
HETATM   12  C   UNL     1     -10.483  11.078  65.780  1.00  0.00    -0.290 A  
HETATM   13  C   UNL     1     -11.027  12.360  65.859  1.00  0.00    -0.323 A  
HETATM   14  C   UNL     1     -11.378  12.872  67.103  1.00  0.00    -0.352 A  
ENDBRANCH   4   6
ENDBRANCH   3   4
ENDBRANCH   2   3
TORSDOF 3
ENDMDL
MODEL      118
REMARK 921   NORMALIZED FREE ENERGY PREDICTED BY IDOCK:   -3.29 KCAL/MOL
REMARK 922        TOTAL FREE ENERGY PREDICTED BY IDOCK:   -4.16 KCAL/MOL
REMARK 923 INTER-LIGAND FREE ENERGY PREDICTED BY IDOCK:   -4.07 KCAL/MOL
REMARK 924 INTRA-LIGAND FREE ENERGY PREDICTED BY IDOCK:   -0.09 KCAL/MOL
REMARK 927      BINDING AFFINITY PREDICTED BY RF-SCORE:    0.00 PKD
ROOT
HETATM    1  C   UNL     1     -12.611   7.954  71.995  1.00  0.00    -0.327 C  
HETATM    2  C   UNL     1     -11.656   7.945  71.263  1.00  0.00    -0.304 C  
ENDROOT
BRANCH   2   3
HETATM    3  C   UNL     1     -10.563   7.886  70.289  1.00  0.00    -0.231 C  
BRANCH   3   4
HETATM    4  N   UNL     1     -10.939   8.544  69.043  1.00  0.00    -0.430 NA 
HETATM    5  H   UNL     1     -11.953   8.583  68.942  1.00  0.00     0.000 HD 
BRANCH   4   6
HETATM    6  C   UNL     1     -10.345   9.880  68.905  1.00  0.00    -0.205 C  
HETATM    7  C   UNL     1     -11.088  10.880  69.829  1.00  0.00    -0.328 C  
HETATM    8  C   UNL     1     -11.933  11.833  68.971  1.00  0.00    -0.341 C  
HETATM    9  C   UNL     1     -11.480  11.537  67.581  1.00  0.00    -0.357 A  
HETATM   10  C   UNL     1     -11.905  12.159  66.417  1.00  0.00    -0.321 A  
HETATM   11  C   UNL     1     -11.374  11.734  65.197  1.00  0.00    -0.281 A  
HETATM   12  C   UNL     1     -10.397  10.735  65.161  1.00  0.00    -0.341 A  
HETATM   13  C   UNL     1      -9.960  10.133  66.342  1.00  0.00    -0.295 A  
HETATM   14  C   UNL     1     -10.548  10.500  67.547  1.00  0.00    -0.306 A  
ENDBRANCH   4   6
ENDBRANCH   3   4
ENDBRANCH   2   3
TORSDOF 3
ENDMDL
MODEL      119
REMARK 921   NORMALIZED FREE ENERGY PREDICTED BY IDOCK:   -3.26 KCAL/MOL
REMARK 922        TOTAL FREE ENERGY PREDICTED BY IDOCK:   -4.12 KCAL/MOL
REMARK 923 INTER-LIGAND FREE ENERGY PREDICTED BY IDOCK:   -3.86 KCAL/MOL
REMARK 924 INTRA-LIGAND FREE ENERGY PREDICTED BY IDOCK:   -0.26 KCAL/MOL
REMARK 927      BINDING AFFINITY PREDICTED BY RF-SCORE:    0.00 PKD
ROOT
HETATM    1  C   UNL     1      -8.156   7.133  62.840  1.00  0.00    -0.046 C  
HETATM    2  C   UNL     1      -7.706   8.132  63.338  1.00  0.00    -0.143 C  
ENDROOT
BRANCH   2   3
HETATM    3  C   UNL     1      -7.054   9.293  63.950  1.00  0.00    -0.095 C  
BRANCH   3   4
HETATM    4  N   UNL     1      -7.845  10.502  63.746  1.00  0.00    -0.339 NA 
HETATM    5  H   UNL     1      -7.539  11.002  62.912  1.00  0.00     0.000 HD 
BRANCH   4   6
HETATM    6  C   UNL     1      -9.288  10.235  63.700  1.00  0.00    -0.296 C  
HETATM    7  C   UNL     1      -9.992  11.318  62.841  1.00  0.00    -0.282 C  
HETATM    8  C   UNL     1     -10.808  12.242  63.758  1.00  0.00    -0.495 C  
HETATM    9  C   UNL     1     -10.767  11.543  65.075  1.00  0.00    -0.350 A  
HETATM   10  C   UNL     1     -11.389  11.941  66.248  1.00  0.00    -0.394 A  
HETATM   11  C   UNL     1     -11.224  11.160  67.394  1.00  0.00    -0.363 A  
HETATM   12  C   UNL     1     -10.483   9.975  67.340  1.00  0.00    -0.316 A  
HETATM   13  C   UNL     1      -9.881   9.573  66.148  1.00  0.00    -0.343 A  
HETATM   14  C   UNL     1      -9.980  10.392  65.029  1.00  0.00    -0.399 A  
ENDBRANCH   4   6
ENDBRANCH   3   4
ENDBRANCH   2   3
TORSDOF 3
ENDMDL
MODEL      120
REMARK 921   NORMALIZED FREE ENERGY PREDICTED BY IDOCK:   -3.25 KCAL/MOL
REMARK 922        TOTAL FREE ENERGY PREDICTED BY IDOCK:   -4.11 KCAL/MOL
REMARK 923 INTER-LIGAND FREE ENERGY PREDICTED BY IDOCK:   -3.79 KCAL/MOL
REMARK 924 INTRA-LIGAND FREE ENERGY PREDICTED BY IDOCK:   -0.32 KCAL/MOL
REMARK 927      BINDING AFFINITY PREDICTED BY RF-SCORE:    0.00 PKD
ROOT
HETATM    1  C   UNL     1      -7.064  19.086  68.936  1.00  0.00    -0.363 C  
HETATM    2  C   UNL     1      -8.229  18.920  68.686  1.00  0.00    -0.380 C  
ENDROOT
BRANCH   2   3
HETATM    3  C   UNL     1      -9.627  18.761  68.275  1.00  0.00    -0.353 C  
BRANCH   3   4
HETATM    4  N   UNL     1      -9.938  17.358  68.019  1.00  0.00    -0.287 NA 
HETATM    5  H   UNL     1     -10.946  17.205  68.002  1.00  0.00     0.000 HD 
BRANCH   4   6
HETATM    6  C   UNL     1      -9.306  16.851  66.795  1.00  0.00    -0.251 C  
HETATM    7  C   UNL     1     -10.277  17.024  65.597  1.00  0.00    -0.196 C  
HETATM    8  C   UNL     1     -10.806  15.646  65.170  1.00  0.00    -0.448 C  
HETATM    9  C   UNL     1      -9.958  14.696  65.946  1.00  0.00    -0.352 A  
HETATM   10  C   UNL     1      -9.999  13.311  65.897  1.00  0.00    -0.280 A  
HETATM   11  C   UNL     1      -9.130  12.583  66.713  1.00  0.00    -0.214 A  
HETATM   12  C   UNL     1      -8.206  13.245  67.527  1.00  0.00    -0.184 A  
HETATM   13  C   UNL     1      -8.158  14.639  67.551  1.00  0.00    -0.200 A  
HETATM   14  C   UNL     1      -9.077  15.362  66.799  1.00  0.00    -0.286 A  
ENDBRANCH   4   6
ENDBRANCH   3   4
ENDBRANCH   2   3
TORSDOF 3
ENDMDL
MODEL      121
REMARK 921   NORMALIZED FREE ENERGY PREDICTED BY IDOCK:   -3.20 KCAL/MOL
REMARK 922        TOTAL FREE ENERGY PREDICTED BY IDOCK:   -4.05 KCAL/MOL
REMARK 923 INTER-LIGAND FREE ENERGY PREDICTED BY IDOCK:   -3.85 KCAL/MOL
REMARK 924 INTRA-LIGAND FREE ENERGY PREDICTED BY IDOCK:   -0.21 KCAL/MOL
REMARK 927      BINDING AFFINITY PREDICTED BY RF-SCORE:    0.00 PKD
ROOT
HETATM    1  C   UNL     1      -7.888  10.380  64.983  1.00  0.00    -0.109 C  
HETATM    2  C   UNL     1      -8.572  10.234  65.962  1.00  0.00    -0.153 C  
ENDROOT
BRANCH   2   3
HETATM    3  C   UNL     1      -9.389  10.170  67.177  1.00  0.00    -0.153 C  
BRANCH   3   4
HETATM    4  N   UNL     1      -9.703  11.509  67.664  1.00  0.00    -0.172 NA 
HETATM    5  H   UNL     1      -9.163  12.216  67.165  1.00  0.00     0.000 HD 
BRANCH   4   6
HETATM    6  C   UNL     1     -11.139  11.810  67.612  1.00  0.00    -0.252 C  
HETATM    7  C   UNL     1     -11.350  13.262  67.106  1.00  0.00    -0.351 C  
HETATM    8  C   UNL     1     -11.827  14.141  68.272  1.00  0.00    -0.391 C  
HETATM    9  C   UNL     1     -12.120  13.154  69.350  1.00  0.00    -0.285 A  
HETATM   10  C   UNL     1     -12.623  13.425  70.614  1.00  0.00    -0.325 A  
HETATM   11  C   UNL     1     -12.820  12.364  71.500  1.00  0.00    -0.377 A  
HETATM   12  C   UNL     1     -12.558  11.050  71.098  1.00  0.00    -0.522 A  
HETATM   13  C   UNL     1     -12.075  10.788  69.817  1.00  0.00    -0.389 A  
HETATM   14  C   UNL     1     -11.803  11.851  68.964  1.00  0.00    -0.368 A  
ENDBRANCH   4   6
ENDBRANCH   3   4
ENDBRANCH   2   3
TORSDOF 3
ENDMDL
MODEL      122
REMARK 921   NORMALIZED FREE ENERGY PREDICTED BY IDOCK:   -3.19 KCAL/MOL
REMARK 922        TOTAL FREE ENERGY PREDICTED BY IDOCK:   -4.04 KCAL/MOL
REMARK 923 INTER-LIGAND FREE ENERGY PREDICTED BY IDOCK:   -3.87 KCAL/MOL
REMARK 924 INTRA-LIGAND FREE ENERGY PREDICTED BY IDOCK:   -0.16 KCAL/MOL
REMARK 927      BINDING AFFINITY PREDICTED BY RF-SCORE:    0.00 PKD
ROOT
HETATM    1  C   UNL     1      -7.404  10.933  69.277  1.00  0.00    -0.125 C  
HETATM    2  C   UNL     1      -7.600   9.760  69.093  1.00  0.00    -0.085 C  
ENDROOT
BRANCH   2   3
HETATM    3  C   UNL     1      -7.953   8.358  68.856  1.00  0.00    -0.115 C  
BRANCH   3   4
HETATM    4  N   UNL     1      -9.004   7.924  69.770  1.00  0.00    -0.145 NA 
HETATM    5  H   UNL     1      -8.856   6.959  70.065  1.00  0.00     0.000 HD 
BRANCH   4   6
HETATM    6  C   UNL     1      -9.151   8.813  70.929  1.00  0.00    -0.208 C  
HETATM    7  C   UNL     1      -8.978   7.996  72.237  1.00  0.00    -0.230 C  
HETATM    8  C   UNL     1     -10.340   7.862  72.935  1.00  0.00    -0.413 C  
HETATM    9  C   UNL     1     -11.214   8.795  72.167  1.00  0.00    -0.408 A  
HETATM   10  C   UNL     1     -12.548   9.081  72.415  1.00  0.00    -0.403 A  
HETATM   11  C   UNL     1     -13.210   9.977  71.573  1.00  0.00    -0.497 A  
HETATM   12  C   UNL     1     -12.523  10.606  70.531  1.00  0.00    -0.445 A  
HETATM   13  C   UNL     1     -11.175  10.328  70.306  1.00  0.00    -0.395 A  
HETATM   14  C   UNL     1     -10.538   9.376  71.094  1.00  0.00    -0.403 A  
ENDBRANCH   4   6
ENDBRANCH   3   4
ENDBRANCH   2   3
TORSDOF 3
ENDMDL
MODEL      123
REMARK 921   NORMALIZED FREE ENERGY PREDICTED BY IDOCK:   -3.17 KCAL/MOL
REMARK 922        TOTAL FREE ENERGY PREDICTED BY IDOCK:   -4.02 KCAL/MOL
REMARK 923 INTER-LIGAND FREE ENERGY PREDICTED BY IDOCK:   -3.74 KCAL/MOL
REMARK 924 INTRA-LIGAND FREE ENERGY PREDICTED BY IDOCK:   -0.28 KCAL/MOL
REMARK 927      BINDING AFFINITY PREDICTED BY RF-SCORE:    0.00 PKD
ROOT
HETATM    1  C   UNL     1     -10.203   7.405  73.608  1.00  0.00    -0.380 C  
HETATM    2  C   UNL     1     -11.115   7.168  72.861  1.00  0.00    -0.338 C  
ENDROOT
BRANCH   2   3
HETATM    3  C   UNL     1     -12.200   6.979  71.894  1.00  0.00    -0.327 C  
BRANCH   3   4
HETATM    4  N   UNL     1     -12.113   7.958  70.815  1.00  0.00    -0.490 NA 
HETATM    5  H   UNL     1     -12.490   8.859  71.109  1.00  0.00     0.000 HD 
BRANCH   4   6
HETATM    6  C   UNL     1     -10.749   8.104  70.290  1.00  0.00    -0.235 C  
HETATM    7  C   UNL     1     -10.533   9.559  69.799  1.00  0.00    -0.253 C  
HETATM    8  C   UNL     1     -10.474   9.573  68.264  1.00  0.00    -0.265 C  
HETATM    9  C   UNL     1     -10.407   8.126  67.908  1.00  0.00    -0.280 A  
HETATM   10  C   UNL     1     -10.298   7.585  66.636  1.00  0.00    -0.252 A  
HETATM   11  C   UNL     1     -10.264   6.196  66.499  1.00  0.00    -0.181 A  
HETATM   12  C   UNL     1     -10.290   5.373  67.629  1.00  0.00    -0.235 A  
HETATM   13  C   UNL     1     -10.376   5.930  68.905  1.00  0.00    -0.290 A  
HETATM   14  C   UNL     1     -10.491   7.309  69.036  1.00  0.00    -0.219 A  
ENDBRANCH   4   6
ENDBRANCH   3   4
ENDBRANCH   2   3
TORSDOF 3
ENDMDL
MODEL      124
REMARK 921   NORMALIZED FREE ENERGY PREDICTED BY IDOCK:   -3.16 KCAL/MOL
REMARK 922        TOTAL FREE ENERGY PREDICTED BY IDOCK:   -4.01 KCAL/MOL
REMARK 923 INTER-LIGAND FREE ENERGY PREDICTED BY IDOCK:   -3.78 KCAL/MOL
REMARK 924 INTRA-LIGAND FREE ENERGY PREDICTED BY IDOCK:   -0.22 KCAL/MOL
REMARK 927      BINDING AFFINITY PREDICTED BY RF-SCORE:    0.00 PKD
ROOT
HETATM    1  C   UNL     1      -9.353   4.204  67.938  1.00  0.00    -0.210 C  
HETATM    2  C   UNL     1      -9.708   4.643  69.001  1.00  0.00    -0.242 C  
ENDROOT
BRANCH   2   3
HETATM    3  C   UNL     1     -10.175   5.068  70.323  1.00  0.00    -0.258 C  
BRANCH   3   4
HETATM    4  N   UNL     1      -9.782   6.447  70.595  1.00  0.00    -0.179 NA 
HETATM    5  H   UNL     1      -8.797   6.595  70.380  1.00  0.00     0.000 HD 
BRANCH   4   6
HETATM    6  C   UNL     1     -10.627   7.426  69.900  1.00  0.00    -0.236 C  
HETATM    7  C   UNL     1      -9.860   8.767  69.757  1.00  0.00    -0.189 C  
HETATM    8  C   UNL     1     -10.482   9.809  70.700  1.00  0.00    -0.358 C  
HETATM    9  C   UNL     1     -11.727   9.142  71.177  1.00  0.00    -0.380 A  
HETATM   10  C   UNL     1     -12.684   9.675  72.028  1.00  0.00    -0.470 A  
HETATM   11  C   UNL     1     -13.784   8.889  72.377  1.00  0.00    -0.512 A  
HETATM   12  C   UNL     1     -13.937   7.608  71.837  1.00  0.00    -0.400 A  
HETATM   13  C   UNL     1     -12.980   7.092  70.964  1.00  0.00    -0.231 A  
HETATM   14  C   UNL     1     -11.845   7.843  70.681  1.00  0.00    -0.116 A  
ENDBRANCH   4   6
ENDBRANCH   3   4
ENDBRANCH   2   3
TORSDOF 3
ENDMDL
MODEL      125
REMARK 921   NORMALIZED FREE ENERGY PREDICTED BY IDOCK:   -3.15 KCAL/MOL
REMARK 922        TOTAL FREE ENERGY PREDICTED BY IDOCK:   -3.99 KCAL/MOL
REMARK 923 INTER-LIGAND FREE ENERGY PREDICTED BY IDOCK:   -3.63 KCAL/MOL
REMARK 924 INTRA-LIGAND FREE ENERGY PREDICTED BY IDOCK:   -0.36 KCAL/MOL
REMARK 927      BINDING AFFINITY PREDICTED BY RF-SCORE:    0.00 PKD
ROOT
HETATM    1  C   UNL     1     -11.177  12.335  68.398  1.00  0.00    -0.311 C  
HETATM    2  C   UNL     1     -10.355  11.519  68.074  1.00  0.00    -0.208 C  
ENDROOT
BRANCH   2   3
HETATM    3  C   UNL     1      -9.285  10.565  67.766  1.00  0.00    -0.145 C  
BRANCH   3   4
HETATM    4  N   UNL     1      -9.279   9.463  68.722  1.00  0.00    -0.131 NA 
HETATM    5  H   UNL     1      -8.553   8.785  68.492  1.00  0.00     0.000 HD 
BRANCH   4   6
HETATM    6  C   UNL     1      -9.155   9.917  70.112  1.00  0.00    -0.124 C  
HETATM    7  C   UNL     1      -7.903   9.272  70.762  1.00  0.00    -0.174 C  
HETATM    8  C   UNL     1      -8.350   8.217  71.786  1.00  0.00    -0.193 C  
HETATM    9  C   UNL     1      -9.820   8.442  71.892  1.00  0.00    -0.328 A  
HETATM   10  C   UNL     1     -10.708   7.773  72.721  1.00  0.00    -0.417 A  
HETATM   11  C   UNL     1     -12.061   8.114  72.671  1.00  0.00    -0.311 A  
HETATM   12  C   UNL     1     -12.499   9.144  71.834  1.00  0.00    -0.459 A  
HETATM   13  C   UNL     1     -11.593   9.827  71.022  1.00  0.00    -0.455 A  
HETATM   14  C   UNL     1     -10.260   9.432  71.013  1.00  0.00    -0.369 A  
ENDBRANCH   4   6
ENDBRANCH   3   4
ENDBRANCH   2   3
TORSDOF 3
ENDMDL
MODEL      126
REMARK 921   NORMALIZED FREE ENERGY PREDICTED BY IDOCK:   -3.12 KCAL/MOL
REMARK 922        TOTAL FREE ENERGY PREDICTED BY IDOCK:   -3.96 KCAL/MOL
REMARK 923 INTER-LIGAND FREE ENERGY PREDICTED BY IDOCK:   -3.98 KCAL/MOL
REMARK 924 INTRA-LIGAND FREE ENERGY PREDICTED BY IDOCK:    0.01 KCAL/MOL
REMARK 927      BINDING AFFINITY PREDICTED BY RF-SCORE:    0.00 PKD
ROOT
HETATM    1  C   UNL     1     -10.388  13.835  66.479  1.00  0.00    -0.286 C  
HETATM    2  C   UNL     1      -9.322  14.187  66.911  1.00  0.00    -0.274 C  
ENDROOT
BRANCH   2   3
HETATM    3  C   UNL     1      -7.981  14.605  67.329  1.00  0.00    -0.197 C  
BRANCH   3   4
HETATM    4  N   UNL     1      -7.746  16.007  67.000  1.00  0.00    -0.206 NA 
HETATM    5  H   UNL     1      -8.326  16.299  66.214  1.00  0.00     0.000 HD 
BRANCH   4   6
HETATM    6  C   UNL     1      -7.931  16.899  68.151  1.00  0.00    -0.195 C  
HETATM    7  C   UNL     1      -9.130  16.407  69.005  1.00  0.00    -0.252 C  
HETATM    8  C   UNL     1     -10.307  17.379  68.834  1.00  0.00    -0.340 C  
HETATM    9  C   UNL     1      -9.702  18.527  68.100  1.00  0.00    -0.367 A  
HETATM   10  C   UNL     1     -10.334  19.704  67.728  1.00  0.00    -0.586 A  
HETATM   11  C   UNL     1      -9.602  20.666  67.028  1.00  0.00    -0.484 A  
HETATM   12  C   UNL     1      -8.247  20.462  66.754  1.00  0.00    -0.276 A  
HETATM   13  C   UNL     1      -7.616  19.284  67.154  1.00  0.00    -0.250 A  
HETATM   14  C   UNL     1      -8.364  18.293  67.779  1.00  0.00    -0.261 A  
ENDBRANCH   4   6
ENDBRANCH   3   4
ENDBRANCH   2   3
TORSDOF 3
ENDMDL
MODEL      127
REMARK 921   NORMALIZED FREE ENERGY PREDICTED BY IDOCK:   -3.10 KCAL/MOL
REMARK 922        TOTAL FREE ENERGY PREDICTED BY IDOCK:   -3.94 KCAL/MOL
REMARK 923 INTER-LIGAND FREE ENERGY PREDICTED BY IDOCK:   -3.64 KCAL/MOL
REMARK 924 INTRA-LIGAND FREE ENERGY PREDICTED BY IDOCK:   -0.30 KCAL/MOL
REMARK 927      BINDING AFFINITY PREDICTED BY RF-SCORE:    0.00 PKD
ROOT
HETATM    1  C   UNL     1     -10.197   4.360  65.467  1.00  0.00    -0.260 C  
HETATM    2  C   UNL     1      -9.936   4.483  66.635  1.00  0.00    -0.253 C  
ENDROOT
BRANCH   2   3
HETATM    3  C   UNL     1      -9.654   4.522  68.073  1.00  0.00    -0.154 C  
BRANCH   3   4
HETATM    4  N   UNL     1      -9.404   5.889  68.517  1.00  0.00    -0.120 NA 
HETATM    5  H   UNL     1      -8.716   6.346  67.921  1.00  0.00     0.000 HD 
BRANCH   4   6
HETATM    6  C   UNL     1     -10.632   6.688  68.614  1.00  0.00    -0.234 C  
HETATM    7  C   UNL     1     -10.411   8.067  67.940  1.00  0.00    -0.282 C  
HETATM    8  C   UNL     1     -10.342   9.156  69.022  1.00  0.00    -0.229 C  
HETATM    9  C   UNL     1     -10.766   8.438  70.259  1.00  0.00    -0.240 A  
HETATM   10  C   UNL     1     -10.915   8.980  71.527  1.00  0.00    -0.418 A  
HETATM   11  C   UNL     1     -11.310   8.143  72.572  1.00  0.00    -0.469 A  
HETATM   12  C   UNL     1     -11.595   6.796  72.330  1.00  0.00    -0.311 A  
HETATM   13  C   UNL     1     -11.464   6.268  71.045  1.00  0.00    -0.370 A  
HETATM   14  C   UNL     1     -10.994   7.082  70.022  1.00  0.00    -0.303 A  
ENDBRANCH   4   6
ENDBRANCH   3   4
ENDBRANCH   2   3
TORSDOF 3
ENDMDL
MODEL      128
REMARK 921   NORMALIZED FREE ENERGY PREDICTED BY IDOCK:   -3.08 KCAL/MOL
REMARK 922        TOTAL FREE ENERGY PREDICTED BY IDOCK:   -3.92 KCAL/MOL
REMARK 923 INTER-LIGAND FREE ENERGY PREDICTED BY IDOCK:   -3.85 KCAL/MOL
REMARK 924 INTRA-LIGAND FREE ENERGY PREDICTED BY IDOCK:   -0.06 KCAL/MOL
REMARK 927      BINDING AFFINITY PREDICTED BY RF-SCORE:    0.00 PKD
ROOT
HETATM    1  C   UNL     1      -8.805  19.643  66.585  1.00  0.00    -0.403 C  
HETATM    2  C   UNL     1      -9.585  18.740  66.428  1.00  0.00    -0.354 C  
ENDROOT
BRANCH   2   3
HETATM    3  C   UNL     1     -10.612  17.721  66.199  1.00  0.00    -0.235 C  
BRANCH   3   4
HETATM    4  N   UNL     1     -10.189  16.777  65.170  1.00  0.00    -0.523 NA 
HETATM    5  H   UNL     1      -9.439  17.168  64.601  1.00  0.00     0.000 HD 
BRANCH   4   6
HETATM    6  C   UNL     1      -9.806  15.471  65.721  1.00  0.00    -0.357 C  
HETATM    7  C   UNL     1     -11.056  14.767  66.313  1.00  0.00    -0.341 C  
HETATM    8  C   UNL     1     -10.956  14.763  67.847  1.00  0.00    -0.282 C  
HETATM    9  C   UNL     1      -9.562  15.228  68.102  1.00  0.00    -0.204 A  
HETATM   10  C   UNL     1      -8.942  15.365  69.335  1.00  0.00    -0.258 A  
HETATM   11  C   UNL     1      -7.627  15.832  69.377  1.00  0.00    -0.214 A  
HETATM   12  C   UNL     1      -6.937  16.109  68.193  1.00  0.00    -0.135 A  
HETATM   13  C   UNL     1      -7.564  15.945  66.957  1.00  0.00    -0.264 A  
HETATM   14  C   UNL     1      -8.898  15.557  66.920  1.00  0.00    -0.284 A  
ENDBRANCH   4   6
ENDBRANCH   3   4
ENDBRANCH   2   3
TORSDOF 3
ENDMDL
MODEL      129
REMARK 921   NORMALIZED FREE ENERGY PREDICTED BY IDOCK:   -3.08 KCAL/MOL
REMARK 922        TOTAL FREE ENERGY PREDICTED BY IDOCK:   -3.91 KCAL/MOL
REMARK 923 INTER-LIGAND FREE ENERGY PREDICTED BY IDOCK:   -3.73 KCAL/MOL
REMARK 924 INTRA-LIGAND FREE ENERGY PREDICTED BY IDOCK:   -0.18 KCAL/MOL
REMARK 927      BINDING AFFINITY PREDICTED BY RF-SCORE:    0.00 PKD
ROOT
HETATM    1  C   UNL     1     -10.045   9.157  66.606  1.00  0.00    -0.343 C  
HETATM    2  C   UNL     1     -10.424   8.253  67.303  1.00  0.00    -0.373 C  
ENDROOT
BRANCH   2   3
HETATM    3  C   UNL     1     -10.793   7.090  68.114  1.00  0.00    -0.153 C  
BRANCH   3   4
HETATM    4  N   UNL     1     -10.377   7.269  69.501  1.00  0.00    -0.218 NA 
HETATM    5  H   UNL     1     -10.072   8.228  69.670  1.00  0.00     0.000 HD 
BRANCH   4   6
HETATM    6  C   UNL     1     -11.414   6.870  70.461  1.00  0.00    -0.342 C  
HETATM    7  C   UNL     1     -12.038   8.133  71.110  1.00  0.00    -0.281 C  
HETATM    8  C   UNL     1     -11.579   8.230  72.573  1.00  0.00    -0.454 C  
HETATM    9  C   UNL     1     -10.915   6.916  72.814  1.00  0.00    -0.315 A  
HETATM   10  C   UNL     1     -10.356   6.470  74.002  1.00  0.00    -0.362 A  
HETATM   11  C   UNL     1      -9.762   5.207  74.032  1.00  0.00    -0.160 A  
HETATM   12  C   UNL     1      -9.776   4.393  72.895  1.00  0.00    -0.176 A  
HETATM   13  C   UNL     1     -10.363   4.843  71.712  1.00  0.00    -0.249 A  
HETATM   14  C   UNL     1     -10.882   6.131  71.661  1.00  0.00    -0.308 A  
ENDBRANCH   4   6
ENDBRANCH   3   4
ENDBRANCH   2   3
TORSDOF 3
ENDMDL
MODEL      130
REMARK 921   NORMALIZED FREE ENERGY PREDICTED BY IDOCK:   -3.08 KCAL/MOL
REMARK 922        TOTAL FREE ENERGY PREDICTED BY IDOCK:   -3.91 KCAL/MOL
REMARK 923 INTER-LIGAND FREE ENERGY PREDICTED BY IDOCK:   -3.69 KCAL/MOL
REMARK 924 INTRA-LIGAND FREE ENERGY PREDICTED BY IDOCK:   -0.22 KCAL/MOL
REMARK 927      BINDING AFFINITY PREDICTED BY RF-SCORE:    0.00 PKD
ROOT
HETATM    1  C   UNL     1      -9.547  18.815  66.362  1.00  0.00    -0.354 C  
HETATM    2  C   UNL     1     -10.118  18.185  67.213  1.00  0.00    -0.354 C  
ENDROOT
BRANCH   2   3
HETATM    3  C   UNL     1     -10.747  17.325  68.220  1.00  0.00    -0.349 C  
BRANCH   3   4
HETATM    4  N   UNL     1     -11.119  16.037  67.645  1.00  0.00    -0.288 NA 
HETATM    5  H   UNL     1     -11.299  16.122  66.645  1.00  0.00     0.000 HD 
BRANCH   4   6
HETATM    6  C   UNL     1     -10.127  14.988  67.914  1.00  0.00    -0.226 C  
HETATM    7  C   UNL     1      -9.232  14.782  66.664  1.00  0.00    -0.300 C  
HETATM    8  C   UNL     1      -9.580  13.438  66.007  1.00  0.00    -0.174 C  
HETATM    9  C   UNL     1     -10.474  12.787  67.007  1.00  0.00    -0.245 A  
HETATM   10  C   UNL     1     -11.041  11.524  66.920  1.00  0.00    -0.366 A  
HETATM   11  C   UNL     1     -11.869  11.087  67.957  1.00  0.00    -0.152 A  
HETATM   12  C   UNL     1     -12.079  11.893  69.080  1.00  0.00    -0.261 A  
HETATM   13  C   UNL     1     -11.483  13.151  69.167  1.00  0.00    -0.358 A  
HETATM   14  C   UNL     1     -10.725  13.618  68.100  1.00  0.00    -0.260 A  
ENDBRANCH   4   6
ENDBRANCH   3   4
ENDBRANCH   2   3
TORSDOF 3
ENDMDL
MODEL      131
REMARK 921   NORMALIZED FREE ENERGY PREDICTED BY IDOCK:   -3.06 KCAL/MOL
REMARK 922        TOTAL FREE ENERGY PREDICTED BY IDOCK:   -3.88 KCAL/MOL
REMARK 923 INTER-LIGAND FREE ENERGY PREDICTED BY IDOCK:   -3.44 KCAL/MOL
REMARK 924 INTRA-LIGAND FREE ENERGY PREDICTED BY IDOCK:   -0.44 KCAL/MOL
REMARK 927      BINDING AFFINITY PREDICTED BY RF-SCORE:    0.00 PKD
ROOT
HETATM    1  C   UNL     1     -14.387   7.849  72.147  1.00  0.00    -0.417 C  
HETATM    2  C   UNL     1     -13.494   8.656  72.178  1.00  0.00    -0.434 C  
ENDROOT
BRANCH   2   3
HETATM    3  C   UNL     1     -12.467   9.693  72.300  1.00  0.00    -0.174 C  
BRANCH   3   4
HETATM    4  N   UNL     1     -11.290   9.357  71.506  1.00  0.00    -0.379 NA 
HETATM    5  H   UNL     1     -10.630  10.134  71.484  1.00  0.00     0.000 HD 
BRANCH   4   6
HETATM    6  C   UNL     1     -10.636   8.122  71.954  1.00  0.00    -0.260 C  
HETATM    7  C   UNL     1      -9.192   8.438  72.426  1.00  0.00    -0.345 C  
HETATM    8  C   UNL     1      -8.191   7.878  71.405  1.00  0.00    -0.115 C  
HETATM    9  C   UNL     1      -9.043   7.046  70.507  1.00  0.00    -0.156 A  
HETATM   10  C   UNL     1      -8.621   6.281  69.431  1.00  0.00    -0.125 A  
HETATM   11  C   UNL     1      -9.574   5.576  68.693  1.00  0.00    -0.172 A  
HETATM   12  C   UNL     1     -10.920   5.606  69.068  1.00  0.00    -0.165 A  
HETATM   13  C   UNL     1     -11.330   6.360  70.167  1.00  0.00    -0.485 A  
HETATM   14  C   UNL     1     -10.393   7.125  70.851  1.00  0.00    -0.214 A  
ENDBRANCH   4   6
ENDBRANCH   3   4
ENDBRANCH   2   3
TORSDOF 3
ENDMDL
MODEL      132
REMARK 921   NORMALIZED FREE ENERGY PREDICTED BY IDOCK:   -3.05 KCAL/MOL
REMARK 922        TOTAL FREE ENERGY PREDICTED BY IDOCK:   -3.88 KCAL/MOL
REMARK 923 INTER-LIGAND FREE ENERGY PREDICTED BY IDOCK:   -4.03 KCAL/MOL
REMARK 924 INTRA-LIGAND FREE ENERGY PREDICTED BY IDOCK:    0.15 KCAL/MOL
REMARK 927      BINDING AFFINITY PREDICTED BY RF-SCORE:    0.00 PKD
ROOT
HETATM    1  C   UNL     1      -7.228   7.147  69.665  1.00  0.00    -0.076 C  
HETATM    2  C   UNL     1      -7.852   8.071  70.116  1.00  0.00    -0.099 C  
ENDROOT
BRANCH   2   3
HETATM    3  C   UNL     1      -8.705   9.127  70.668  1.00  0.00    -0.229 C  
BRANCH   3   4
HETATM    4  N   UNL     1      -8.802  10.254  69.747  1.00  0.00    -0.380 NA 
HETATM    5  H   UNL     1      -8.061  10.219  69.047  1.00  0.00     0.000 HD 
BRANCH   4   6
HETATM    6  C   UNL     1     -10.122  10.355  69.111  1.00  0.00    -0.222 C  
HETATM    7  C   UNL     1     -10.216  11.683  68.314  1.00  0.00    -0.206 C  
HETATM    8  C   UNL     1     -11.167  12.645  69.043  1.00  0.00    -0.322 C  
HETATM    9  C   UNL     1     -11.789  11.786  70.091  1.00  0.00    -0.408 A  
HETATM   10  C   UNL     1     -12.761  12.160  71.007  1.00  0.00    -0.322 A  
HETATM   11  C   UNL     1     -13.215  11.215  71.929  1.00  0.00    -0.488 A  
HETATM   12  C   UNL     1     -12.730   9.904  71.893  1.00  0.00    -0.501 A  
HETATM   13  C   UNL     1     -11.770   9.533  70.952  1.00  0.00    -0.391 A  
HETATM   14  C   UNL     1     -11.260  10.495  70.088  1.00  0.00    -0.389 A  
ENDBRANCH   4   6
ENDBRANCH   3   4
ENDBRANCH   2   3
TORSDOF 3
ENDMDL
MODEL      133
REMARK 921   NORMALIZED FREE ENERGY PREDICTED BY IDOCK:   -3.05 KCAL/MOL
REMARK 922        TOTAL FREE ENERGY PREDICTED BY IDOCK:   -3.88 KCAL/MOL
REMARK 923 INTER-LIGAND FREE ENERGY PREDICTED BY IDOCK:   -3.54 KCAL/MOL
REMARK 924 INTRA-LIGAND FREE ENERGY PREDICTED BY IDOCK:   -0.34 KCAL/MOL
REMARK 927      BINDING AFFINITY PREDICTED BY RF-SCORE:    0.00 PKD
ROOT
HETATM    1  C   UNL     1     -10.964  16.285  64.905  1.00  0.00    -0.321 C  
HETATM    2  C   UNL     1     -11.690  15.326  64.932  1.00  0.00    -0.230 C  
ENDROOT
BRANCH   2   3
HETATM    3  C   UNL     1     -12.565  14.153  64.848  1.00  0.00    -0.342 C  
BRANCH   3   4
HETATM    4  N   UNL     1     -11.936  12.989  65.464  1.00  0.00    -0.398 NA 
HETATM    5  H   UNL     1     -12.512  12.157  65.344  1.00  0.00     0.000 HD 
BRANCH   4   6
HETATM    6  C   UNL     1     -10.569  12.759  64.978  1.00  0.00    -0.308 C  
HETATM    7  C   UNL     1     -10.574  11.615  63.930  1.00  0.00    -0.446 C  
HETATM    8  C   UNL     1      -9.917  10.367  64.539  1.00  0.00    -0.401 C  
HETATM    9  C   UNL     1      -9.330  10.874  65.813  1.00  0.00    -0.232 A  
HETATM   10  C   UNL     1      -8.585  10.151  66.732  1.00  0.00    -0.129 A  
HETATM   11  C   UNL     1      -8.127  10.797  67.882  1.00  0.00    -0.112 A  
HETATM   12  C   UNL     1      -8.379  12.159  68.074  1.00  0.00    -0.167 A  
HETATM   13  C   UNL     1      -9.110  12.881  67.131  1.00  0.00    -0.220 A  
HETATM   14  C   UNL     1      -9.633  12.219  66.027  1.00  0.00    -0.230 A  
ENDBRANCH   4   6
ENDBRANCH   3   4
ENDBRANCH   2   3
TORSDOF 3
ENDMDL
MODEL      134
REMARK 921   NORMALIZED FREE ENERGY PREDICTED BY IDOCK:   -3.05 KCAL/MOL
REMARK 922        TOTAL FREE ENERGY PREDICTED BY IDOCK:   -3.88 KCAL/MOL
REMARK 923 INTER-LIGAND FREE ENERGY PREDICTED BY IDOCK:   -3.70 KCAL/MOL
REMARK 924 INTRA-LIGAND FREE ENERGY PREDICTED BY IDOCK:   -0.18 KCAL/MOL
REMARK 927      BINDING AFFINITY PREDICTED BY RF-SCORE:    0.00 PKD
ROOT
HETATM    1  C   UNL     1      -5.376  14.844  70.719  1.00  0.00    -0.135 C  
HETATM    2  C   UNL     1      -6.155  15.341  69.948  1.00  0.00    -0.151 C  
ENDROOT
BRANCH   2   3
HETATM    3  C   UNL     1      -7.110  16.038  69.083  1.00  0.00    -0.197 C  
BRANCH   3   4
HETATM    4  N   UNL     1      -8.479  15.636  69.387  1.00  0.00    -0.258 NA 
HETATM    5  H   UNL     1      -8.687  15.766  70.377  1.00  0.00     0.000 HD 
BRANCH   4   6
HETATM    6  C   UNL     1      -9.472  16.317  68.546  1.00  0.00    -0.219 C  
HETATM    7  C   UNL     1     -10.723  16.665  69.395  1.00  0.00    -0.331 C  
HETATM    8  C   UNL     1     -11.888  15.755  68.976  1.00  0.00    -0.367 C  
HETATM    9  C   UNL     1     -11.376  15.083  67.748  1.00  0.00    -0.340 A  
HETATM   10  C   UNL     1     -12.059  14.181  66.946  1.00  0.00    -0.466 A  
HETATM   11  C   UNL     1     -11.406  13.641  65.835  1.00  0.00    -0.317 A  
HETATM   12  C   UNL     1     -10.105  14.043  65.517  1.00  0.00    -0.343 A  
HETATM   13  C   UNL     1      -9.437  14.969  66.319  1.00  0.00    -0.342 A  
HETATM   14  C   UNL     1     -10.058  15.444  67.468  1.00  0.00    -0.233 A  
ENDBRANCH   4   6
ENDBRANCH   3   4
ENDBRANCH   2   3
TORSDOF 3
ENDMDL
MODEL      135
REMARK 921   NORMALIZED FREE ENERGY PREDICTED BY IDOCK:   -3.05 KCAL/MOL
REMARK 922        TOTAL FREE ENERGY PREDICTED BY IDOCK:   -3.88 KCAL/MOL
REMARK 923 INTER-LIGAND FREE ENERGY PREDICTED BY IDOCK:   -3.67 KCAL/MOL
REMARK 924 INTRA-LIGAND FREE ENERGY PREDICTED BY IDOCK:   -0.20 KCAL/MOL
REMARK 927      BINDING AFFINITY PREDICTED BY RF-SCORE:    0.00 PKD
ROOT
HETATM    1  C   UNL     1      -7.854   8.081  74.289  1.00  0.00    -0.280 C  
HETATM    2  C   UNL     1      -8.837   8.163  73.601  1.00  0.00    -0.296 C  
ENDROOT
BRANCH   2   3
HETATM    3  C   UNL     1     -10.065   8.156  72.800  1.00  0.00    -0.297 C  
BRANCH   3   4
HETATM    4  N   UNL     1      -9.814   8.671  71.459  1.00  0.00    -0.244 NA 
HETATM    5  H   UNL     1      -8.957   8.277  71.070  1.00  0.00     0.000 HD 
BRANCH   4   6
HETATM    6  C   UNL     1     -10.948   8.464  70.550  1.00  0.00    -0.242 C  
HETATM    7  C   UNL     1     -11.499   7.024  70.724  1.00  0.00    -0.360 C  
HETATM    8  C   UNL     1     -11.138   6.190  69.485  1.00  0.00    -0.490 C  
HETATM    9  C   UNL     1     -10.615   7.206  68.526  1.00  0.00    -0.219 A  
HETATM   10  C   UNL     1     -10.184   6.981  67.228  1.00  0.00    -0.301 A  
HETATM   11  C   UNL     1      -9.711   8.063  66.481  1.00  0.00    -0.297 A  
HETATM   12  C   UNL     1      -9.719   9.352  67.022  1.00  0.00    -0.233 A  
HETATM   13  C   UNL     1     -10.177   9.569  68.321  1.00  0.00    -0.225 A  
HETATM   14  C   UNL     1     -10.572   8.481  69.091  1.00  0.00    -0.188 A  
ENDBRANCH   4   6
ENDBRANCH   3   4
ENDBRANCH   2   3
TORSDOF 3
ENDMDL
MODEL      136
REMARK 921   NORMALIZED FREE ENERGY PREDICTED BY IDOCK:   -3.04 KCAL/MOL
REMARK 922        TOTAL FREE ENERGY PREDICTED BY IDOCK:   -3.87 KCAL/MOL
REMARK 923 INTER-LIGAND FREE ENERGY PREDICTED BY IDOCK:   -3.59 KCAL/MOL
REMARK 924 INTRA-LIGAND FREE ENERGY PREDICTED BY IDOCK:   -0.28 KCAL/MOL
REMARK 927      BINDING AFFINITY PREDICTED BY RF-SCORE:    0.00 PKD
ROOT
HETATM    1  C   UNL     1      -9.183   3.100  67.167  1.00  0.00    -0.209 C  
HETATM    2  C   UNL     1      -9.768   3.907  66.493  1.00  0.00    -0.186 C  
ENDROOT
BRANCH   2   3
HETATM    3  C   UNL     1     -10.573   4.873  65.741  1.00  0.00    -0.182 C  
BRANCH   3   4
HETATM    4  N   UNL     1     -11.101   5.909  66.622  1.00  0.00    -0.724 NA 
HETATM    5  H   UNL     1     -11.784   5.523  67.273  1.00  0.00     0.000 HD 
BRANCH   4   6
HETATM    6  C   UNL     1     -10.045   6.639  67.336  1.00  0.00    -0.164 C  
HETATM    7  C   UNL     1     -10.276   6.525  68.866  1.00  0.00    -0.206 C  
HETATM    8  C   UNL     1     -10.742   7.884  69.411  1.00  0.00    -0.174 C  
HETATM    9  C   UNL     1     -10.535   8.806  68.257  1.00  0.00    -0.236 A  
HETATM   10  C   UNL     1     -10.764  10.174  68.233  1.00  0.00    -0.277 A  
HETATM   11  C   UNL     1     -10.525  10.874  67.048  1.00  0.00    -0.291 A  
HETATM   12  C   UNL     1     -10.018  10.211  65.927  1.00  0.00    -0.334 A  
HETATM   13  C   UNL     1      -9.770   8.839  65.970  1.00  0.00    -0.276 A  
HETATM   14  C   UNL     1     -10.084   8.129  67.124  1.00  0.00    -0.334 A  
ENDBRANCH   4   6
ENDBRANCH   3   4
ENDBRANCH   2   3
TORSDOF 3
ENDMDL
MODEL      137
REMARK 921   NORMALIZED FREE ENERGY PREDICTED BY IDOCK:   -3.04 KCAL/MOL
REMARK 922        TOTAL FREE ENERGY PREDICTED BY IDOCK:   -3.87 KCAL/MOL
REMARK 923 INTER-LIGAND FREE ENERGY PREDICTED BY IDOCK:   -3.72 KCAL/MOL
REMARK 924 INTRA-LIGAND FREE ENERGY PREDICTED BY IDOCK:   -0.15 KCAL/MOL
REMARK 927      BINDING AFFINITY PREDICTED BY RF-SCORE:    0.00 PKD
ROOT
HETATM    1  C   UNL     1     -11.073  10.457  67.564  1.00  0.00    -0.336 C  
HETATM    2  C   UNL     1     -11.344  11.588  67.874  1.00  0.00    -0.372 C  
ENDROOT
BRANCH   2   3
HETATM    3  C   UNL     1     -11.709  12.981  68.142  1.00  0.00    -0.351 C  
BRANCH   3   4
HETATM    4  N   UNL     1     -10.559  13.863  67.976  1.00  0.00    -0.243 NA 
HETATM    5  H   UNL     1     -10.529  14.251  67.034  1.00  0.00     0.000 HD 
BRANCH   4   6
HETATM    6  C   UNL     1     -10.509  14.927  68.987  1.00  0.00    -0.247 C  
HETATM    7  C   UNL     1     -11.518  16.045  68.616  1.00  0.00    -0.377 C  
HETATM    8  C   UNL     1     -10.747  17.289  68.148  1.00  0.00    -0.363 C  
HETATM    9  C   UNL     1      -9.331  16.964  68.486  1.00  0.00    -0.259 A  
HETATM   10  C   UNL     1      -8.224  17.779  68.304  1.00  0.00    -0.285 A  
HETATM   11  C   UNL     1      -6.966  17.294  68.672  1.00  0.00    -0.220 A  
HETATM   12  C   UNL     1      -6.840  16.029  69.255  1.00  0.00    -0.201 A  
HETATM   13  C   UNL     1      -7.965  15.229  69.454  1.00  0.00    -0.223 A  
HETATM   14  C   UNL     1      -9.204  15.680  69.015  1.00  0.00    -0.243 A  
ENDBRANCH   4   6
ENDBRANCH   3   4
ENDBRANCH   2   3
TORSDOF 3
ENDMDL
MODEL      138
REMARK 921   NORMALIZED FREE ENERGY PREDICTED BY IDOCK:   -3.04 KCAL/MOL
REMARK 922        TOTAL FREE ENERGY PREDICTED BY IDOCK:   -3.86 KCAL/MOL
REMARK 923 INTER-LIGAND FREE ENERGY PREDICTED BY IDOCK:   -3.48 KCAL/MOL
REMARK 924 INTRA-LIGAND FREE ENERGY PREDICTED BY IDOCK:   -0.38 KCAL/MOL
REMARK 927      BINDING AFFINITY PREDICTED BY RF-SCORE:    0.00 PKD
ROOT
HETATM    1  C   UNL     1     -12.283  12.512  65.161  1.00  0.00    -0.509 C  
HETATM    2  C   UNL     1     -11.449  13.366  65.008  1.00  0.00    -0.331 C  
ENDROOT
BRANCH   2   3
HETATM    3  C   UNL     1     -10.462  14.406  64.708  1.00  0.00    -0.367 C  
BRANCH   3   4
HETATM    4  N   UNL     1     -10.826  15.669  65.343  1.00  0.00    -0.377 NA 
HETATM    5  H   UNL     1     -11.822  15.693  65.561  1.00  0.00     0.000 HD 
BRANCH   4   6
HETATM    6  C   UNL     1     -10.018  15.959  66.533  1.00  0.00    -0.272 C  
HETATM    7  C   UNL     1      -8.710  15.126  66.491  1.00  0.00    -0.280 C  
HETATM    8  C   UNL     1      -8.779  14.020  67.555  1.00  0.00    -0.201 C  
HETATM    9  C   UNL     1      -9.991  14.379  68.347  1.00  0.00    -0.241 A  
HETATM   10  C   UNL     1     -10.483  13.718  69.462  1.00  0.00     0.251 A  
HETATM   11  C   UNL     1     -11.647  14.197  70.067  1.00  0.00    -0.315 A  
HETATM   12  C   UNL     1     -12.273  15.349  69.581  1.00  0.00    -0.312 A  
HETATM   13  C   UNL     1     -11.755  16.018  68.472  1.00  0.00    -0.244 A  
HETATM   14  C   UNL     1     -10.643  15.496  67.823  1.00  0.00    -0.281 A  
ENDBRANCH   4   6
ENDBRANCH   3   4
ENDBRANCH   2   3
TORSDOF 3
ENDMDL
MODEL      139
REMARK 921   NORMALIZED FREE ENERGY PREDICTED BY IDOCK:   -3.03 KCAL/MOL
REMARK 922        TOTAL FREE ENERGY PREDICTED BY IDOCK:   -3.86 KCAL/MOL
REMARK 923 INTER-LIGAND FREE ENERGY PREDICTED BY IDOCK:   -3.59 KCAL/MOL
REMARK 924 INTRA-LIGAND FREE ENERGY PREDICTED BY IDOCK:   -0.26 KCAL/MOL
REMARK 927      BINDING AFFINITY PREDICTED BY RF-SCORE:    0.00 PKD
ROOT
HETATM    1  C   UNL     1      -6.672  19.696  69.181  1.00  0.00    -0.383 C  
HETATM    2  C   UNL     1      -7.723  19.352  68.708  1.00  0.00    -0.397 C  
ENDROOT
BRANCH   2   3
HETATM    3  C   UNL     1      -8.943  18.881  68.046  1.00  0.00    -0.305 C  
BRANCH   3   4
HETATM    4  N   UNL     1      -8.818  17.480  67.659  1.00  0.00    -0.226 NA 
HETATM    5  H   UNL     1      -7.898  17.292  67.262  1.00  0.00     0.000 HD 
BRANCH   4   6
HETATM    6  C   UNL     1      -9.114  16.557  68.762  1.00  0.00    -0.256 C  
HETATM    7  C   UNL     1      -7.838  15.754  69.127  1.00  0.00    -0.227 C  
HETATM    8  C   UNL     1      -8.008  14.297  68.669  1.00  0.00    -0.139 C  
HETATM    9  C   UNL     1      -9.446  14.223  68.282  1.00  0.00    -0.209 A  
HETATM   10  C   UNL     1     -10.131  13.105  67.831  1.00  0.00    -0.232 A  
HETATM   11  C   UNL     1     -11.482  13.233  67.501  1.00  0.00    -0.361 A  
HETATM   12  C   UNL     1     -12.137  14.457  67.669  1.00  0.00    -0.312 A  
HETATM   13  C   UNL     1     -11.443  15.569  68.145  1.00  0.00    -0.332 A  
HETATM   14  C   UNL     1     -10.080  15.461  68.397  1.00  0.00    -0.215 A  
ENDBRANCH   4   6
ENDBRANCH   3   4
ENDBRANCH   2   3
TORSDOF 3
ENDMDL
MODEL      140
REMARK 921   NORMALIZED FREE ENERGY PREDICTED BY IDOCK:   -3.03 KCAL/MOL
REMARK 922        TOTAL FREE ENERGY PREDICTED BY IDOCK:   -3.86 KCAL/MOL
REMARK 923 INTER-LIGAND FREE ENERGY PREDICTED BY IDOCK:   -3.55 KCAL/MOL
REMARK 924 INTRA-LIGAND FREE ENERGY PREDICTED BY IDOCK:   -0.31 KCAL/MOL
REMARK 927      BINDING AFFINITY PREDICTED BY RF-SCORE:    0.00 PKD
ROOT
HETATM    1  C   UNL     1     -12.297  11.955  71.043  1.00  0.00    -0.362 C  
HETATM    2  C   UNL     1     -11.936  12.153  69.912  1.00  0.00    -0.380 C  
ENDROOT
BRANCH   2   3
HETATM    3  C   UNL     1     -11.602  12.444  68.515  1.00  0.00    -0.313 C  
BRANCH   3   4
HETATM    4  N   UNL     1     -11.552  11.218  67.725  1.00  0.00    -0.531 NA 
HETATM    5  H   UNL     1     -12.058  11.329  66.847  1.00  0.00     0.000 HD 
BRANCH   4   6
HETATM    6  C   UNL     1     -10.180  10.751  67.488  1.00  0.00    -0.196 C  
HETATM    7  C   UNL     1      -9.868  10.799  65.969  1.00  0.00    -0.285 C  
HETATM    8  C   UNL     1      -9.803   9.365  65.420  1.00  0.00    -0.159 C  
HETATM    9  C   UNL     1      -9.828   8.524  66.651  1.00  0.00    -0.342 A  
HETATM   10  C   UNL     1      -9.749   7.141  66.716  1.00  0.00    -0.252 A  
HETATM   11  C   UNL     1      -9.803   6.524  67.968  1.00  0.00    -0.129 A  
HETATM   12  C   UNL     1      -9.886   7.293  69.132  1.00  0.00    -0.166 A  
HETATM   13  C   UNL     1      -9.941   8.685  69.055  1.00  0.00    -0.197 A  
HETATM   14  C   UNL     1      -9.969   9.294  67.806  1.00  0.00    -0.235 A  
ENDBRANCH   4   6
ENDBRANCH   3   4
ENDBRANCH   2   3
TORSDOF 3
ENDMDL
MODEL      141
REMARK 921   NORMALIZED FREE ENERGY PREDICTED BY IDOCK:   -3.01 KCAL/MOL
REMARK 922        TOTAL FREE ENERGY PREDICTED BY IDOCK:   -3.83 KCAL/MOL
REMARK 923 INTER-LIGAND FREE ENERGY PREDICTED BY IDOCK:   -3.49 KCAL/MOL
REMARK 924 INTRA-LIGAND FREE ENERGY PREDICTED BY IDOCK:   -0.34 KCAL/MOL
REMARK 927      BINDING AFFINITY PREDICTED BY RF-SCORE:    0.00 PKD
ROOT
HETATM    1  C   UNL     1     -10.084  17.368  68.352  1.00  0.00    -0.347 C  
HETATM    2  C   UNL     1      -9.559  16.839  67.408  1.00  0.00    -0.236 C  
ENDROOT
BRANCH   2   3
HETATM    3  C   UNL     1      -9.016  16.222  66.195  1.00  0.00    -0.339 C  
BRANCH   3   4
HETATM    4  N   UNL     1      -9.043  14.767  66.293  1.00  0.00    -0.468 NA 
HETATM    5  H   UNL     1      -8.414  14.343  65.613  1.00  0.00     0.000 HD 
BRANCH   4   6
HETATM    6  C   UNL     1      -8.755  14.284  67.650  1.00  0.00    -0.191 C  
HETATM    7  C   UNL     1      -7.416  13.501  67.651  1.00  0.00    -0.187 C  
HETATM    8  C   UNL     1      -7.705  12.003  67.836  1.00  0.00    -0.134 C  
HETATM    9  C   UNL     1      -9.155  11.973  68.182  1.00  0.00    -0.191 A  
HETATM   10  C   UNL     1      -9.914  10.854  68.490  1.00  0.00    -0.188 A  
HETATM   11  C   UNL     1     -11.271  11.021  68.777  1.00  0.00    -0.327 A  
HETATM   12  C   UNL     1     -11.835  12.300  68.799  1.00  0.00    -0.356 A  
HETATM   13  C   UNL     1     -11.056  13.420  68.511  1.00  0.00    -0.299 A  
HETATM   14  C   UNL     1      -9.726  13.245  68.147  1.00  0.00    -0.227 A  
ENDBRANCH   4   6
ENDBRANCH   3   4
ENDBRANCH   2   3
TORSDOF 3
ENDMDL
MODEL      142
REMARK 921   NORMALIZED FREE ENERGY PREDICTED BY IDOCK:   -3.00 KCAL/MOL
REMARK 922        TOTAL FREE ENERGY PREDICTED BY IDOCK:   -3.82 KCAL/MOL
REMARK 923 INTER-LIGAND FREE ENERGY PREDICTED BY IDOCK:   -3.49 KCAL/MOL
REMARK 924 INTRA-LIGAND FREE ENERGY PREDICTED BY IDOCK:   -0.33 KCAL/MOL
REMARK 927      BINDING AFFINITY PREDICTED BY RF-SCORE:    0.00 PKD
ROOT
HETATM    1  C   UNL     1      -6.308  20.024  70.248  1.00  0.00    -0.354 C  
HETATM    2  C   UNL     1      -6.485  19.857  69.069  1.00  0.00    -0.356 C  
ENDROOT
BRANCH   2   3
HETATM    3  C   UNL     1      -6.778  19.743  67.638  1.00  0.00    -0.234 C  
BRANCH   3   4
HETATM    4  N   UNL     1      -6.738  18.349  67.208  1.00  0.00    -0.195 NA 
HETATM    5  H   UNL     1      -5.803  17.958  67.322  1.00  0.00     0.000 HD 
BRANCH   4   6
HETATM    6  C   UNL     1      -7.743  17.518  67.883  1.00  0.00    -0.213 C  
HETATM    7  C   UNL     1      -7.104  16.170  68.308  1.00  0.00    -0.130 C  
HETATM    8  C   UNL     1      -7.655  15.045  67.418  1.00  0.00    -0.233 C  
HETATM    9  C   UNL     1      -8.767  15.706  66.677  1.00  0.00    -0.333 A  
HETATM   10  C   UNL     1      -9.626  15.115  65.763  1.00  0.00    -0.344 A  
HETATM   11  C   UNL     1     -10.605  15.903  65.154  1.00  0.00    -0.421 A  
HETATM   12  C   UNL     1     -10.742  17.251  65.500  1.00  0.00    -0.105 A  
HETATM   13  C   UNL     1      -9.886  17.829  66.438  1.00  0.00    -0.328 A  
HETATM   14  C   UNL     1      -8.862  17.064  66.983  1.00  0.00    -0.242 A  
ENDBRANCH   4   6
ENDBRANCH   3   4
ENDBRANCH   2   3
TORSDOF 3
ENDMDL
MODEL      143
REMARK 921   NORMALIZED FREE ENERGY PREDICTED BY IDOCK:   -3.00 KCAL/MOL
REMARK 922        TOTAL FREE ENERGY PREDICTED BY IDOCK:   -3.82 KCAL/MOL
REMARK 923 INTER-LIGAND FREE ENERGY PREDICTED BY IDOCK:   -3.46 KCAL/MOL
REMARK 924 INTRA-LIGAND FREE ENERGY PREDICTED BY IDOCK:   -0.36 KCAL/MOL
REMARK 927      BINDING AFFINITY PREDICTED BY RF-SCORE:    0.00 PKD
ROOT
HETATM    1  C   UNL     1     -12.590  12.549  63.323  1.00  0.00    -0.326 C  
HETATM    2  C   UNL     1     -11.714  13.110  63.928  1.00  0.00    -0.515 C  
ENDROOT
BRANCH   2   3
HETATM    3  C   UNL     1     -10.639  13.867  64.574  1.00  0.00    -0.354 C  
BRANCH   3   4
HETATM    4  N   UNL     1      -9.752  12.980  65.320  1.00  0.00    -0.497 NA 
HETATM    5  H   UNL     1      -8.987  13.502  65.746  1.00  0.00     0.000 HD 
BRANCH   4   6
HETATM    6  C   UNL     1     -10.464  12.176  66.321  1.00  0.00    -0.239 C  
HETATM    7  C   UNL     1     -10.333  12.845  67.715  1.00  0.00    -0.223 C  
HETATM    8  C   UNL     1      -9.395  12.004  68.595  1.00  0.00    -0.056 C  
HETATM    9  C   UNL     1      -9.202  10.757  67.798  1.00  0.00    -0.155 A  
HETATM   10  C   UNL     1      -8.464   9.642  68.164  1.00  0.00    -0.118 A  
HETATM   11  C   UNL     1      -8.387   8.567  67.275  1.00  0.00    -0.115 A  
HETATM   12  C   UNL     1      -9.080   8.603  66.061  1.00  0.00    -0.255 A  
HETATM   13  C   UNL     1      -9.838   9.722  65.715  1.00  0.00    -0.360 A  
HETATM   14  C   UNL     1      -9.850  10.822  66.564  1.00  0.00    -0.246 A  
ENDBRANCH   4   6
ENDBRANCH   3   4
ENDBRANCH   2   3
TORSDOF 3
ENDMDL
MODEL      144
REMARK 921   NORMALIZED FREE ENERGY PREDICTED BY IDOCK:   -3.00 KCAL/MOL
REMARK 922        TOTAL FREE ENERGY PREDICTED BY IDOCK:   -3.82 KCAL/MOL
REMARK 923 INTER-LIGAND FREE ENERGY PREDICTED BY IDOCK:   -3.99 KCAL/MOL
REMARK 924 INTRA-LIGAND FREE ENERGY PREDICTED BY IDOCK:    0.17 KCAL/MOL
REMARK 927      BINDING AFFINITY PREDICTED BY RF-SCORE:    0.00 PKD
ROOT
HETATM    1  C   UNL     1      -6.259  18.005  65.338  1.00  0.00    -0.148 C  
HETATM    2  C   UNL     1      -7.239  17.528  65.847  1.00  0.00    -0.195 C  
ENDROOT
BRANCH   2   3
HETATM    3  C   UNL     1      -8.438  16.873  66.376  1.00  0.00    -0.290 C  
BRANCH   3   4
HETATM    4  N   UNL     1      -8.370  16.756  67.829  1.00  0.00    -0.186 NA 
HETATM    5  H   UNL     1      -7.441  16.458  68.128  1.00  0.00     0.000 HD 
BRANCH   4   6
HETATM    6  C   UNL     1      -8.775  17.987  68.518  1.00  0.00    -0.295 C  
HETATM    7  C   UNL     1      -9.976  18.630  67.774  1.00  0.00    -0.381 C  
HETATM    8  C   UNL     1      -9.506  19.906  67.059  1.00  0.00    -0.505 C  
HETATM    9  C   UNL     1      -8.130  20.114  67.595  1.00  0.00    -0.334 A  
HETATM   10  C   UNL     1      -7.270  21.161  67.300  1.00  0.00    -0.280 A  
HETATM   11  C   UNL     1      -6.005  21.179  67.893  1.00  0.00    -0.406 A  
HETATM   12  C   UNL     1      -5.638  20.183  68.802  1.00  0.00    -0.278 A  
HETATM   13  C   UNL     1      -6.520  19.147  69.109  1.00  0.00    -0.321 A  
HETATM   14  C   UNL     1      -7.747  19.086  68.458  1.00  0.00    -0.368 A  
ENDBRANCH   4   6
ENDBRANCH   3   4
ENDBRANCH   2   3
TORSDOF 3
ENDMDL
MODEL      145
REMARK 921   NORMALIZED FREE ENERGY PREDICTED BY IDOCK:   -2.96 KCAL/MOL
REMARK 922        TOTAL FREE ENERGY PREDICTED BY IDOCK:   -3.77 KCAL/MOL
REMARK 923 INTER-LIGAND FREE ENERGY PREDICTED BY IDOCK:   -3.43 KCAL/MOL
REMARK 924 INTRA-LIGAND FREE ENERGY PREDICTED BY IDOCK:   -0.34 KCAL/MOL
REMARK 927      BINDING AFFINITY PREDICTED BY RF-SCORE:    0.00 PKD
ROOT
HETATM    1  C   UNL     1      -8.316  10.312  69.224  1.00  0.00    -0.167 C  
HETATM    2  C   UNL     1      -9.441  10.169  69.625  1.00  0.00    -0.226 C  
ENDROOT
BRANCH   2   3
HETATM    3  C   UNL     1     -10.801   9.879  70.090  1.00  0.00    -0.304 C  
BRANCH   3   4
HETATM    4  N   UNL     1     -11.272   8.604  69.559  1.00  0.00    -0.438 NA 
HETATM    5  H   UNL     1     -10.605   8.217  68.893  1.00  0.00     0.000 HD 
BRANCH   4   6
HETATM    6  C   UNL     1     -11.588   7.633  70.614  1.00  0.00    -0.232 C  
HETATM    7  C   UNL     1     -11.313   8.264  72.004  1.00  0.00    -0.390 C  
HETATM    8  C   UNL     1     -10.066   7.612  72.620  1.00  0.00    -0.298 C  
HETATM    9  C   UNL     1      -9.792   6.464  71.708  1.00  0.00    -0.178 A  
HETATM   10  C   UNL     1      -8.786   5.519  71.838  1.00  0.00    -0.135 A  
HETATM   11  C   UNL     1      -8.676   4.518  70.870  1.00  0.00    -0.131 A  
HETATM   12  C   UNL     1      -9.595   4.448  69.819  1.00  0.00    -0.276 A  
HETATM   13  C   UNL     1     -10.617   5.391  69.712  1.00  0.00    -0.347 A  
HETATM   14  C   UNL     1     -10.677   6.433  70.630  1.00  0.00    -0.310 A  
ENDBRANCH   4   6
ENDBRANCH   3   4
ENDBRANCH   2   3
TORSDOF 3
ENDMDL
MODEL      146
REMARK 921   NORMALIZED FREE ENERGY PREDICTED BY IDOCK:   -2.95 KCAL/MOL
REMARK 922        TOTAL FREE ENERGY PREDICTED BY IDOCK:   -3.76 KCAL/MOL
REMARK 923 INTER-LIGAND FREE ENERGY PREDICTED BY IDOCK:   -3.84 KCAL/MOL
REMARK 924 INTRA-LIGAND FREE ENERGY PREDICTED BY IDOCK:    0.07 KCAL/MOL
REMARK 927      BINDING AFFINITY PREDICTED BY RF-SCORE:    0.00 PKD
ROOT
HETATM    1  C   UNL     1      -9.023  11.298  66.080  1.00  0.00    -0.210 C  
HETATM    2  C   UNL     1      -9.961  12.033  65.913  1.00  0.00    -0.260 C  
ENDROOT
BRANCH   2   3
HETATM    3  C   UNL     1     -11.156  12.874  65.800  1.00  0.00    -0.284 C  
BRANCH   3   4
HETATM    4  N   UNL     1     -11.740  13.129  67.112  1.00  0.00    -0.360 NA 
HETATM    5  H   UNL     1     -12.070  12.264  67.539  1.00  0.00     0.000 HD 
BRANCH   4   6
HETATM    6  C   UNL     1     -10.826  13.845  68.011  1.00  0.00    -0.246 C  
HETATM    7  C   UNL     1     -11.566  14.212  69.324  1.00  0.00    -0.350 C  
HETATM    8  C   UNL     1     -11.815  15.728  69.359  1.00  0.00    -0.361 C  
HETATM    9  C   UNL     1     -11.011  16.235  68.210  1.00  0.00    -0.348 A  
HETATM   10  C   UNL     1     -10.857  17.557  67.822  1.00  0.00    -0.251 A  
HETATM   11  C   UNL     1     -10.070  17.841  66.703  1.00  0.00    -0.350 A  
HETATM   12  C   UNL     1      -9.414  16.811  66.022  1.00  0.00    -0.257 A  
HETATM   13  C   UNL     1      -9.558  15.487  66.437  1.00  0.00    -0.317 A  
HETATM   14  C   UNL     1     -10.405  15.198  67.500  1.00  0.00    -0.242 A  
ENDBRANCH   4   6
ENDBRANCH   3   4
ENDBRANCH   2   3
TORSDOF 3
ENDMDL
MODEL      147
REMARK 921   NORMALIZED FREE ENERGY PREDICTED BY IDOCK:   -2.94 KCAL/MOL
REMARK 922        TOTAL FREE ENERGY PREDICTED BY IDOCK:   -3.75 KCAL/MOL
REMARK 923 INTER-LIGAND FREE ENERGY PREDICTED BY IDOCK:   -3.52 KCAL/MOL
REMARK 924 INTRA-LIGAND FREE ENERGY PREDICTED BY IDOCK:   -0.23 KCAL/MOL
REMARK 927      BINDING AFFINITY PREDICTED BY RF-SCORE:    0.00 PKD
ROOT
HETATM    1  C   UNL     1     -11.770  14.484  65.060  1.00  0.00    -0.392 C  
HETATM    2  C   UNL     1     -11.594  13.307  65.235  1.00  0.00    -0.335 C  
ENDROOT
BRANCH   2   3
HETATM    3  C   UNL     1     -11.291  11.902  65.522  1.00  0.00    -0.277 C  
BRANCH   3   4
HETATM    4  N   UNL     1     -11.233  11.665  66.960  1.00  0.00    -0.305 NA 
HETATM    5  H   UNL     1     -12.075  11.192  67.287  1.00  0.00     0.000 HD 
BRANCH   4   6
HETATM    6  C   UNL     1     -10.026  10.933  67.366  1.00  0.00    -0.186 C  
HETATM    7  C   UNL     1      -9.454  10.156  66.151  1.00  0.00    -0.238 C  
HETATM    8  C   UNL     1      -9.697   8.652  66.350  1.00  0.00    -0.333 C  
HETATM    9  C   UNL     1     -10.170   8.564  67.762  1.00  0.00    -0.283 A  
HETATM   10  C   UNL     1     -10.493   7.411  68.461  1.00  0.00    -0.215 A  
HETATM   11  C   UNL     1     -10.934   7.528  69.781  1.00  0.00    -0.195 A  
HETATM   12  C   UNL     1     -11.001   8.783  70.395  1.00  0.00    -0.262 A  
HETATM   13  C   UNL     1     -10.651   9.933  69.688  1.00  0.00    -0.273 A  
HETATM   14  C   UNL     1     -10.289   9.824  68.351  1.00  0.00    -0.230 A  
ENDBRANCH   4   6
ENDBRANCH   3   4
ENDBRANCH   2   3
TORSDOF 3
ENDMDL
MODEL      148
REMARK 921   NORMALIZED FREE ENERGY PREDICTED BY IDOCK:   -2.94 KCAL/MOL
REMARK 922        TOTAL FREE ENERGY PREDICTED BY IDOCK:   -3.75 KCAL/MOL
REMARK 923 INTER-LIGAND FREE ENERGY PREDICTED BY IDOCK:   -3.83 KCAL/MOL
REMARK 924 INTRA-LIGAND FREE ENERGY PREDICTED BY IDOCK:    0.09 KCAL/MOL
REMARK 927      BINDING AFFINITY PREDICTED BY RF-SCORE:    0.00 PKD
ROOT
HETATM    1  C   UNL     1      -6.409  13.795  69.696  1.00  0.00    -0.116 C  
HETATM    2  C   UNL     1      -6.869  14.898  69.563  1.00  0.00    -0.172 C  
ENDROOT
BRANCH   2   3
HETATM    3  C   UNL     1      -7.495  16.200  69.315  1.00  0.00    -0.222 C  
BRANCH   3   4
HETATM    4  N   UNL     1      -8.846  16.035  68.786  1.00  0.00    -0.213 NA 
HETATM    5  H   UNL     1      -9.524  16.545  69.353  1.00  0.00     0.000 HD 
BRANCH   4   6
HETATM    6  C   UNL     1      -8.951  16.413  67.371  1.00  0.00    -0.191 C  
HETATM    7  C   UNL     1      -7.541  16.410  66.724  1.00  0.00    -0.290 C  
HETATM    8  C   UNL     1      -7.107  17.858  66.450  1.00  0.00    -0.292 C  
HETATM    9  C   UNL     1      -8.348  18.645  66.705  1.00  0.00    -0.287 A  
HETATM   10  C   UNL     1      -8.510  20.014  66.561  1.00  0.00    -0.359 A  
HETATM   11  C   UNL     1      -9.752  20.578  66.863  1.00  0.00    -0.516 A  
HETATM   12  C   UNL     1     -10.820  19.766  67.256  1.00  0.00    -0.469 A  
HETATM   13  C   UNL     1     -10.650  18.387  67.374  1.00  0.00    -0.445 A  
HETATM   14  C   UNL     1      -9.394  17.836  67.152  1.00  0.00    -0.264 A  
ENDBRANCH   4   6
ENDBRANCH   3   4
ENDBRANCH   2   3
TORSDOF 3
ENDMDL
MODEL      149
REMARK 921   NORMALIZED FREE ENERGY PREDICTED BY IDOCK:   -2.93 KCAL/MOL
REMARK 922        TOTAL FREE ENERGY PREDICTED BY IDOCK:   -3.74 KCAL/MOL
REMARK 923 INTER-LIGAND FREE ENERGY PREDICTED BY IDOCK:   -3.55 KCAL/MOL
REMARK 924 INTRA-LIGAND FREE ENERGY PREDICTED BY IDOCK:   -0.19 KCAL/MOL
REMARK 927      BINDING AFFINITY PREDICTED BY RF-SCORE:    0.00 PKD
ROOT
HETATM    1  C   UNL     1      -7.017  18.018  67.735  1.00  0.00    -0.209 C  
HETATM    2  C   UNL     1      -7.665  17.161  67.193  1.00  0.00    -0.205 C  
ENDROOT
BRANCH   2   3
HETATM    3  C   UNL     1      -8.402  16.149  66.433  1.00  0.00    -0.322 C  
BRANCH   3   4
HETATM    4  N   UNL     1      -8.576  14.931  67.218  1.00  0.00    -0.199 NA 
HETATM    5  H   UNL     1      -8.858  15.149  68.173  1.00  0.00     0.000 HD 
BRANCH   4   6
HETATM    6  C   UNL     1      -9.510  13.983  66.596  1.00  0.00    -0.287 C  
HETATM    7  C   UNL     1     -10.843  14.705  66.266  1.00  0.00    -0.321 C  
HETATM    8  C   UNL     1     -11.937  14.214  67.227  1.00  0.00    -0.449 C  
HETATM    9  C   UNL     1     -11.295  13.059  67.918  1.00  0.00    -0.327 A  
HETATM   10  C   UNL     1     -11.874  12.229  68.865  1.00  0.00    -0.355 A  
HETATM   11  C   UNL     1     -11.107  11.199  69.415  1.00  0.00    -0.314 A  
HETATM   12  C   UNL     1      -9.796  10.985  68.978  1.00  0.00    -0.165 A  
HETATM   13  C   UNL     1      -9.232  11.812  68.007  1.00  0.00    -0.181 A  
HETATM   14  C   UNL     1      -9.969  12.886  67.520  1.00  0.00    -0.215 A  
ENDBRANCH   4   6
ENDBRANCH   3   4
ENDBRANCH   2   3
TORSDOF 3
ENDMDL
MODEL      150
REMARK 921   NORMALIZED FREE ENERGY PREDICTED BY IDOCK:   -2.90 KCAL/MOL
REMARK 922        TOTAL FREE ENERGY PREDICTED BY IDOCK:   -3.70 KCAL/MOL
REMARK 923 INTER-LIGAND FREE ENERGY PREDICTED BY IDOCK:   -3.53 KCAL/MOL
REMARK 924 INTRA-LIGAND FREE ENERGY PREDICTED BY IDOCK:   -0.17 KCAL/MOL
REMARK 927      BINDING AFFINITY PREDICTED BY RF-SCORE:    0.00 PKD
ROOT
HETATM    1  C   UNL     1     -12.701   8.107  72.247  1.00  0.00    -0.292 C  
HETATM    2  C   UNL     1     -12.080   7.359  71.537  1.00  0.00    -0.357 C  
ENDROOT
BRANCH   2   3
HETATM    3  C   UNL     1     -11.421   6.435  70.610  1.00  0.00    -0.362 C  
BRANCH   3   4
HETATM    4  N   UNL     1     -11.357   7.003  69.267  1.00  0.00    -0.513 NA 
HETATM    5  H   UNL     1     -12.066   7.725  69.141  1.00  0.00     0.000 HD 
BRANCH   4   6
HETATM    6  C   UNL     1     -10.021   7.512  68.930  1.00  0.00    -0.168 C  
HETATM    7  C   UNL     1      -9.204   7.733  70.230  1.00  0.00    -0.156 C  
HETATM    8  C   UNL     1      -9.050   9.241  70.481  1.00  0.00    -0.307 C  
HETATM    9  C   UNL     1      -9.552   9.854  69.218  1.00  0.00    -0.215 A  
HETATM   10  C   UNL     1      -9.593  11.204  68.906  1.00  0.00    -0.154 A  
HETATM   11  C   UNL     1     -10.115  11.593  67.670  1.00  0.00    -0.204 A  
HETATM   12  C   UNL     1     -10.542  10.630  66.750  1.00  0.00    -0.297 A  
HETATM   13  C   UNL     1     -10.474   9.273  67.066  1.00  0.00    -0.303 A  
HETATM   14  C   UNL     1     -10.030   8.892  68.327  1.00  0.00    -0.201 A  
ENDBRANCH   4   6
ENDBRANCH   3   4
ENDBRANCH   2   3
TORSDOF 3
ENDMDL
MODEL      151
REMARK 921   NORMALIZED FREE ENERGY PREDICTED BY IDOCK:   -2.88 KCAL/MOL
REMARK 922        TOTAL FREE ENERGY PREDICTED BY IDOCK:   -3.68 KCAL/MOL
REMARK 923 INTER-LIGAND FREE ENERGY PREDICTED BY IDOCK:   -3.40 KCAL/MOL
REMARK 924 INTRA-LIGAND FREE ENERGY PREDICTED BY IDOCK:   -0.28 KCAL/MOL
REMARK 927      BINDING AFFINITY PREDICTED BY RF-SCORE:    0.00 PKD
ROOT
HETATM    1  C   UNL     1     -10.828  12.871  67.019  1.00  0.00    -0.282 C  
HETATM    2  C   UNL     1     -11.317  12.408  68.016  1.00  0.00    -0.340 C  
ENDROOT
BRANCH   2   3
HETATM    3  C   UNL     1     -12.000  11.803  69.163  1.00  0.00    -0.293 C  
BRANCH   3   4
HETATM    4  N   UNL     1     -11.040  11.195  70.079  1.00  0.00    -0.467 NA 
HETATM    5  H   UNL     1     -11.068  11.649  70.991  1.00  0.00     0.000 HD 
BRANCH   4   6
HETATM    6  C   UNL     1     -11.219   9.743  70.207  1.00  0.00    -0.288 C  
HETATM    7  C   UNL     1     -11.406   9.371  71.702  1.00  0.00    -0.452 C  
HETATM    8  C   UNL     1     -10.147   8.648  72.205  1.00  0.00    -0.388 C  
HETATM    9  C   UNL     1      -9.372   8.395  70.956  1.00  0.00    -0.211 A  
HETATM   10  C   UNL     1      -8.162   7.728  70.847  1.00  0.00    -0.107 A  
HETATM   11  C   UNL     1      -7.576   7.601  69.585  1.00  0.00    -0.093 A  
HETATM   12  C   UNL     1      -8.227   8.097  68.451  1.00  0.00    -0.129 A  
HETATM   13  C   UNL     1      -9.456   8.746  68.571  1.00  0.00    -0.149 A  
HETATM   14  C   UNL     1      -9.998   8.943  69.835  1.00  0.00    -0.197 A  
ENDBRANCH   4   6
ENDBRANCH   3   4
ENDBRANCH   2   3
TORSDOF 3
ENDMDL
MODEL      152
REMARK 921   NORMALIZED FREE ENERGY PREDICTED BY IDOCK:   -2.88 KCAL/MOL
REMARK 922        TOTAL FREE ENERGY PREDICTED BY IDOCK:   -3.67 KCAL/MOL
REMARK 923 INTER-LIGAND FREE ENERGY PREDICTED BY IDOCK:   -3.27 KCAL/MOL
REMARK 924 INTRA-LIGAND FREE ENERGY PREDICTED BY IDOCK:   -0.40 KCAL/MOL
REMARK 927      BINDING AFFINITY PREDICTED BY RF-SCORE:    0.00 PKD
ROOT
HETATM    1  C   UNL     1      -7.433   8.714  71.554  1.00  0.00    -0.124 C  
HETATM    2  C   UNL     1      -7.727   8.624  70.390  1.00  0.00    -0.081 C  
ENDROOT
BRANCH   2   3
HETATM    3  C   UNL     1      -8.077   8.632  68.967  1.00  0.00    -0.121 C  
BRANCH   3   4
HETATM    4  N   UNL     1      -9.000   7.547  68.652  1.00  0.00    -0.133 NA 
HETATM    5  H   UNL     1      -8.909   6.783  69.322  1.00  0.00     0.000 HD 
BRANCH   4   6
HETATM    6  C   UNL     1     -10.394   7.998  68.556  1.00  0.00    -0.199 C  
HETATM    7  C   UNL     1     -10.430   9.511  68.213  1.00  0.00    -0.265 C  
HETATM    8  C   UNL     1     -10.899  10.299  69.446  1.00  0.00    -0.282 C  
HETATM    9  C   UNL     1     -11.357   9.232  70.383  1.00  0.00    -0.283 A  
HETATM   10  C   UNL     1     -11.916   9.411  71.639  1.00  0.00    -0.465 A  
HETATM   11  C   UNL     1     -12.273   8.283  72.381  1.00  0.00    -0.412 A  
HETATM   12  C   UNL     1     -12.112   7.003  71.843  1.00  0.00    -0.358 A  
HETATM   13  C   UNL     1     -11.570   6.837  70.568  1.00  0.00    -0.426 A  
HETATM   14  C   UNL     1     -11.141   7.956  69.863  1.00  0.00    -0.123 A  
ENDBRANCH   4   6
ENDBRANCH   3   4
ENDBRANCH   2   3
TORSDOF 3
ENDMDL
MODEL      153
REMARK 921   NORMALIZED FREE ENERGY PREDICTED BY IDOCK:   -2.87 KCAL/MOL
REMARK 922        TOTAL FREE ENERGY PREDICTED BY IDOCK:   -3.66 KCAL/MOL
REMARK 923 INTER-LIGAND FREE ENERGY PREDICTED BY IDOCK:   -3.51 KCAL/MOL
REMARK 924 INTRA-LIGAND FREE ENERGY PREDICTED BY IDOCK:   -0.15 KCAL/MOL
REMARK 927      BINDING AFFINITY PREDICTED BY RF-SCORE:    0.00 PKD
ROOT
HETATM    1  C   UNL     1      -5.496  18.814  70.420  1.00  0.00    -0.231 C  
HETATM    2  C   UNL     1      -5.855  18.740  69.274  1.00  0.00    -0.237 C  
ENDROOT
BRANCH   2   3
HETATM    3  C   UNL     1      -6.180  18.670  67.846  1.00  0.00    -0.188 C  
BRANCH   3   4
HETATM    4  N   UNL     1      -7.440  19.349  67.565  1.00  0.00    -0.237 NA 
HETATM    5  H   UNL     1      -7.283  20.197  67.020  1.00  0.00     0.000 HD 
BRANCH   4   6
HETATM    6  C   UNL     1      -8.421  18.476  66.910  1.00  0.00    -0.273 C  
HETATM    7  C   UNL     1      -9.642  19.316  66.450  1.00  0.00    -0.425 C  
HETATM    8  C   UNL     1     -10.849  18.986  67.342  1.00  0.00    -0.496 C  
HETATM    9  C   UNL     1     -10.386  17.803  68.124  1.00  0.00    -0.393 A  
HETATM   10  C   UNL     1     -11.118  17.082  69.055  1.00  0.00     0.018 A  
HETATM   11  C   UNL     1     -10.507  16.005  69.701  1.00  0.00    -0.300 A  
HETATM   12  C   UNL     1      -9.198  15.636  69.375  1.00  0.00    -0.279 A  
HETATM   13  C   UNL     1      -8.480  16.355  68.420  1.00  0.00    -0.204 A  
HETATM   14  C   UNL     1      -9.061  17.475  67.836  1.00  0.00    -0.261 A  
ENDBRANCH   4   6
ENDBRANCH   3   4
ENDBRANCH   2   3
TORSDOF 3
ENDMDL
MODEL      154
REMARK 921   NORMALIZED FREE ENERGY PREDICTED BY IDOCK:   -2.86 KCAL/MOL
REMARK 922        TOTAL FREE ENERGY PREDICTED BY IDOCK:   -3.66 KCAL/MOL
REMARK 923 INTER-LIGAND FREE ENERGY PREDICTED BY IDOCK:   -3.22 KCAL/MOL
REMARK 924 INTRA-LIGAND FREE ENERGY PREDICTED BY IDOCK:   -0.43 KCAL/MOL
REMARK 927      BINDING AFFINITY PREDICTED BY RF-SCORE:    0.00 PKD
ROOT
HETATM    1  C   UNL     1     -13.027   6.945  71.830  1.00  0.00    -0.264 C  
HETATM    2  C   UNL     1     -12.570   8.016  71.526  1.00  0.00    -0.332 C  
ENDROOT
BRANCH   2   3
HETATM    3  C   UNL     1     -12.109   9.368  71.202  1.00  0.00    -0.328 C  
BRANCH   3   4
HETATM    4  N   UNL     1     -11.435   9.393  69.908  1.00  0.00    -0.436 NA 
HETATM    5  H   UNL     1     -11.288  10.351  69.592  1.00  0.00     0.000 HD 
BRANCH   4   6
HETATM    6  C   UNL     1     -10.176   8.638  69.909  1.00  0.00    -0.203 C  
HETATM    7  C   UNL     1      -8.989   9.604  69.653  1.00  0.00    -0.215 C  
HETATM    8  C   UNL     1      -8.429   9.358  68.244  1.00  0.00    -0.120 C  
HETATM    9  C   UNL     1      -9.123   8.110  67.812  1.00  0.00    -0.140 A  
HETATM   10  C   UNL     1      -8.944   7.429  66.617  1.00  0.00    -0.168 A  
HETATM   11  C   UNL     1      -9.699   6.278  66.381  1.00  0.00    -0.146 A  
HETATM   12  C   UNL     1     -10.581   5.800  67.355  1.00  0.00    -0.340 A  
HETATM   13  C   UNL     1     -10.736   6.481  68.562  1.00  0.00    -0.329 A  
HETATM   14  C   UNL     1     -10.044   7.670  68.763  1.00  0.00    -0.202 A  
ENDBRANCH   4   6
ENDBRANCH   3   4
ENDBRANCH   2   3
TORSDOF 3
ENDMDL
MODEL      155
REMARK 921   NORMALIZED FREE ENERGY PREDICTED BY IDOCK:   -2.85 KCAL/MOL
REMARK 922        TOTAL FREE ENERGY PREDICTED BY IDOCK:   -3.64 KCAL/MOL
REMARK 923 INTER-LIGAND FREE ENERGY PREDICTED BY IDOCK:   -3.35 KCAL/MOL
REMARK 924 INTRA-LIGAND FREE ENERGY PREDICTED BY IDOCK:   -0.28 KCAL/MOL
REMARK 927      BINDING AFFINITY PREDICTED BY RF-SCORE:    0.00 PKD
ROOT
HETATM    1  C   UNL     1     -13.166   6.995  71.363  1.00  0.00    -0.352 C  
HETATM    2  C   UNL     1     -12.586   8.049  71.353  1.00  0.00    -0.307 C  
ENDROOT
BRANCH   2   3
HETATM    3  C   UNL     1     -11.974   9.380  71.393  1.00  0.00    -0.371 C  
BRANCH   3   4
HETATM    4  N   UNL     1     -11.561   9.804  70.059  1.00  0.00    -0.407 NA 
HETATM    5  H   UNL     1     -11.368  10.805  70.037  1.00  0.00     0.000 HD 
BRANCH   4   6
HETATM    6  C   UNL     1     -10.419   9.035  69.548  1.00  0.00    -0.219 C  
HETATM    7  C   UNL     1      -9.177   9.292  70.441  1.00  0.00    -0.291 C  
HETATM    8  C   UNL     1      -8.165  10.152  69.668  1.00  0.00    -0.176 C  
HETATM    9  C   UNL     1      -8.716  10.169  68.282  1.00  0.00    -0.120 A  
HETATM   10  C   UNL     1      -8.155  10.780  67.171  1.00  0.00    -0.124 A  
HETATM   11  C   UNL     1      -8.828  10.699  65.950  1.00  0.00    -0.187 A  
HETATM   12  C   UNL     1     -10.019   9.974  65.846  1.00  0.00    -0.339 A  
HETATM   13  C   UNL     1     -10.560   9.343  66.966  1.00  0.00    -0.272 A  
HETATM   14  C   UNL     1      -9.933   9.492  68.197  1.00  0.00    -0.191 A  
ENDBRANCH   4   6
ENDBRANCH   3   4
ENDBRANCH   2   3
TORSDOF 3
ENDMDL
MODEL      156
REMARK 921   NORMALIZED FREE ENERGY PREDICTED BY IDOCK:   -2.84 KCAL/MOL
REMARK 922        TOTAL FREE ENERGY PREDICTED BY IDOCK:   -3.62 KCAL/MOL
REMARK 923 INTER-LIGAND FREE ENERGY PREDICTED BY IDOCK:   -3.37 KCAL/MOL
REMARK 924 INTRA-LIGAND FREE ENERGY PREDICTED BY IDOCK:   -0.26 KCAL/MOL
REMARK 927      BINDING AFFINITY PREDICTED BY RF-SCORE:    0.00 PKD
ROOT
HETATM    1  C   UNL     1      -9.559   1.774  71.115  1.00  0.00    -0.206 C  
HETATM    2  C   UNL     1      -9.427   2.600  70.250  1.00  0.00    -0.171 C  
ENDROOT
BRANCH   2   3
HETATM    3  C   UNL     1      -9.262   3.517  69.119  1.00  0.00    -0.158 C  
BRANCH   3   4
HETATM    4  N   UNL     1      -9.250   4.905  69.571  1.00  0.00    -0.111 NA 
HETATM    5  H   UNL     1      -8.504   5.431  69.116  1.00  0.00     0.000 HD 
BRANCH   4   6
HETATM    6  C   UNL     1     -10.547   5.570  69.394  1.00  0.00    -0.279 C  
HETATM    7  C   UNL     1     -10.499   6.481  68.139  1.00  0.00    -0.264 C  
HETATM    8  C   UNL     1     -10.490   7.952  68.581  1.00  0.00    -0.196 C  
HETATM    9  C   UNL     1     -10.781   7.875  70.042  1.00  0.00    -0.244 A  
HETATM   10  C   UNL     1     -10.924   8.939  70.920  1.00  0.00    -0.325 A  
HETATM   11  C   UNL     1     -11.183   8.668  72.265  1.00  0.00    -0.399 A  
HETATM   12  C   UNL     1     -11.341   7.350  72.703  1.00  0.00    -0.360 A  
HETATM   13  C   UNL     1     -11.217   6.289  71.805  1.00  0.00    -0.334 A  
HETATM   14  C   UNL     1     -10.881   6.555  70.483  1.00  0.00    -0.323 A  
ENDBRANCH   4   6
ENDBRANCH   3   4
ENDBRANCH   2   3
TORSDOF 3
ENDMDL
MODEL      157
REMARK 921   NORMALIZED FREE ENERGY PREDICTED BY IDOCK:   -2.82 KCAL/MOL
REMARK 922        TOTAL FREE ENERGY PREDICTED BY IDOCK:   -3.61 KCAL/MOL
REMARK 923 INTER-LIGAND FREE ENERGY PREDICTED BY IDOCK:   -3.45 KCAL/MOL
REMARK 924 INTRA-LIGAND FREE ENERGY PREDICTED BY IDOCK:   -0.15 KCAL/MOL
REMARK 927      BINDING AFFINITY PREDICTED BY RF-SCORE:    0.00 PKD
ROOT
HETATM    1  C   UNL     1      -6.003  14.117  70.684  1.00  0.00    -0.194 C  
HETATM    2  C   UNL     1      -6.564  13.976  69.629  1.00  0.00    -0.099 C  
ENDROOT
BRANCH   2   3
HETATM    3  C   UNL     1      -7.335  13.871  68.387  1.00  0.00    -0.115 C  
BRANCH   3   4
HETATM    4  N   UNL     1      -8.333  12.811  68.482  1.00  0.00    -0.309 NA 
HETATM    5  H   UNL     1      -8.541  12.591  69.455  1.00  0.00     0.000 HD 
BRANCH   4   6
HETATM    6  C   UNL     1      -9.561  13.119  67.738  1.00  0.00    -0.208 C  
HETATM    7  C   UNL     1      -9.295  14.290  66.755  1.00  0.00    -0.290 C  
HETATM    8  C   UNL     1     -10.010  15.551  67.263  1.00  0.00    -0.238 C  
HETATM    9  C   UNL     1     -10.865  15.039  68.373  1.00  0.00    -0.256 A  
HETATM   10  C   UNL     1     -11.752  15.771  69.147  1.00  0.00    -0.398 A  
HETATM   11  C   UNL     1     -12.461  15.116  70.157  1.00  0.00    -0.361 A  
HETATM   12  C   UNL     1     -12.310  13.739  70.346  1.00  0.00    -0.423 A  
HETATM   13  C   UNL     1     -11.433  13.009  69.545  1.00  0.00    -0.289 A  
HETATM   14  C   UNL     1     -10.669  13.675  68.594  1.00  0.00    -0.272 A  
ENDBRANCH   4   6
ENDBRANCH   3   4
ENDBRANCH   2   3
TORSDOF 3
ENDMDL
MODEL      158
REMARK 921   NORMALIZED FREE ENERGY PREDICTED BY IDOCK:   -2.82 KCAL/MOL
REMARK 922        TOTAL FREE ENERGY PREDICTED BY IDOCK:   -3.60 KCAL/MOL
REMARK 923 INTER-LIGAND FREE ENERGY PREDICTED BY IDOCK:   -3.40 KCAL/MOL
REMARK 924 INTRA-LIGAND FREE ENERGY PREDICTED BY IDOCK:   -0.21 KCAL/MOL
REMARK 927      BINDING AFFINITY PREDICTED BY RF-SCORE:    0.00 PKD
ROOT
HETATM    1  C   UNL     1      -5.753  14.179  71.107  1.00  0.00    -0.222 C  
HETATM    2  C   UNL     1      -6.478  14.548  70.221  1.00  0.00    -0.144 C  
ENDROOT
BRANCH   2   3
HETATM    3  C   UNL     1      -7.392  15.088  69.211  1.00  0.00    -0.184 C  
BRANCH   3   4
HETATM    4  N   UNL     1      -8.769  15.074  69.694  1.00  0.00    -0.454 NA 
HETATM    5  H   UNL     1      -8.988  15.932  70.198  1.00  0.00     0.000 HD 
BRANCH   4   6
HETATM    6  C   UNL     1      -9.743  14.828  68.622  1.00  0.00    -0.225 C  
HETATM    7  C   UNL     1     -11.098  15.490  68.988  1.00  0.00    -0.267 C  
HETATM    8  C   UNL     1     -12.119  14.396  69.337  1.00  0.00    -0.338 C  
HETATM    9  C   UNL     1     -11.427  13.138  68.934  1.00  0.00    -0.343 A  
HETATM   10  C   UNL     1     -11.934  11.850  69.002  1.00  0.00    -0.321 A  
HETATM   11  C   UNL     1     -11.127  10.787  68.589  1.00  0.00    -0.312 A  
HETATM   12  C   UNL     1      -9.851  11.029  68.073  1.00  0.00    -0.183 A  
HETATM   13  C   UNL     1      -9.360  12.332  67.987  1.00  0.00    -0.195 A  
HETATM   14  C   UNL     1     -10.132  13.381  68.473  1.00  0.00    -0.208 A  
ENDBRANCH   4   6
ENDBRANCH   3   4
ENDBRANCH   2   3
TORSDOF 3
ENDMDL
MODEL      159
REMARK 921   NORMALIZED FREE ENERGY PREDICTED BY IDOCK:   -2.80 KCAL/MOL
REMARK 922        TOTAL FREE ENERGY PREDICTED BY IDOCK:   -3.59 KCAL/MOL
REMARK 923 INTER-LIGAND FREE ENERGY PREDICTED BY IDOCK:   -3.40 KCAL/MOL
REMARK 924 INTRA-LIGAND FREE ENERGY PREDICTED BY IDOCK:   -0.19 KCAL/MOL
REMARK 927      BINDING AFFINITY PREDICTED BY RF-SCORE:    0.00 PKD
ROOT
HETATM    1  C   UNL     1      -7.599  12.831  67.485  1.00  0.00    -0.162 C  
HETATM    2  C   UNL     1      -8.714  12.484  67.772  1.00  0.00    -0.178 C  
ENDROOT
BRANCH   2   3
HETATM    3  C   UNL     1     -10.067  12.134  68.214  1.00  0.00    -0.210 C  
BRANCH   3   4
HETATM    4  N   UNL     1     -10.099  10.788  68.775  1.00  0.00    -0.183 NA 
HETATM    5  H   UNL     1      -9.497  10.720  69.596  1.00  0.00     0.000 HD 
BRANCH   4   6
HETATM    6  C   UNL     1     -11.461  10.333  69.082  1.00  0.00    -0.147 C  
HETATM    7  C   UNL     1     -12.244  11.471  69.788  1.00  0.00    -0.310 C  
HETATM    8  C   UNL     1     -12.443  11.108  71.267  1.00  0.00    -0.466 C  
HETATM    9  C   UNL     1     -12.002   9.685  71.335  1.00  0.00    -0.480 A  
HETATM   10  C   UNL     1     -12.018   8.860  72.449  1.00  0.00    -0.320 A  
HETATM   11  C   UNL     1     -11.549   7.551  72.322  1.00  0.00    -0.354 A  
HETATM   12  C   UNL     1     -11.118   7.072  71.081  1.00  0.00    -0.288 A  
HETATM   13  C   UNL     1     -11.129   7.905  69.962  1.00  0.00    -0.165 A  
HETATM   14  C   UNL     1     -11.520   9.231  70.107  1.00  0.00    -0.138 A  
ENDBRANCH   4   6
ENDBRANCH   3   4
ENDBRANCH   2   3
TORSDOF 3
ENDMDL
MODEL      160
REMARK 921   NORMALIZED FREE ENERGY PREDICTED BY IDOCK:   -2.77 KCAL/MOL
REMARK 922        TOTAL FREE ENERGY PREDICTED BY IDOCK:   -3.55 KCAL/MOL
REMARK 923 INTER-LIGAND FREE ENERGY PREDICTED BY IDOCK:   -3.14 KCAL/MOL
REMARK 924 INTRA-LIGAND FREE ENERGY PREDICTED BY IDOCK:   -0.41 KCAL/MOL
REMARK 927      BINDING AFFINITY PREDICTED BY RF-SCORE:    0.00 PKD
ROOT
HETATM    1  C   UNL     1     -10.126   3.932  64.803  1.00  0.00    -0.203 C  
HETATM    2  C   UNL     1     -10.353   4.511  65.832  1.00  0.00    -0.289 C  
ENDROOT
BRANCH   2   3
HETATM    3  C   UNL     1     -10.653   5.312  67.022  1.00  0.00    -0.184 C  
BRANCH   3   4
HETATM    4  N   UNL     1     -10.991   6.683  66.655  1.00  0.00    -0.572 NA 
HETATM    5  H   UNL     1     -11.872   6.969  67.080  1.00  0.00     0.000 HD 
BRANCH   4   6
HETATM    6  C   UNL     1      -9.920   7.636  66.973  1.00  0.00    -0.240 C  
HETATM    7  C   UNL     1     -10.529   8.910  67.615  1.00  0.00    -0.320 C  
HETATM    8  C   UNL     1     -10.437  10.074  66.617  1.00  0.00    -0.244 C  
HETATM    9  C   UNL     1      -9.569   9.531  65.533  1.00  0.00    -0.349 A  
HETATM   10  C   UNL     1      -9.138  10.199  64.397  1.00  0.00    -0.284 A  
HETATM   11  C   UNL     1      -8.335   9.517  63.480  1.00  0.00    -0.176 A  
HETATM   12  C   UNL     1      -7.939   8.200  63.732  1.00  0.00    -0.137 A  
HETATM   13  C   UNL     1      -8.360   7.546  64.890  1.00  0.00    -0.045 A  
HETATM   14  C   UNL     1      -9.224   8.198  65.761  1.00  0.00    -0.098 A  
ENDBRANCH   4   6
ENDBRANCH   3   4
ENDBRANCH   2   3
TORSDOF 3
ENDMDL
MODEL      161
REMARK 921   NORMALIZED FREE ENERGY PREDICTED BY IDOCK:   -2.76 KCAL/MOL
REMARK 922        TOTAL FREE ENERGY PREDICTED BY IDOCK:   -3.54 KCAL/MOL
REMARK 923 INTER-LIGAND FREE ENERGY PREDICTED BY IDOCK:   -3.55 KCAL/MOL
REMARK 924 INTRA-LIGAND FREE ENERGY PREDICTED BY IDOCK:    0.01 KCAL/MOL
REMARK 927      BINDING AFFINITY PREDICTED BY RF-SCORE:    0.00 PKD
ROOT
HETATM    1  C   UNL     1     -10.068   2.337  73.066  1.00  0.00    -0.199 C  
HETATM    2  C   UNL     1     -10.344   3.362  73.632  1.00  0.00    -0.232 C  
ENDROOT
BRANCH   2   3
HETATM    3  C   UNL     1     -10.570   4.644  74.304  1.00  0.00    -0.274 C  
BRANCH   3   4
HETATM    4  N   UNL     1      -9.440   5.545  74.101  1.00  0.00    -0.135 NA 
HETATM    5  H   UNL     1      -8.567   5.109  74.399  1.00  0.00     0.000 HD 
BRANCH   4   6
HETATM    6  C   UNL     1      -9.342   6.029  72.718  1.00  0.00    -0.145 C  
HETATM    7  C   UNL     1      -8.241   7.118  72.624  1.00  0.00    -0.120 C  
HETATM    8  C   UNL     1      -8.902   8.490  72.415  1.00  0.00    -0.268 C  
HETATM    9  C   UNL     1     -10.328   8.147  72.145  1.00  0.00    -0.342 A  
HETATM   10  C   UNL     1     -11.355   9.030  71.848  1.00  0.00    -0.438 A  
HETATM   11  C   UNL     1     -12.638   8.522  71.638  1.00  0.00    -0.369 A  
HETATM   12  C   UNL     1     -12.867   7.143  71.682  1.00  0.00    -0.420 A  
HETATM   13  C   UNL     1     -11.821   6.263  71.959  1.00  0.00    -0.370 A  
HETATM   14  C   UNL     1     -10.562   6.775  72.246  1.00  0.00    -0.241 A  
ENDBRANCH   4   6
ENDBRANCH   3   4
ENDBRANCH   2   3
TORSDOF 3
ENDMDL
MODEL      162
REMARK 921   NORMALIZED FREE ENERGY PREDICTED BY IDOCK:   -2.75 KCAL/MOL
REMARK 922        TOTAL FREE ENERGY PREDICTED BY IDOCK:   -3.53 KCAL/MOL
REMARK 923 INTER-LIGAND FREE ENERGY PREDICTED BY IDOCK:   -3.50 KCAL/MOL
REMARK 924 INTRA-LIGAND FREE ENERGY PREDICTED BY IDOCK:   -0.03 KCAL/MOL
REMARK 927      BINDING AFFINITY PREDICTED BY RF-SCORE:    0.00 PKD
ROOT
HETATM    1  C   UNL     1      -7.379  12.851  67.562  1.00  0.00    -0.154 C  
HETATM    2  C   UNL     1      -7.568  11.907  66.841  1.00  0.00    -0.093 C  
ENDROOT
BRANCH   2   3
HETATM    3  C   UNL     1      -7.882  10.819  65.911  1.00  0.00    -0.131 C  
BRANCH   3   4
HETATM    4  N   UNL     1      -8.791  11.274  64.864  1.00  0.00    -0.388 NA 
HETATM    5  H   UNL     1      -8.499  10.929  63.951  1.00  0.00     0.000 HD 
BRANCH   4   6
HETATM    6  C   UNL     1     -10.191  10.924  65.136  1.00  0.00    -0.297 C  
HETATM    7  C   UNL     1     -11.007  12.214  65.415  1.00  0.00    -0.346 C  
HETATM    8  C   UNL     1     -11.367  12.273  66.908  1.00  0.00    -0.392 C  
HETATM    9  C   UNL     1     -10.979  10.923  67.409  1.00  0.00    -0.353 A  
HETATM   10  C   UNL     1     -11.134  10.438  68.699  1.00  0.00    -0.313 A  
HETATM   11  C   UNL     1     -10.695   9.143  68.986  1.00  0.00    -0.176 A  
HETATM   12  C   UNL     1     -10.155   8.341  67.977  1.00  0.00    -0.243 A  
HETATM   13  C   UNL     1     -10.025   8.832  66.678  1.00  0.00    -0.355 A  
HETATM   14  C   UNL     1     -10.388  10.147  66.412  1.00  0.00    -0.258 A  
ENDBRANCH   4   6
ENDBRANCH   3   4
ENDBRANCH   2   3
TORSDOF 3
ENDMDL
MODEL      163
REMARK 921   NORMALIZED FREE ENERGY PREDICTED BY IDOCK:   -2.75 KCAL/MOL
REMARK 922        TOTAL FREE ENERGY PREDICTED BY IDOCK:   -3.52 KCAL/MOL
REMARK 923 INTER-LIGAND FREE ENERGY PREDICTED BY IDOCK:   -3.31 KCAL/MOL
REMARK 924 INTRA-LIGAND FREE ENERGY PREDICTED BY IDOCK:   -0.21 KCAL/MOL
REMARK 927      BINDING AFFINITY PREDICTED BY RF-SCORE:    0.00 PKD
ROOT
HETATM    1  C   UNL     1     -10.073  20.188  67.362  1.00  0.00    -0.556 C  
HETATM    2  C   UNL     1      -9.031  19.979  66.798  1.00  0.00    -0.445 C  
ENDROOT
BRANCH   2   3
HETATM    3  C   UNL     1      -7.766  19.834  66.072  1.00  0.00    -0.332 C  
BRANCH   3   4
HETATM    4  N   UNL     1      -6.780  19.124  66.879  1.00  0.00    -0.196 NA 
HETATM    5  H   UNL     1      -6.009  19.739  67.139  1.00  0.00     0.000 HD 
BRANCH   4   6
HETATM    6  C   UNL     1      -7.369  18.488  68.064  1.00  0.00    -0.248 C  
HETATM    7  C   UNL     1      -6.468  18.751  69.299  1.00  0.00    -0.301 C  
HETATM    8  C   UNL     1      -5.762  17.446  69.700  1.00  0.00    -0.230 C  
HETATM    9  C   UNL     1      -6.444  16.416  68.865  1.00  0.00    -0.152 A  
HETATM   10  C   UNL     1      -6.209  15.050  68.871  1.00  0.00    -0.089 A  
HETATM   11  C   UNL     1      -6.942  14.238  68.002  1.00  0.00    -0.149 A  
HETATM   12  C   UNL     1      -7.926  14.793  67.179  1.00  0.00    -0.205 A  
HETATM   13  C   UNL     1      -8.170  16.166  67.198  1.00  0.00    -0.225 A  
HETATM   14  C   UNL     1      -7.385  16.983  68.004  1.00  0.00    -0.183 A  
ENDBRANCH   4   6
ENDBRANCH   3   4
ENDBRANCH   2   3
TORSDOF 3
ENDMDL
MODEL      164
REMARK 921   NORMALIZED FREE ENERGY PREDICTED BY IDOCK:   -2.72 KCAL/MOL
REMARK 922        TOTAL FREE ENERGY PREDICTED BY IDOCK:   -3.49 KCAL/MOL
REMARK 923 INTER-LIGAND FREE ENERGY PREDICTED BY IDOCK:   -3.30 KCAL/MOL
REMARK 924 INTRA-LIGAND FREE ENERGY PREDICTED BY IDOCK:   -0.18 KCAL/MOL
REMARK 927      BINDING AFFINITY PREDICTED BY RF-SCORE:    0.00 PKD
ROOT
HETATM    1  C   UNL     1      -7.814   7.114  66.585  1.00  0.00    -0.109 C  
HETATM    2  C   UNL     1      -8.544   7.116  67.541  1.00  0.00    -0.122 C  
ENDROOT
BRANCH   2   3
HETATM    3  C   UNL     1      -9.463   7.229  68.677  1.00  0.00    -0.137 C  
BRANCH   3   4
HETATM    4  N   UNL     1     -10.238   8.463  68.599  1.00  0.00    -0.198 NA 
HETATM    5  H   UNL     1     -11.239   8.267  68.612  1.00  0.00     0.000 HD 
BRANCH   4   6
HETATM    6  C   UNL     1      -9.877   9.427  69.646  1.00  0.00    -0.193 C  
HETATM    7  C   UNL     1     -10.534   9.011  70.988  1.00  0.00    -0.339 C  
HETATM    8  C   UNL     1     -11.667   9.993  71.324  1.00  0.00    -0.452 C  
HETATM    9  C   UNL     1     -11.487  11.083  70.321  1.00  0.00    -0.363 A  
HETATM   10  C   UNL     1     -12.234  12.246  70.212  1.00  0.00    -0.342 A  
HETATM   11  C   UNL     1     -11.923  13.150  69.194  1.00  0.00    -0.329 A  
HETATM   12  C   UNL     1     -10.849  12.903  68.334  1.00  0.00    -0.276 A  
HETATM   13  C   UNL     1     -10.091  11.740  68.468  1.00  0.00    -0.212 A  
HETATM   14  C   UNL     1     -10.450  10.804  69.430  1.00  0.00    -0.229 A  
ENDBRANCH   4   6
ENDBRANCH   3   4
ENDBRANCH   2   3
TORSDOF 3
ENDMDL
MODEL      165
REMARK 921   NORMALIZED FREE ENERGY PREDICTED BY IDOCK:   -2.71 KCAL/MOL
REMARK 922        TOTAL FREE ENERGY PREDICTED BY IDOCK:   -3.48 KCAL/MOL
REMARK 923 INTER-LIGAND FREE ENERGY PREDICTED BY IDOCK:   -3.26 KCAL/MOL
REMARK 924 INTRA-LIGAND FREE ENERGY PREDICTED BY IDOCK:   -0.22 KCAL/MOL
REMARK 927      BINDING AFFINITY PREDICTED BY RF-SCORE:    0.00 PKD
ROOT
HETATM    1  C   UNL     1      -6.620  12.076  68.676  1.00  0.00    -0.075 C  
HETATM    2  C   UNL     1      -7.743  11.650  68.608  1.00  0.00    -0.134 C  
ENDROOT
BRANCH   2   3
HETATM    3  C   UNL     1      -9.065  11.027  68.499  1.00  0.00    -0.173 C  
BRANCH   3   4
HETATM    4  N   UNL     1      -9.510  10.518  69.792  1.00  0.00    -0.416 NA 
HETATM    5  H   UNL     1     -10.507  10.680  69.924  1.00  0.00     0.000 HD 
BRANCH   4   6
HETATM    6  C   UNL     1      -9.175   9.102  69.989  1.00  0.00    -0.192 C  
HETATM    7  C   UNL     1      -9.112   8.384  68.615  1.00  0.00    -0.140 C  
HETATM    8  C   UNL     1     -10.324   7.450  68.475  1.00  0.00    -0.221 C  
HETATM    9  C   UNL     1     -10.920   7.453  69.842  1.00  0.00    -0.239 A  
HETATM   10  C   UNL     1     -12.024   6.731  70.270  1.00  0.00    -0.294 A  
HETATM   11  C   UNL     1     -12.448   6.874  71.593  1.00  0.00    -0.418 A  
HETATM   12  C   UNL     1     -11.739   7.694  72.477  1.00  0.00    -0.352 A  
HETATM   13  C   UNL     1     -10.617   8.397  72.040  1.00  0.00    -0.387 A  
HETATM   14  C   UNL     1     -10.244   8.317  70.703  1.00  0.00    -0.214 A  
ENDBRANCH   4   6
ENDBRANCH   3   4
ENDBRANCH   2   3
TORSDOF 3
ENDMDL
MODEL      166
REMARK 921   NORMALIZED FREE ENERGY PREDICTED BY IDOCK:   -2.71 KCAL/MOL
REMARK 922        TOTAL FREE ENERGY PREDICTED BY IDOCK:   -3.48 KCAL/MOL
REMARK 923 INTER-LIGAND FREE ENERGY PREDICTED BY IDOCK:   -3.29 KCAL/MOL
REMARK 924 INTRA-LIGAND FREE ENERGY PREDICTED BY IDOCK:   -0.19 KCAL/MOL
REMARK 927      BINDING AFFINITY PREDICTED BY RF-SCORE:    0.00 PKD
ROOT
HETATM    1  C   UNL     1      -6.186  14.125  70.280  1.00  0.00    -0.146 C  
HETATM    2  C   UNL     1      -6.569  14.516  69.208  1.00  0.00    -0.125 C  
ENDROOT
BRANCH   2   3
HETATM    3  C   UNL     1      -7.010  15.100  67.939  1.00  0.00    -0.151 C  
BRANCH   3   4
HETATM    4  N   UNL     1      -8.414  15.492  68.005  1.00  0.00    -0.142 NA 
HETATM    5  H   UNL     1      -9.008  14.687  68.203  1.00  0.00     0.000 HD 
BRANCH   4   6
HETATM    6  C   UNL     1      -8.656  16.576  68.965  1.00  0.00    -0.208 C  
HETATM    7  C   UNL     1     -10.183  16.753  69.177  1.00  0.00    -0.306 C  
HETATM    8  C   UNL     1     -10.638  18.061  68.512  1.00  0.00    -0.186 C  
HETATM    9  C   UNL     1      -9.354  18.729  68.152  1.00  0.00    -0.352 A  
HETATM   10  C   UNL     1      -9.201  19.972  67.556  1.00  0.00    -0.475 A  
HETATM   11  C   UNL     1      -7.910  20.429  67.280  1.00  0.00    -0.373 A  
HETATM   12  C   UNL     1      -6.797  19.665  67.643  1.00  0.00    -0.270 A  
HETATM   13  C   UNL     1      -6.964  18.426  68.262  1.00  0.00    -0.257 A  
HETATM   14  C   UNL     1      -8.249  17.936  68.464  1.00  0.00    -0.300 A  
ENDBRANCH   4   6
ENDBRANCH   3   4
ENDBRANCH   2   3
TORSDOF 3
ENDMDL
MODEL      167
REMARK 921   NORMALIZED FREE ENERGY PREDICTED BY IDOCK:   -2.71 KCAL/MOL
REMARK 922        TOTAL FREE ENERGY PREDICTED BY IDOCK:   -3.48 KCAL/MOL
REMARK 923 INTER-LIGAND FREE ENERGY PREDICTED BY IDOCK:   -3.25 KCAL/MOL
REMARK 924 INTRA-LIGAND FREE ENERGY PREDICTED BY IDOCK:   -0.22 KCAL/MOL
REMARK 927      BINDING AFFINITY PREDICTED BY RF-SCORE:    0.00 PKD
ROOT
HETATM    1  C   UNL     1      -9.355   9.554  70.000  1.00  0.00    -0.265 C  
HETATM    2  C   UNL     1     -10.256  10.316  69.765  1.00  0.00    -0.262 C  
ENDROOT
BRANCH   2   3
HETATM    3  C   UNL     1     -11.318  11.307  69.570  1.00  0.00    -0.294 C  
BRANCH   3   4
HETATM    4  N   UNL     1     -10.794  12.663  69.694  1.00  0.00    -0.393 NA 
HETATM    5  H   UNL     1      -9.798  12.651  69.913  1.00  0.00     0.000 HD 
BRANCH   4   6
HETATM    6  C   UNL     1     -11.064  13.486  68.509  1.00  0.00    -0.272 C  
HETATM    7  C   UNL     1     -10.640  12.715  67.231  1.00  0.00    -0.244 C  
HETATM    8  C   UNL     1      -9.377  13.364  66.644  1.00  0.00    -0.248 C  
HETATM    9  C   UNL     1      -9.238  14.623  67.430  1.00  0.00    -0.201 A  
HETATM   10  C   UNL     1      -8.272  15.604  67.269  1.00  0.00    -0.218 A  
HETATM   11  C   UNL     1      -8.294  16.714  68.116  1.00  0.00    -0.193 A  
HETATM   12  C   UNL     1      -9.303  16.852  69.073  1.00  0.00    -0.188 A  
HETATM   13  C   UNL     1     -10.284  15.870  69.211  1.00  0.00    -0.250 A  
HETATM   14  C   UNL     1     -10.214  14.727  68.422  1.00  0.00    -0.224 A  
ENDBRANCH   4   6
ENDBRANCH   3   4
ENDBRANCH   2   3
TORSDOF 3
ENDMDL
MODEL      168
REMARK 921   NORMALIZED FREE ENERGY PREDICTED BY IDOCK:   -2.69 KCAL/MOL
REMARK 922        TOTAL FREE ENERGY PREDICTED BY IDOCK:   -3.45 KCAL/MOL
REMARK 923 INTER-LIGAND FREE ENERGY PREDICTED BY IDOCK:   -3.43 KCAL/MOL
REMARK 924 INTRA-LIGAND FREE ENERGY PREDICTED BY IDOCK:   -0.02 KCAL/MOL
REMARK 927      BINDING AFFINITY PREDICTED BY RF-SCORE:    0.00 PKD
ROOT
HETATM    1  C   UNL     1      -9.198   3.656  64.432  1.00  0.00    -0.136 C  
HETATM    2  C   UNL     1      -9.732   4.042  65.439  1.00  0.00    -0.196 C  
ENDROOT
BRANCH   2   3
HETATM    3  C   UNL     1     -10.406   4.613  66.608  1.00  0.00    -0.160 C  
BRANCH   3   4
HETATM    4  N   UNL     1     -11.138   5.823  66.248  1.00  0.00    -0.755 NA 
HETATM    5  H   UNL     1     -12.143   5.653  66.237  1.00  0.00     0.000 HD 
BRANCH   4   6
HETATM    6  C   UNL     1     -10.806   6.964  67.111  1.00  0.00    -0.377 C  
HETATM    7  C   UNL     1      -9.568   7.705  66.542  1.00  0.00    -0.254 C  
HETATM    8  C   UNL     1      -8.358   7.445  67.453  1.00  0.00    -0.116 C  
HETATM    9  C   UNL     1      -8.961   6.778  68.643  1.00  0.00    -0.125 A  
HETATM   10  C   UNL     1      -8.300   6.366  69.790  1.00  0.00    -0.127 A  
HETATM   11  C   UNL     1      -9.035   5.743  70.801  1.00  0.00    -0.156 A  
HETATM   12  C   UNL     1     -10.418   5.584  70.673  1.00  0.00    -0.342 A  
HETATM   13  C   UNL     1     -11.075   6.025  69.524  1.00  0.00    -0.468 A  
HETATM   14  C   UNL     1     -10.331   6.571  68.485  1.00  0.00    -0.219 A  
ENDBRANCH   4   6
ENDBRANCH   3   4
ENDBRANCH   2   3
TORSDOF 3
ENDMDL
MODEL      169
REMARK 921   NORMALIZED FREE ENERGY PREDICTED BY IDOCK:   -2.68 KCAL/MOL
REMARK 922        TOTAL FREE ENERGY PREDICTED BY IDOCK:   -3.44 KCAL/MOL
REMARK 923 INTER-LIGAND FREE ENERGY PREDICTED BY IDOCK:   -3.20 KCAL/MOL
REMARK 924 INTRA-LIGAND FREE ENERGY PREDICTED BY IDOCK:   -0.24 KCAL/MOL
REMARK 927      BINDING AFFINITY PREDICTED BY RF-SCORE:    0.00 PKD
ROOT
HETATM    1  C   UNL     1     -12.528   8.349  72.317  1.00  0.00    -0.417 C  
HETATM    2  C   UNL     1     -11.709   8.862  71.599  1.00  0.00    -0.411 C  
ENDROOT
BRANCH   2   3
HETATM    3  C   UNL     1     -10.663   9.381  70.714  1.00  0.00    -0.305 C  
BRANCH   3   4
HETATM    4  N   UNL     1     -10.149   8.329  69.843  1.00  0.00    -0.191 NA 
HETATM    5  H   UNL     1      -9.997   7.465  70.364  1.00  0.00     0.000 HD 
BRANCH   4   6
HETATM    6  C   UNL     1     -11.001   8.094  68.671  1.00  0.00     0.211 C  
HETATM    7  C   UNL     1     -10.812   6.638  68.171  1.00  0.00    -0.334 C  
HETATM    8  C   UNL     1     -10.036   6.654  66.845  1.00  0.00    -0.258 C  
HETATM    9  C   UNL     1     -10.009   8.099  66.480  1.00  0.00    -0.302 A  
HETATM   10  C   UNL     1      -9.458   8.659  65.337  1.00  0.00     0.077 A  
HETATM   11  C   UNL     1      -9.517  10.045  65.173  1.00  0.00    -0.331 A  
HETATM   12  C   UNL     1     -10.163  10.842  66.123  1.00  0.00    -0.308 A  
HETATM   13  C   UNL     1     -10.734  10.264  67.257  1.00  0.00    -0.323 A  
HETATM   14  C   UNL     1     -10.605   8.895  67.459  1.00  0.00    -0.307 A  
ENDBRANCH   4   6
ENDBRANCH   3   4
ENDBRANCH   2   3
TORSDOF 3
ENDMDL
MODEL      170
REMARK 921   NORMALIZED FREE ENERGY PREDICTED BY IDOCK:   -2.68 KCAL/MOL
REMARK 922        TOTAL FREE ENERGY PREDICTED BY IDOCK:   -3.44 KCAL/MOL
REMARK 923 INTER-LIGAND FREE ENERGY PREDICTED BY IDOCK:   -3.22 KCAL/MOL
REMARK 924 INTRA-LIGAND FREE ENERGY PREDICTED BY IDOCK:   -0.22 KCAL/MOL
REMARK 927      BINDING AFFINITY PREDICTED BY RF-SCORE:    0.00 PKD
ROOT
HETATM    1  C   UNL     1      -6.989   6.527  70.141  1.00  0.00    -0.063 C  
HETATM    2  C   UNL     1      -7.845   7.362  70.277  1.00  0.00    -0.095 C  
ENDROOT
BRANCH   2   3
HETATM    3  C   UNL     1      -8.922   8.353  70.334  1.00  0.00    -0.148 C  
BRANCH   3   4
HETATM    4  N   UNL     1      -8.909   9.206  69.150  1.00  0.00    -0.143 NA 
HETATM    5  H   UNL     1      -7.985   9.217  68.719  1.00  0.00     0.000 HD 
BRANCH   4   6
HETATM    6  C   UNL     1      -9.942   8.837  68.174  1.00  0.00    -0.173 C  
HETATM    7  C   UNL     1      -9.320   7.942  67.070  1.00  0.00    -0.200 C  
HETATM    8  C   UNL     1      -9.228   8.740  65.761  1.00  0.00    -0.269 C  
HETATM    9  C   UNL     1     -10.012   9.975  66.055  1.00  0.00    -0.334 A  
HETATM   10  C   UNL     1     -10.276  11.021  65.184  1.00  0.00    -0.352 A  
HETATM   11  C   UNL     1     -11.021  12.108  65.646  1.00  0.00    -0.337 A  
HETATM   12  C   UNL     1     -11.529  12.113  66.949  1.00  0.00    -0.414 A  
HETATM   13  C   UNL     1     -11.276  11.044  67.809  1.00  0.00    -0.374 A  
HETATM   14  C   UNL     1     -10.467  10.000  67.374  1.00  0.00    -0.316 A  
ENDBRANCH   4   6
ENDBRANCH   3   4
ENDBRANCH   2   3
TORSDOF 3
ENDMDL
MODEL      171
REMARK 921   NORMALIZED FREE ENERGY PREDICTED BY IDOCK:   -2.67 KCAL/MOL
REMARK 922        TOTAL FREE ENERGY PREDICTED BY IDOCK:   -3.43 KCAL/MOL
REMARK 923 INTER-LIGAND FREE ENERGY PREDICTED BY IDOCK:   -3.72 KCAL/MOL
REMARK 924 INTRA-LIGAND FREE ENERGY PREDICTED BY IDOCK:    0.29 KCAL/MOL
REMARK 927      BINDING AFFINITY PREDICTED BY RF-SCORE:    0.00 PKD
ROOT
HETATM    1  C   UNL     1      -9.877  17.127  69.140  1.00  0.00    -0.187 C  
HETATM    2  C   UNL     1     -10.184  16.319  69.976  1.00  0.00     0.003 C  
ENDROOT
BRANCH   2   3
HETATM    3  C   UNL     1     -10.664  15.386  70.998  1.00  0.00    -0.030 C  
BRANCH   3   4
HETATM    4  N   UNL     1     -12.030  15.709  71.399  1.00  0.00    -0.374 NA 
HETATM    5  H   UNL     1     -12.277  16.658  71.118  1.00  0.00     0.000 HD 
BRANCH   4   6
HETATM    6  C   UNL     1     -13.012  14.739  70.901  1.00  0.00    -0.364 C  
HETATM    7  C   UNL     1     -13.326  13.699  72.009  1.00  0.00    -0.548 C  
HETATM    8  C   UNL     1     -12.703  12.348  71.627  1.00  0.00    -0.299 C  
HETATM    9  C   UNL     1     -12.263  12.557  70.217  1.00  0.00    -0.345 A  
HETATM   10  C   UNL     1     -11.669  11.623  69.383  1.00  0.00    -0.405 A  
HETATM   11  C   UNL     1     -11.311  12.010  68.089  1.00  0.00    -0.349 A  
HETATM   12  C   UNL     1     -11.594  13.302  67.635  1.00  0.00    -0.386 A  
HETATM   13  C   UNL     1     -12.213  14.226  68.476  1.00  0.00    -0.194 A  
HETATM   14  C   UNL     1     -12.496  13.865  69.789  1.00  0.00    -0.240 A  
ENDBRANCH   4   6
ENDBRANCH   3   4
ENDBRANCH   2   3
TORSDOF 3
ENDMDL
MODEL      172
REMARK 921   NORMALIZED FREE ENERGY PREDICTED BY IDOCK:   -2.66 KCAL/MOL
REMARK 922        TOTAL FREE ENERGY PREDICTED BY IDOCK:   -3.42 KCAL/MOL
REMARK 923 INTER-LIGAND FREE ENERGY PREDICTED BY IDOCK:   -3.42 KCAL/MOL
REMARK 924 INTRA-LIGAND FREE ENERGY PREDICTED BY IDOCK:   -0.00 KCAL/MOL
REMARK 927      BINDING AFFINITY PREDICTED BY RF-SCORE:    0.00 PKD
ROOT
HETATM    1  C   UNL     1      -5.449   9.958  64.569  1.00  0.00    -0.082 C  
HETATM    2  C   UNL     1      -6.508  10.142  65.108  1.00  0.00    -0.121 C  
ENDROOT
BRANCH   2   3
HETATM    3  C   UNL     1      -7.760  10.475  65.794  1.00  0.00    -0.145 C  
BRANCH   3   4
HETATM    4  N   UNL     1      -7.640  11.738  66.514  1.00  0.00    -0.366 NA 
HETATM    5  H   UNL     1      -7.296  12.477  65.901  1.00  0.00     0.000 HD 
BRANCH   4   6
HETATM    6  C   UNL     1      -8.890  12.137  67.172  1.00  0.00    -0.191 C  
HETATM    7  C   UNL     1      -9.696  10.873  67.571  1.00  0.00    -0.187 C  
HETATM    8  C   UNL     1     -10.927  10.747  66.660  1.00  0.00    -0.173 C  
HETATM    9  C   UNL     1     -10.948  12.047  65.929  1.00  0.00    -0.342 A  
HETATM   10  C   UNL     1     -11.891  12.467  65.003  1.00  0.00    -0.440 A  
HETATM   11  C   UNL     1     -11.737  13.721  64.409  1.00  0.00    -0.436 A  
HETATM   12  C   UNL     1     -10.677  14.553  64.780  1.00  0.00    -0.414 A  
HETATM   13  C   UNL     1      -9.747  14.129  65.731  1.00  0.00    -0.246 A  
HETATM   14  C   UNL     1      -9.856  12.850  66.262  1.00  0.00    -0.273 A  
ENDBRANCH   4   6
ENDBRANCH   3   4
ENDBRANCH   2   3
TORSDOF 3
ENDMDL
MODEL      173
REMARK 921   NORMALIZED FREE ENERGY PREDICTED BY IDOCK:   -2.66 KCAL/MOL
REMARK 922        TOTAL FREE ENERGY PREDICTED BY IDOCK:   -3.41 KCAL/MOL
REMARK 923 INTER-LIGAND FREE ENERGY PREDICTED BY IDOCK:   -3.13 KCAL/MOL
REMARK 924 INTRA-LIGAND FREE ENERGY PREDICTED BY IDOCK:   -0.28 KCAL/MOL
REMARK 927      BINDING AFFINITY PREDICTED BY RF-SCORE:    0.00 PKD
ROOT
HETATM    1  C   UNL     1      -7.933   8.380  72.392  1.00  0.00    -0.164 C  
HETATM    2  C   UNL     1      -8.646   7.872  71.568  1.00  0.00    -0.144 C  
ENDROOT
BRANCH   2   3
HETATM    3  C   UNL     1      -9.488   7.149  70.611  1.00  0.00    -0.161 C  
BRANCH   3   4
HETATM    4  N   UNL     1      -9.320   7.681  69.263  1.00  0.00    -0.148 NA 
HETATM    5  H   UNL     1      -8.771   7.045  68.685  1.00  0.00     0.000 HD 
BRANCH   4   6
HETATM    6  C   UNL     1     -10.597   8.009  68.618  1.00  0.00    -0.109 C  
HETATM    7  C   UNL     1     -10.448   7.900  67.078  1.00  0.00    -0.419 C  
HETATM    8  C   UNL     1     -10.473   9.309  66.465  1.00  0.00    -0.204 C  
HETATM    9  C   UNL     1     -10.879  10.175  67.609  1.00  0.00    -0.346 A  
HETATM   10  C   UNL     1     -11.091  11.545  67.582  1.00  0.00    -0.324 A  
HETATM   11  C   UNL     1     -11.457  12.191  68.765  1.00  0.00    -0.359 A  
HETATM   12  C   UNL     1     -11.651  11.458  69.939  1.00  0.00    -0.402 A  
HETATM   13  C   UNL     1     -11.458  10.076  69.948  1.00  0.00    -0.274 A  
HETATM   14  C   UNL     1     -11.016   9.446  68.791  1.00  0.00    -0.080 A  
ENDBRANCH   4   6
ENDBRANCH   3   4
ENDBRANCH   2   3
TORSDOF 3
ENDMDL
MODEL      174
REMARK 921   NORMALIZED FREE ENERGY PREDICTED BY IDOCK:   -2.65 KCAL/MOL
REMARK 922        TOTAL FREE ENERGY PREDICTED BY IDOCK:   -3.41 KCAL/MOL
REMARK 923 INTER-LIGAND FREE ENERGY PREDICTED BY IDOCK:   -3.18 KCAL/MOL
REMARK 924 INTRA-LIGAND FREE ENERGY PREDICTED BY IDOCK:   -0.22 KCAL/MOL
REMARK 927      BINDING AFFINITY PREDICTED BY RF-SCORE:    0.00 PKD
ROOT
HETATM    1  C   UNL     1      -9.954  12.119  67.231  1.00  0.00    -0.211 C  
HETATM    2  C   UNL     1     -10.267  11.363  68.112  1.00  0.00    -0.200 C  
ENDROOT
BRANCH   2   3
HETATM    3  C   UNL     1     -10.698  10.373  69.103  1.00  0.00    -0.234 C  
BRANCH   3   4
HETATM    4  N   UNL     1      -9.601  10.022  69.999  1.00  0.00    -0.378 NA 
HETATM    5  H   UNL     1      -9.697  10.497  70.897  1.00  0.00     0.000 HD 
BRANCH   4   6
HETATM    6  C   UNL     1      -9.460   8.573  70.183  1.00  0.00    -0.165 C  
HETATM    7  C   UNL     1     -10.808   7.873  69.869  1.00  0.00    -0.221 C  
HETATM    8  C   UNL     1     -11.433   7.365  71.178  1.00  0.00    -0.303 C  
HETATM    9  C   UNL     1     -10.341   7.552  72.176  1.00  0.00    -0.252 A  
HETATM   10  C   UNL     1     -10.373   7.210  73.519  1.00  0.00    -0.412 A  
HETATM   11  C   UNL     1      -9.250   7.477  74.307  1.00  0.00    -0.124 A  
HETATM   12  C   UNL     1      -8.102   8.033  73.735  1.00  0.00    -0.279 A  
HETATM   13  C   UNL     1      -8.074   8.351  72.377  1.00  0.00    -0.185 A  
HETATM   14  C   UNL     1      -9.219   8.160  71.612  1.00  0.00    -0.220 A  
ENDBRANCH   4   6
ENDBRANCH   3   4
ENDBRANCH   2   3
TORSDOF 3
ENDMDL
MODEL      175
REMARK 921   NORMALIZED FREE ENERGY PREDICTED BY IDOCK:   -2.65 KCAL/MOL
REMARK 922        TOTAL FREE ENERGY PREDICTED BY IDOCK:   -3.41 KCAL/MOL
REMARK 923 INTER-LIGAND FREE ENERGY PREDICTED BY IDOCK:   -3.04 KCAL/MOL
REMARK 924 INTRA-LIGAND FREE ENERGY PREDICTED BY IDOCK:   -0.37 KCAL/MOL
REMARK 927      BINDING AFFINITY PREDICTED BY RF-SCORE:    0.00 PKD
ROOT
HETATM    1  C   UNL     1      -9.405   9.270  65.191  1.00  0.00    -0.239 C  
HETATM    2  C   UNL     1      -9.875   9.791  66.169  1.00  0.00    -0.329 C  
ENDROOT
BRANCH   2   3
HETATM    3  C   UNL     1     -10.480  10.513  67.291  1.00  0.00    -0.250 C  
BRANCH   3   4
HETATM    4  N   UNL     1     -11.377   9.644  68.046  1.00  0.00    -0.485 NA 
HETATM    5  H   UNL     1     -11.695   8.862  67.475  1.00  0.00     0.000 HD 
BRANCH   4   6
HETATM    6  C   UNL     1     -10.783   9.171  69.303  1.00  0.00    -0.183 C  
HETATM    7  C   UNL     1      -9.543  10.036  69.652  1.00  0.00    -0.251 C  
HETATM    8  C   UNL     1      -8.269   9.203  69.443  1.00  0.00    -0.118 C  
HETATM    9  C   UNL     1      -8.791   7.824  69.224  1.00  0.00    -0.139 A  
HETATM   10  C   UNL     1      -8.045   6.672  69.025  1.00  0.00    -0.116 A  
HETATM   11  C   UNL     1      -8.716   5.464  68.822  1.00  0.00    -0.098 A  
HETATM   12  C   UNL     1     -10.112   5.415  68.867  1.00  0.00    -0.265 A  
HETATM   13  C   UNL     1     -10.851   6.577  69.091  1.00  0.00    -0.354 A  
HETATM   14  C   UNL     1     -10.186   7.791  69.213  1.00  0.00    -0.211 A  
ENDBRANCH   4   6
ENDBRANCH   3   4
ENDBRANCH   2   3
TORSDOF 3
ENDMDL
MODEL      176
REMARK 921   NORMALIZED FREE ENERGY PREDICTED BY IDOCK:   -2.64 KCAL/MOL
REMARK 922        TOTAL FREE ENERGY PREDICTED BY IDOCK:   -3.39 KCAL/MOL
REMARK 923 INTER-LIGAND FREE ENERGY PREDICTED BY IDOCK:   -3.22 KCAL/MOL
REMARK 924 INTRA-LIGAND FREE ENERGY PREDICTED BY IDOCK:   -0.17 KCAL/MOL
REMARK 927      BINDING AFFINITY PREDICTED BY RF-SCORE:    0.00 PKD
ROOT
HETATM    1  C   UNL     1     -12.605   8.616  72.252  1.00  0.00    -0.457 C  
HETATM    2  C   UNL     1     -11.770   8.583  71.386  1.00  0.00    -0.346 C  
ENDROOT
BRANCH   2   3
HETATM    3  C   UNL     1     -10.780   8.428  70.316  1.00  0.00    -0.234 C  
BRANCH   3   4
HETATM    4  N   UNL     1     -11.250   7.491  69.302  1.00  0.00    -0.438 NA 
HETATM    5  H   UNL     1     -12.076   7.852  68.825  1.00  0.00     0.000 HD 
BRANCH   4   6
HETATM    6  C   UNL     1     -10.204   7.124  68.340  1.00  0.00    -0.174 C  
HETATM    7  C   UNL     1     -10.846   6.827  66.959  1.00  0.00    -0.453 C  
HETATM    8  C   UNL     1     -10.780   5.317  66.683  1.00  0.00    -0.274 C  
HETATM    9  C   UNL     1      -9.895   4.807  67.769  1.00  0.00    -0.194 A  
HETATM   10  C   UNL     1      -9.477   3.499  67.957  1.00  0.00    -0.217 A  
HETATM   11  C   UNL     1      -8.654   3.206  69.047  1.00  0.00    -0.113 A  
HETATM   12  C   UNL     1      -8.227   4.226  69.902  1.00  0.00    -0.069 A  
HETATM   13  C   UNL     1      -8.636   5.543  69.690  1.00  0.00    -0.108 A  
HETATM   14  C   UNL     1      -9.518   5.819  68.652  1.00  0.00    -0.144 A  
ENDBRANCH   4   6
ENDBRANCH   3   4
ENDBRANCH   2   3
TORSDOF 3
ENDMDL
MODEL      177
REMARK 921   NORMALIZED FREE ENERGY PREDICTED BY IDOCK:   -2.63 KCAL/MOL
REMARK 922        TOTAL FREE ENERGY PREDICTED BY IDOCK:   -3.38 KCAL/MOL
REMARK 923 INTER-LIGAND FREE ENERGY PREDICTED BY IDOCK:   -3.03 KCAL/MOL
REMARK 924 INTRA-LIGAND FREE ENERGY PREDICTED BY IDOCK:   -0.35 KCAL/MOL
REMARK 927      BINDING AFFINITY PREDICTED BY RF-SCORE:    0.00 PKD
ROOT
HETATM    1  C   UNL     1     -10.170   8.724  71.601  1.00  0.00    -0.394 C  
HETATM    2  C   UNL     1      -9.481   9.252  70.769  1.00  0.00    -0.336 C  
ENDROOT
BRANCH   2   3
HETATM    3  C   UNL     1      -8.636   9.990  69.825  1.00  0.00    -0.173 C  
BRANCH   3   4
HETATM    4  N   UNL     1      -7.732   9.087  69.121  1.00  0.00    -0.090 NA 
HETATM    5  H   UNL     1      -7.672   8.186  69.595  1.00  0.00     0.000 HD 
BRANCH   4   6
HETATM    6  C   UNL     1      -8.090   8.915  67.707  1.00  0.00    -0.106 C  
HETATM    7  C   UNL     1      -9.175   9.951  67.314  1.00  0.00    -0.156 C  
HETATM    8  C   UNL     1     -10.516   9.228  67.112  1.00  0.00    -0.319 C  
HETATM    9  C   UNL     1     -10.138   7.786  67.145  1.00  0.00    -0.328 A  
HETATM   10  C   UNL     1     -10.982   6.700  66.969  1.00  0.00    -0.463 A  
HETATM   11  C   UNL     1     -10.445   5.413  67.048  1.00  0.00    -0.319 A  
HETATM   12  C   UNL     1      -9.075   5.231  67.253  1.00  0.00    -0.112 A  
HETATM   13  C   UNL     1      -8.232   6.332  67.406  1.00  0.00    -0.109 A  
HETATM   14  C   UNL     1      -8.779   7.610  67.407  1.00  0.00    -0.124 A  
ENDBRANCH   4   6
ENDBRANCH   3   4
ENDBRANCH   2   3
TORSDOF 3
ENDMDL
MODEL      178
REMARK 921   NORMALIZED FREE ENERGY PREDICTED BY IDOCK:   -2.61 KCAL/MOL
REMARK 922        TOTAL FREE ENERGY PREDICTED BY IDOCK:   -3.36 KCAL/MOL
REMARK 923 INTER-LIGAND FREE ENERGY PREDICTED BY IDOCK:   -3.15 KCAL/MOL
REMARK 924 INTRA-LIGAND FREE ENERGY PREDICTED BY IDOCK:   -0.21 KCAL/MOL
REMARK 927      BINDING AFFINITY PREDICTED BY RF-SCORE:    0.00 PKD
ROOT
HETATM    1  C   UNL     1      -6.560  10.286  69.955  1.00  0.00    -0.127 C  
HETATM    2  C   UNL     1      -7.623   9.740  70.095  1.00  0.00    -0.180 C  
ENDROOT
BRANCH   2   3
HETATM    3  C   UNL     1      -8.937   9.094  70.151  1.00  0.00    -0.198 C  
BRANCH   3   4
HETATM    4  N   UNL     1      -8.802   7.641  70.193  1.00  0.00    -0.145 NA 
HETATM    5  H   UNL     1      -8.297   7.346  71.028  1.00  0.00     0.000 HD 
BRANCH   4   6
HETATM    6  C   UNL     1     -10.092   6.948  70.085  1.00  0.00    -0.182 C  
HETATM    7  C   UNL     1     -11.219   7.852  70.651  1.00  0.00    -0.269 C  
HETATM    8  C   UNL     1     -11.710   7.274  71.987  1.00  0.00    -0.329 C  
HETATM    9  C   UNL     1     -11.049   5.939  72.048  1.00  0.00    -0.329 A  
HETATM   10  C   UNL     1     -11.191   4.984  73.044  1.00  0.00    -0.383 A  
HETATM   11  C   UNL     1     -10.476   3.789  72.935  1.00  0.00    -0.246 A  
HETATM   12  C   UNL     1      -9.671   3.547  71.818  1.00  0.00    -0.235 A  
HETATM   13  C   UNL     1      -9.554   4.506  70.812  1.00  0.00    -0.253 A  
HETATM   14  C   UNL     1     -10.202   5.726  70.960  1.00  0.00    -0.275 A  
ENDBRANCH   4   6
ENDBRANCH   3   4
ENDBRANCH   2   3
TORSDOF 3
ENDMDL
MODEL      179
REMARK 921   NORMALIZED FREE ENERGY PREDICTED BY IDOCK:   -2.59 KCAL/MOL
REMARK 922        TOTAL FREE ENERGY PREDICTED BY IDOCK:   -3.34 KCAL/MOL
REMARK 923 INTER-LIGAND FREE ENERGY PREDICTED BY IDOCK:   -3.07 KCAL/MOL
REMARK 924 INTRA-LIGAND FREE ENERGY PREDICTED BY IDOCK:   -0.27 KCAL/MOL
REMARK 927      BINDING AFFINITY PREDICTED BY RF-SCORE:    0.00 PKD
ROOT
HETATM    1  C   UNL     1      -7.750  21.025  67.051  1.00  0.00    -0.109 C  
HETATM    2  C   UNL     1      -8.557  20.139  66.946  1.00  0.00    -0.397 C  
ENDROOT
BRANCH   2   3
HETATM    3  C   UNL     1      -9.616  19.141  66.780  1.00  0.00    -0.331 C  
BRANCH   3   4
HETATM    4  N   UNL     1      -9.231  18.131  65.800  1.00  0.00    -0.358 NA 
HETATM    5  H   UNL     1      -8.474  18.468  65.206  1.00  0.00     0.000 HD 
BRANCH   4   6
HETATM    6  C   UNL     1      -8.884  16.844  66.416  1.00  0.00    -0.287 C  
HETATM    7  C   UNL     1      -9.950  16.471  67.480  1.00  0.00    -0.255 C  
HETATM    8  C   UNL     1      -9.340  16.617  68.882  1.00  0.00    -0.244 C  
HETATM    9  C   UNL     1      -7.889  16.825  68.607  1.00  0.00    -0.241 A  
HETATM   10  C   UNL     1      -6.877  16.973  69.543  1.00  0.00    -0.111 A  
HETATM   11  C   UNL     1      -5.570  17.174  69.092  1.00  0.00    -0.161 A  
HETATM   12  C   UNL     1      -5.288  17.176  67.723  1.00  0.00    -0.125 A  
HETATM   13  C   UNL     1      -6.312  17.003  66.791  1.00  0.00    -0.246 A  
HETATM   14  C   UNL     1      -7.623  16.884  67.239  1.00  0.00    -0.199 A  
ENDBRANCH   4   6
ENDBRANCH   3   4
ENDBRANCH   2   3
TORSDOF 3
ENDMDL
MODEL      180
REMARK 921   NORMALIZED FREE ENERGY PREDICTED BY IDOCK:   -2.58 KCAL/MOL
REMARK 922        TOTAL FREE ENERGY PREDICTED BY IDOCK:   -3.32 KCAL/MOL
REMARK 923 INTER-LIGAND FREE ENERGY PREDICTED BY IDOCK:   -3.07 KCAL/MOL
REMARK 924 INTRA-LIGAND FREE ENERGY PREDICTED BY IDOCK:   -0.25 KCAL/MOL
REMARK 927      BINDING AFFINITY PREDICTED BY RF-SCORE:    0.00 PKD
ROOT
HETATM    1  C   UNL     1      -5.628  14.178  71.114  1.00  0.00    -0.209 C  
HETATM    2  C   UNL     1      -6.002  13.557  70.153  1.00  0.00    -0.145 C  
ENDROOT
BRANCH   2   3
HETATM    3  C   UNL     1      -6.558  12.860  68.991  1.00  0.00    -0.102 C  
BRANCH   3   4
HETATM    4  N   UNL     1      -7.475  11.803  69.406  1.00  0.00    -0.344 NA 
HETATM    5  H   UNL     1      -7.836  11.980  70.343  1.00  0.00     0.000 HD 
BRANCH   4   6
HETATM    6  C   UNL     1      -8.569  11.593  68.450  1.00  0.00    -0.156 C  
HETATM    7  C   UNL     1      -9.110  12.964  67.967  1.00  0.00    -0.211 C  
HETATM    8  C   UNL     1     -10.500  13.204  68.576  1.00  0.00    -0.262 C  
HETATM    9  C   UNL     1     -10.841  11.887  69.186  1.00  0.00    -0.196 A  
HETATM   10  C   UNL     1     -12.018  11.550  69.836  1.00  0.00    -0.426 A  
HETATM   11  C   UNL     1     -12.151  10.261  70.359  1.00  0.00    -0.373 A  
HETATM   12  C   UNL     1     -11.133   9.319  70.184  1.00  0.00    -0.260 A  
HETATM   13  C   UNL     1      -9.963   9.664  69.507  1.00  0.00    -0.223 A  
HETATM   14  C   UNL     1      -9.798  10.969  69.058  1.00  0.00    -0.165 A  
ENDBRANCH   4   6
ENDBRANCH   3   4
ENDBRANCH   2   3
TORSDOF 3
ENDMDL
MODEL      181
REMARK 921   NORMALIZED FREE ENERGY PREDICTED BY IDOCK:   -2.58 KCAL/MOL
REMARK 922        TOTAL FREE ENERGY PREDICTED BY IDOCK:   -3.32 KCAL/MOL
REMARK 923 INTER-LIGAND FREE ENERGY PREDICTED BY IDOCK:   -3.05 KCAL/MOL
REMARK 924 INTRA-LIGAND FREE ENERGY PREDICTED BY IDOCK:   -0.28 KCAL/MOL
REMARK 927      BINDING AFFINITY PREDICTED BY RF-SCORE:    0.00 PKD
ROOT
HETATM    1  C   UNL     1      -5.505  18.900  65.189  1.00  0.00    -0.231 C  
HETATM    2  C   UNL     1      -6.552  18.980  65.777  1.00  0.00    -0.289 C  
ENDROOT
BRANCH   2   3
HETATM    3  C   UNL     1      -7.853  19.168  66.423  1.00  0.00    -0.284 C  
BRANCH   3   4
HETATM    4  N   UNL     1      -8.683  17.976  66.281  1.00  0.00    -0.448 NA 
HETATM    5  H   UNL     1      -8.708  17.663  65.311  1.00  0.00     0.000 HD 
BRANCH   4   6
HETATM    6  C   UNL     1      -8.271  16.888  67.176  1.00  0.00    -0.190 C  
HETATM    7  C   UNL     1      -7.892  15.638  66.338  1.00  0.00     0.171 C  
HETATM    8  C   UNL     1      -8.973  14.561  66.519  1.00  0.00    -0.211 C  
HETATM    9  C   UNL     1      -9.811  15.097  67.630  1.00  0.00    -0.219 A  
HETATM   10  C   UNL     1     -10.909  14.484  68.215  1.00  0.00    -0.247 A  
HETATM   11  C   UNL     1     -11.581  15.151  69.242  1.00  0.00    -0.344 A  
HETATM   12  C   UNL     1     -11.122  16.389  69.699  1.00  0.00    -0.306 A  
HETATM   13  C   UNL     1     -10.003  16.985  69.118  1.00  0.00    -0.229 A  
HETATM   14  C   UNL     1      -9.382  16.359  68.043  1.00  0.00    -0.216 A  
ENDBRANCH   4   6
ENDBRANCH   3   4
ENDBRANCH   2   3
TORSDOF 3
ENDMDL
MODEL      182
REMARK 921   NORMALIZED FREE ENERGY PREDICTED BY IDOCK:   -2.57 KCAL/MOL
REMARK 922        TOTAL FREE ENERGY PREDICTED BY IDOCK:   -3.32 KCAL/MOL
REMARK 923 INTER-LIGAND FREE ENERGY PREDICTED BY IDOCK:   -3.13 KCAL/MOL
REMARK 924 INTRA-LIGAND FREE ENERGY PREDICTED BY IDOCK:   -0.19 KCAL/MOL
REMARK 927      BINDING AFFINITY PREDICTED BY RF-SCORE:    0.00 PKD
ROOT
HETATM    1  C   UNL     1     -11.613  12.696  63.480  1.00  0.00    -0.584 C  
HETATM    2  C   UNL     1     -10.667  11.981  63.680  1.00  0.00    -0.506 C  
ENDROOT
BRANCH   2   3
HETATM    3  C   UNL     1      -9.571  11.025  63.867  1.00  0.00    -0.272 C  
BRANCH   3   4
HETATM    4  N   UNL     1      -9.938   9.994  64.831  1.00  0.00    -0.369 NA 
HETATM    5  H   UNL     1     -10.565   9.308  64.412  1.00  0.00     0.000 HD 
BRANCH   4   6
HETATM    6  C   UNL     1      -8.771   9.340  65.435  1.00  0.00    -0.178 C  
HETATM    7  C   UNL     1      -7.682   9.114  64.353  1.00  0.00    -0.119 C  
HETATM    8  C   UNL     1      -7.592   7.615  64.029  1.00  0.00    -0.114 C  
HETATM    9  C   UNL     1      -8.435   6.984  65.085  1.00  0.00    -0.023 A  
HETATM   10  C   UNL     1      -8.658   5.628  65.272  1.00  0.00    -0.141 A  
HETATM   11  C   UNL     1      -9.495   5.223  66.315  1.00  0.00    -0.166 A  
HETATM   12  C   UNL     1     -10.054   6.169  67.180  1.00  0.00    -0.210 A  
HETATM   13  C   UNL     1      -9.803   7.529  66.995  1.00  0.00    -0.280 A  
HETATM   14  C   UNL     1      -9.036   7.935  65.910  1.00  0.00    -0.166 A  
ENDBRANCH   4   6
ENDBRANCH   3   4
ENDBRANCH   2   3
TORSDOF 3
ENDMDL
MODEL      183
REMARK 921   NORMALIZED FREE ENERGY PREDICTED BY IDOCK:   -2.56 KCAL/MOL
REMARK 922        TOTAL FREE ENERGY PREDICTED BY IDOCK:   -3.30 KCAL/MOL
REMARK 923 INTER-LIGAND FREE ENERGY PREDICTED BY IDOCK:   -3.17 KCAL/MOL
REMARK 924 INTRA-LIGAND FREE ENERGY PREDICTED BY IDOCK:   -0.14 KCAL/MOL
REMARK 927      BINDING AFFINITY PREDICTED BY RF-SCORE:    0.00 PKD
ROOT
HETATM    1  C   UNL     1      -6.130  14.064  70.254  1.00  0.00    -0.152 C  
HETATM    2  C   UNL     1      -6.294  14.320  69.090  1.00  0.00    -0.104 C  
ENDROOT
BRANCH   2   3
HETATM    3  C   UNL     1      -6.464  14.742  67.697  1.00  0.00    -0.139 C  
BRANCH   3   4
HETATM    4  N   UNL     1      -7.712  14.226  67.145  1.00  0.00    -0.351 NA 
HETATM    5  H   UNL     1      -7.732  13.207  67.177  1.00  0.00     0.000 HD 
BRANCH   4   6
HETATM    6  C   UNL     1      -8.899  14.797  67.794  1.00  0.00    -0.175 C  
HETATM    7  C   UNL     1     -10.177  14.124  67.229  1.00  0.00    -0.256 C  
HETATM    8  C   UNL     1     -10.929  15.128  66.341  1.00  0.00    -0.329 C  
HETATM    9  C   UNL     1     -10.223  16.415  66.603  1.00  0.00    -0.296 A  
HETATM   10  C   UNL     1     -10.535  17.659  66.075  1.00  0.00    -0.278 A  
HETATM   11  C   UNL     1      -9.744  18.755  66.427  1.00  0.00    -0.378 A  
HETATM   12  C   UNL     1      -8.690  18.604  67.333  1.00  0.00    -0.281 A  
HETATM   13  C   UNL     1      -8.400  17.352  67.875  1.00  0.00    -0.230 A  
HETATM   14  C   UNL     1      -9.136  16.248  67.462  1.00  0.00    -0.196 A  
ENDBRANCH   4   6
ENDBRANCH   3   4
ENDBRANCH   2   3
TORSDOF 3
ENDMDL
MODEL      184
REMARK 921   NORMALIZED FREE ENERGY PREDICTED BY IDOCK:   -2.56 KCAL/MOL
REMARK 922        TOTAL FREE ENERGY PREDICTED BY IDOCK:   -3.30 KCAL/MOL
REMARK 923 INTER-LIGAND FREE ENERGY PREDICTED BY IDOCK:   -3.11 KCAL/MOL
REMARK 924 INTRA-LIGAND FREE ENERGY PREDICTED BY IDOCK:   -0.19 KCAL/MOL
REMARK 927      BINDING AFFINITY PREDICTED BY RF-SCORE:    0.00 PKD
ROOT
HETATM    1  C   UNL     1     -11.744  12.664  63.407  1.00  0.00    -0.571 C  
HETATM    2  C   UNL     1     -10.997  11.815  63.817  1.00  0.00    -0.500 C  
ENDROOT
BRANCH   2   3
HETATM    3  C   UNL     1     -10.153  10.702  64.260  1.00  0.00    -0.343 C  
BRANCH   3   4
HETATM    4  N   UNL     1      -9.801  10.843  65.669  1.00  0.00    -0.228 NA 
HETATM    5  H   UNL     1     -10.632  10.800  66.259  1.00  0.00     0.000 HD 
BRANCH   4   6
HETATM    6  C   UNL     1      -8.795   9.866  66.104  1.00  0.00    -0.144 C  
HETATM    7  C   UNL     1      -9.128   8.474  65.507  1.00  0.00    -0.150 C  
HETATM    8  C   UNL     1      -9.627   7.548  66.627  1.00  0.00    -0.263 C  
HETATM    9  C   UNL     1      -9.343   8.325  67.868  1.00  0.00    -0.150 A  
HETATM   10  C   UNL     1      -9.568   7.919  69.174  1.00  0.00    -0.153 A  
HETATM   11  C   UNL     1      -9.248   8.795  70.214  1.00  0.00    -0.191 A  
HETATM   12  C   UNL     1      -8.668  10.037  69.938  1.00  0.00    -0.169 A  
HETATM   13  C   UNL     1      -8.425  10.424  68.620  1.00  0.00    -0.129 A  
HETATM   14  C   UNL     1      -8.817   9.586  67.584  1.00  0.00    -0.121 A  
ENDBRANCH   4   6
ENDBRANCH   3   4
ENDBRANCH   2   3
TORSDOF 3
ENDMDL
MODEL      185
REMARK 921   NORMALIZED FREE ENERGY PREDICTED BY IDOCK:   -2.56 KCAL/MOL
REMARK 922        TOTAL FREE ENERGY PREDICTED BY IDOCK:   -3.30 KCAL/MOL
REMARK 923 INTER-LIGAND FREE ENERGY PREDICTED BY IDOCK:   -3.11 KCAL/MOL
REMARK 924 INTRA-LIGAND FREE ENERGY PREDICTED BY IDOCK:   -0.19 KCAL/MOL
REMARK 927      BINDING AFFINITY PREDICTED BY RF-SCORE:    0.00 PKD
ROOT
HETATM    1  C   UNL     1     -10.092   4.757  71.859  1.00  0.00    -0.264 C  
HETATM    2  C   UNL     1     -10.303   4.962  70.693  1.00  0.00    -0.233 C  
ENDROOT
BRANCH   2   3
HETATM    3  C   UNL     1     -10.450   5.175  69.250  1.00  0.00    -0.123 C  
BRANCH   3   4
HETATM    4  N   UNL     1     -10.946   6.518  68.970  1.00  0.00    -0.359 NA 
HETATM    5  H   UNL     1     -10.371   7.223  69.431  1.00  0.00     0.000 HD 
BRANCH   4   6
HETATM    6  C   UNL     1     -11.061   6.791  67.532  1.00  0.00    -0.265 C  
HETATM    7  C   UNL     1     -10.445   5.616  66.727  1.00  0.00    -0.353 C  
HETATM    8  C   UNL     1      -9.125   6.076  66.089  1.00  0.00    -0.159 C  
HETATM    9  C   UNL     1      -9.124   7.548  66.323  1.00  0.00    -0.198 A  
HETATM   10  C   UNL     1      -8.163   8.457  65.905  1.00  0.00    -0.123 A  
HETATM   11  C   UNL     1      -8.328   9.805  66.231  1.00  0.00    -0.117 A  
HETATM   12  C   UNL     1      -9.465  10.230  66.925  1.00  0.00    -0.200 A  
HETATM   13  C   UNL     1     -10.435   9.310  67.319  1.00  0.00    -0.334 A  
HETATM   14  C   UNL     1     -10.232   7.959  67.064  1.00  0.00    -0.382 A  
ENDBRANCH   4   6
ENDBRANCH   3   4
ENDBRANCH   2   3
TORSDOF 3
ENDMDL
MODEL      186
REMARK 921   NORMALIZED FREE ENERGY PREDICTED BY IDOCK:   -2.53 KCAL/MOL
REMARK 922        TOTAL FREE ENERGY PREDICTED BY IDOCK:   -3.27 KCAL/MOL
REMARK 923 INTER-LIGAND FREE ENERGY PREDICTED BY IDOCK:   -2.99 KCAL/MOL
REMARK 924 INTRA-LIGAND FREE ENERGY PREDICTED BY IDOCK:   -0.28 KCAL/MOL
REMARK 927      BINDING AFFINITY PREDICTED BY RF-SCORE:    0.00 PKD
ROOT
HETATM    1  C   UNL     1      -7.293   4.695  72.205  1.00  0.00    -0.080 C  
HETATM    2  C   UNL     1      -8.263   5.201  72.706  1.00  0.00    -0.109 C  
ENDROOT
BRANCH   2   3
HETATM    3  C   UNL     1      -9.423   5.751  73.412  1.00  0.00    -0.138 C  
BRANCH   3   4
HETATM    4  N   UNL     1      -9.610   7.161  73.087  1.00  0.00    -0.159 NA 
HETATM    5  H   UNL     1      -8.800   7.532  72.590  1.00  0.00     0.000 HD 
BRANCH   4   6
HETATM    6  C   UNL     1     -10.847   7.413  72.339  1.00  0.00    -0.263 C  
HETATM    7  C   UNL     1     -11.395   6.076  71.772  1.00  0.00    -0.324 C  
HETATM    8  C   UNL     1     -11.197   6.052  70.249  1.00  0.00    -0.392 C  
HETATM    9  C   UNL     1     -10.777   7.448  69.934  1.00  0.00    -0.254 A  
HETATM   10  C   UNL     1     -10.508   7.975  68.680  1.00  0.00    -0.196 A  
HETATM   11  C   UNL     1     -10.111   9.310  68.583  1.00  0.00    -0.207 A  
HETATM   12  C   UNL     1     -10.036  10.109  69.728  1.00  0.00    -0.258 A  
HETATM   13  C   UNL     1     -10.332   9.575  70.982  1.00  0.00    -0.353 A  
HETATM   14  C   UNL     1     -10.648   8.225  71.086  1.00  0.00    -0.258 A  
ENDBRANCH   4   6
ENDBRANCH   3   4
ENDBRANCH   2   3
TORSDOF 3
ENDMDL
MODEL      187
REMARK 921   NORMALIZED FREE ENERGY PREDICTED BY IDOCK:   -2.53 KCAL/MOL
REMARK 922        TOTAL FREE ENERGY PREDICTED BY IDOCK:   -3.27 KCAL/MOL
REMARK 923 INTER-LIGAND FREE ENERGY PREDICTED BY IDOCK:   -2.95 KCAL/MOL
REMARK 924 INTRA-LIGAND FREE ENERGY PREDICTED BY IDOCK:   -0.32 KCAL/MOL
REMARK 927      BINDING AFFINITY PREDICTED BY RF-SCORE:    0.00 PKD
ROOT
HETATM    1  C   UNL     1      -7.633  11.115  69.396  1.00  0.00    -0.013 C  
HETATM    2  C   UNL     1      -7.994   9.980  69.570  1.00  0.00    -0.161 C  
ENDROOT
BRANCH   2   3
HETATM    3  C   UNL     1      -8.514   8.617  69.699  1.00  0.00    -0.129 C  
BRANCH   3   4
HETATM    4  N   UNL     1      -9.889   8.628  70.187  1.00  0.00    -0.177 NA 
HETATM    5  H   UNL     1     -10.086   9.484  70.704  1.00  0.00     0.000 HD 
BRANCH   4   6
HETATM    6  C   UNL     1     -10.873   8.421  69.116  1.00  0.00    -0.023 C  
HETATM    7  C   UNL     1     -10.462   7.192  68.262  1.00  0.00    -0.235 C  
HETATM    8  C   UNL     1      -9.971   7.672  66.887  1.00  0.00    -0.325 C  
HETATM    9  C   UNL     1     -10.334   9.118  66.878  1.00  0.00    -0.321 A  
HETATM   10  C   UNL     1     -10.144  10.018  65.840  1.00  0.00    -0.319 A  
HETATM   11  C   UNL     1     -10.537  11.346  66.021  1.00  0.00    -0.319 A  
HETATM   12  C   UNL     1     -11.154  11.743  67.211  1.00  0.00    -0.342 A  
HETATM   13  C   UNL     1     -11.361  10.823  68.239  1.00  0.00    -0.376 A  
HETATM   14  C   UNL     1     -10.897   9.522  68.089  1.00  0.00    -0.208 A  
ENDBRANCH   4   6
ENDBRANCH   3   4
ENDBRANCH   2   3
TORSDOF 3
ENDMDL
MODEL      188
REMARK 921   NORMALIZED FREE ENERGY PREDICTED BY IDOCK:   -2.53 KCAL/MOL
REMARK 922        TOTAL FREE ENERGY PREDICTED BY IDOCK:   -3.27 KCAL/MOL
REMARK 923 INTER-LIGAND FREE ENERGY PREDICTED BY IDOCK:   -3.41 KCAL/MOL
REMARK 924 INTRA-LIGAND FREE ENERGY PREDICTED BY IDOCK:    0.15 KCAL/MOL
REMARK 927      BINDING AFFINITY PREDICTED BY RF-SCORE:    0.00 PKD
ROOT
HETATM    1  C   UNL     1      -7.174   7.172  69.567  1.00  0.00    -0.080 C  
HETATM    2  C   UNL     1      -7.856   8.149  69.406  1.00  0.00    -0.105 C  
ENDROOT
BRANCH   2   3
HETATM    3  C   UNL     1      -8.780   9.275  69.243  1.00  0.00    -0.141 C  
BRANCH   3   4
HETATM    4  N   UNL     1      -8.915   9.639  67.836  1.00  0.00    -0.119 NA 
HETATM    5  H   UNL     1      -8.454   8.955  67.237  1.00  0.00     0.000 HD 
BRANCH   4   6
HETATM    6  C   UNL     1     -10.313   9.837  67.433  1.00  0.00    -0.240 C  
HETATM    7  C   UNL     1     -10.367  10.316  65.958  1.00  0.00    -0.248 C  
HETATM    8  C   UNL     1     -10.782  11.795  65.921  1.00  0.00    -0.328 C  
HETATM    9  C   UNL     1     -11.196  12.072  67.327  1.00  0.00    -0.371 A  
HETATM   10  C   UNL     1     -11.700  13.263  67.827  1.00  0.00    -0.398 A  
HETATM   11  C   UNL     1     -12.022  13.338  69.184  1.00  0.00    -0.343 A  
HETATM   12  C   UNL     1     -11.882  12.216  70.006  1.00  0.00    -0.383 A  
HETATM   13  C   UNL     1     -11.397  11.017  69.486  1.00  0.00    -0.356 A  
HETATM   14  C   UNL     1     -11.001  10.966  68.154  1.00  0.00    -0.302 A  
ENDBRANCH   4   6
ENDBRANCH   3   4
ENDBRANCH   2   3
TORSDOF 3
ENDMDL
MODEL      189
REMARK 921   NORMALIZED FREE ENERGY PREDICTED BY IDOCK:   -2.52 KCAL/MOL
REMARK 922        TOTAL FREE ENERGY PREDICTED BY IDOCK:   -3.26 KCAL/MOL
REMARK 923 INTER-LIGAND FREE ENERGY PREDICTED BY IDOCK:   -3.06 KCAL/MOL
REMARK 924 INTRA-LIGAND FREE ENERGY PREDICTED BY IDOCK:   -0.20 KCAL/MOL
REMARK 927      BINDING AFFINITY PREDICTED BY RF-SCORE:    0.00 PKD
ROOT
HETATM    1  C   UNL     1      -8.359   4.932  66.212  1.00  0.00    -0.111 C  
HETATM    2  C   UNL     1      -8.718   5.403  67.259  1.00  0.00    -0.107 C  
ENDROOT
BRANCH   2   3
HETATM    3  C   UNL     1      -9.074   6.061  68.519  1.00  0.00    -0.112 C  
BRANCH   3   4
HETATM    4  N   UNL     1      -9.833   7.282  68.273  1.00  0.00    -0.151 NA 
HETATM    5  H   UNL     1     -10.814   7.158  68.522  1.00  0.00     0.000 HD 
BRANCH   4   6
HETATM    6  C   UNL     1      -9.262   8.452  68.950  1.00  0.00    -0.147 C  
HETATM    7  C   UNL     1      -8.778   8.050  70.368  1.00  0.00    -0.136 C  
HETATM    8  C   UNL     1      -9.719   8.662  71.418  1.00  0.00    -0.314 C  
HETATM    9  C   UNL     1     -10.565   9.594  70.619  1.00  0.00    -0.386 A  
HETATM   10  C   UNL     1     -11.560  10.433  71.098  1.00  0.00    -0.315 A  
HETATM   11  C   UNL     1     -12.261  11.230  70.190  1.00  0.00    -0.410 A  
HETATM   12  C   UNL     1     -11.928  11.213  68.832  1.00  0.00    -0.367 A  
HETATM   13  C   UNL     1     -10.910  10.382  68.366  1.00  0.00    -0.289 A  
HETATM   14  C   UNL     1     -10.268   9.530  69.257  1.00  0.00    -0.212 A  
ENDBRANCH   4   6
ENDBRANCH   3   4
ENDBRANCH   2   3
TORSDOF 3
ENDMDL
MODEL      190
REMARK 921   NORMALIZED FREE ENERGY PREDICTED BY IDOCK:   -2.52 KCAL/MOL
REMARK 922        TOTAL FREE ENERGY PREDICTED BY IDOCK:   -3.25 KCAL/MOL
REMARK 923 INTER-LIGAND FREE ENERGY PREDICTED BY IDOCK:   -3.06 KCAL/MOL
REMARK 924 INTRA-LIGAND FREE ENERGY PREDICTED BY IDOCK:   -0.20 KCAL/MOL
REMARK 927      BINDING AFFINITY PREDICTED BY RF-SCORE:    0.00 PKD
ROOT
HETATM    1  C   UNL     1     -12.824  12.561  71.449  1.00  0.00    -0.359 C  
HETATM    2  C   UNL     1     -12.397  12.943  70.391  1.00  0.00    -0.333 C  
ENDROOT
BRANCH   2   3
HETATM    3  C   UNL     1     -11.813  13.488  69.162  1.00  0.00    -0.340 C  
BRANCH   3   4
HETATM    4  N   UNL     1     -10.638  14.300  69.459  1.00  0.00    -0.439 NA 
HETATM    5  H   UNL     1     -10.185  13.987  70.317  1.00  0.00     0.000 HD 
BRANCH   4   6
HETATM    6  C   UNL     1      -9.682  14.343  68.345  1.00  0.00    -0.226 C  
HETATM    7  C   UNL     1      -9.097  12.927  68.105  1.00  0.00    -0.207 C  
HETATM    8  C   UNL     1      -7.631  12.899  68.564  1.00  0.00    -0.120 C  
HETATM    9  C   UNL     1      -7.324  14.336  68.822  1.00  0.00    -0.131 A  
HETATM   10  C   UNL     1      -6.109  14.869  69.224  1.00  0.00    -0.107 A  
HETATM   11  C   UNL     1      -6.015  16.247  69.431  1.00  0.00    -0.157 A  
HETATM   12  C   UNL     1      -7.117  17.073  69.190  1.00  0.00    -0.221 A  
HETATM   13  C   UNL     1      -8.328  16.528  68.765  1.00  0.00    -0.248 A  
HETATM   14  C   UNL     1      -8.443  15.148  68.636  1.00  0.00    -0.170 A  
ENDBRANCH   4   6
ENDBRANCH   3   4
ENDBRANCH   2   3
TORSDOF 3
ENDMDL
MODEL      191
REMARK 921   NORMALIZED FREE ENERGY PREDICTED BY IDOCK:   -2.50 KCAL/MOL
REMARK 922        TOTAL FREE ENERGY PREDICTED BY IDOCK:   -3.22 KCAL/MOL
REMARK 923 INTER-LIGAND FREE ENERGY PREDICTED BY IDOCK:   -3.11 KCAL/MOL
REMARK 924 INTRA-LIGAND FREE ENERGY PREDICTED BY IDOCK:   -0.11 KCAL/MOL
REMARK 927      BINDING AFFINITY PREDICTED BY RF-SCORE:    0.00 PKD
ROOT
HETATM    1  C   UNL     1     -11.469  10.535  70.218  1.00  0.00    -0.416 C  
HETATM    2  C   UNL     1     -10.590   9.793  69.864  1.00  0.00    -0.301 C  
ENDROOT
BRANCH   2   3
HETATM    3  C   UNL     1      -9.454   8.932  69.521  1.00  0.00    -0.159 C  
BRANCH   3   4
HETATM    4  N   UNL     1      -9.362   7.801  70.438  1.00  0.00    -0.160 NA 
HETATM    5  H   UNL     1      -8.409   7.441  70.479  1.00  0.00     0.000 HD 
BRANCH   4   6
HETATM    6  C   UNL     1      -9.863   8.117  71.782  1.00  0.00    -0.194 C  
HETATM    7  C   UNL     1      -8.705   8.669  72.654  1.00  0.00    -0.092 C  
HETATM    8  C   UNL     1      -8.319   7.618  73.707  1.00  0.00    -0.240 C  
HETATM    9  C   UNL     1      -9.403   6.601  73.592  1.00  0.00    -0.173 A  
HETATM   10  C   UNL     1      -9.553   5.453  74.355  1.00  0.00    -0.160 A  
HETATM   11  C   UNL     1     -10.631   4.606  74.090  1.00  0.00    -0.348 A  
HETATM   12  C   UNL     1     -11.566   4.940  73.105  1.00  0.00    -0.300 A  
HETATM   13  C   UNL     1     -11.417   6.109  72.360  1.00  0.00    -0.349 A  
HETATM   14  C   UNL     1     -10.300   6.910  72.569  1.00  0.00    -0.220 A  
ENDBRANCH   4   6
ENDBRANCH   3   4
ENDBRANCH   2   3
TORSDOF 3
ENDMDL
MODEL      192
REMARK 921   NORMALIZED FREE ENERGY PREDICTED BY IDOCK:   -2.47 KCAL/MOL
REMARK 922        TOTAL FREE ENERGY PREDICTED BY IDOCK:   -3.19 KCAL/MOL
REMARK 923 INTER-LIGAND FREE ENERGY PREDICTED BY IDOCK:   -2.98 KCAL/MOL
REMARK 924 INTRA-LIGAND FREE ENERGY PREDICTED BY IDOCK:   -0.22 KCAL/MOL
REMARK 927      BINDING AFFINITY PREDICTED BY RF-SCORE:    0.00 PKD
ROOT
HETATM    1  C   UNL     1     -12.701   8.107  72.247  1.00  0.00    -0.292 C  
HETATM    2  C   UNL     1     -12.080   7.359  71.537  1.00  0.00    -0.357 C  
ENDROOT
BRANCH   2   3
HETATM    3  C   UNL     1     -11.421   6.435  70.610  1.00  0.00    -0.362 C  
BRANCH   3   4
HETATM    4  N   UNL     1     -11.357   7.003  69.267  1.00  0.00    -0.513 NA 
HETATM    5  H   UNL     1     -12.066   7.725  69.141  1.00  0.00     0.000 HD 
BRANCH   4   6
HETATM    6  C   UNL     1     -10.021   7.512  68.930  1.00  0.00    -0.168 C  
HETATM    7  C   UNL     1     -10.154   8.769  68.031  1.00  0.00    -0.241 C  
HETATM    8  C   UNL     1      -9.716   8.419  66.601  1.00  0.00    -0.320 C  
HETATM    9  C   UNL     1      -9.112   7.064  66.749  1.00  0.00    -0.162 A  
HETATM   10  C   UNL     1      -8.521   6.302  65.752  1.00  0.00    -0.148 A  
HETATM   11  C   UNL     1      -8.019   5.040  66.079  1.00  0.00    -0.107 A  
HETATM   12  C   UNL     1      -8.072   4.580  67.398  1.00  0.00    -0.101 A  
HETATM   13  C   UNL     1      -8.648   5.365  68.396  1.00  0.00    -0.095 A  
HETATM   14  C   UNL     1      -9.219   6.585  68.055  1.00  0.00    -0.111 A  
ENDBRANCH   4   6
ENDBRANCH   3   4
ENDBRANCH   2   3
TORSDOF 3
ENDMDL
MODEL      193
REMARK 921   NORMALIZED FREE ENERGY PREDICTED BY IDOCK:   -2.47 KCAL/MOL
REMARK 922        TOTAL FREE ENERGY PREDICTED BY IDOCK:   -3.19 KCAL/MOL
REMARK 923 INTER-LIGAND FREE ENERGY PREDICTED BY IDOCK:   -3.00 KCAL/MOL
REMARK 924 INTRA-LIGAND FREE ENERGY PREDICTED BY IDOCK:   -0.19 KCAL/MOL
REMARK 927      BINDING AFFINITY PREDICTED BY RF-SCORE:    0.00 PKD
ROOT
HETATM    1  C   UNL     1      -6.211   9.296  65.018  1.00  0.00    -0.066 C  
HETATM    2  C   UNL     1      -6.925  10.066  65.604  1.00  0.00    -0.115 C  
ENDROOT
BRANCH   2   3
HETATM    3  C   UNL     1      -7.826  10.915  66.388  1.00  0.00    -0.154 C  
BRANCH   3   4
HETATM    4  N   UNL     1      -8.585  10.121  67.349  1.00  0.00    -0.122 NA 
HETATM    5  H   UNL     1      -8.277   9.150  67.344  1.00  0.00     0.000 HD 
BRANCH   4   6
HETATM    6  C   UNL     1      -8.544  10.681  68.706  1.00  0.00    -0.150 C  
HETATM    7  C   UNL     1      -7.594   9.832  69.591  1.00  0.00    -0.120 C  
HETATM    8  C   UNL     1      -8.426   9.029  70.603  1.00  0.00    -0.229 C  
HETATM    9  C   UNL     1      -9.794   9.604  70.457  1.00  0.00    -0.294 A  
HETATM   10  C   UNL     1     -10.925   9.256  71.179  1.00  0.00    -0.409 A  
HETATM   11  C   UNL     1     -12.131   9.899  70.890  1.00  0.00    -0.431 A  
HETATM   12  C   UNL     1     -12.179  10.907  69.923  1.00  0.00    -0.408 A  
HETATM   13  C   UNL     1     -11.029  11.265  69.219  1.00  0.00    -0.297 A  
HETATM   14  C   UNL     1      -9.848  10.570  69.451  1.00  0.00    -0.205 A  
ENDBRANCH   4   6
ENDBRANCH   3   4
ENDBRANCH   2   3
TORSDOF 3
ENDMDL
MODEL      194
REMARK 921   NORMALIZED FREE ENERGY PREDICTED BY IDOCK:   -2.46 KCAL/MOL
REMARK 922        TOTAL FREE ENERGY PREDICTED BY IDOCK:   -3.18 KCAL/MOL
REMARK 923 INTER-LIGAND FREE ENERGY PREDICTED BY IDOCK:   -2.92 KCAL/MOL
REMARK 924 INTRA-LIGAND FREE ENERGY PREDICTED BY IDOCK:   -0.26 KCAL/MOL
REMARK 927      BINDING AFFINITY PREDICTED BY RF-SCORE:    0.00 PKD
ROOT
HETATM    1  C   UNL     1     -13.718   9.395  72.230  1.00  0.00    -0.495 C  
HETATM    2  C   UNL     1     -12.697   9.655  71.649  1.00  0.00    -0.499 C  
ENDROOT
BRANCH   2   3
HETATM    3  C   UNL     1     -11.455  10.075  70.995  1.00  0.00    -0.383 C  
BRANCH   3   4
HETATM    4  N   UNL     1     -10.441   9.029  71.083  1.00  0.00    -0.265 NA 
HETATM    5  H   UNL     1     -10.493   8.544  71.978  1.00  0.00     0.000 HD 
BRANCH   4   6
HETATM    6  C   UNL     1     -10.506   8.080  69.964  1.00  0.00    -0.228 C  
HETATM    7  C   UNL     1     -10.384   6.630  70.503  1.00  0.00    -0.231 C  
HETATM    8  C   UNL     1      -9.013   6.058  70.113  1.00  0.00    -0.150 C  
HETATM    9  C   UNL     1      -8.474   7.072  69.162  1.00  0.00    -0.129 A  
HETATM   10  C   UNL     1      -7.269   7.016  68.479  1.00  0.00    -0.091 A  
HETATM   11  C   UNL     1      -6.925   8.074  67.635  1.00  0.00    -0.075 A  
HETATM   12  C   UNL     1      -7.806   9.144  67.449  1.00  0.00    -0.099 A  
HETATM   13  C   UNL     1      -9.026   9.178  68.123  1.00  0.00    -0.129 A  
HETATM   14  C   UNL     1      -9.332   8.164  69.024  1.00  0.00    -0.147 A  
ENDBRANCH   4   6
ENDBRANCH   3   4
ENDBRANCH   2   3
TORSDOF 3
ENDMDL
MODEL      195
REMARK 921   NORMALIZED FREE ENERGY PREDICTED BY IDOCK:   -2.43 KCAL/MOL
REMARK 922        TOTAL FREE ENERGY PREDICTED BY IDOCK:   -3.15 KCAL/MOL
REMARK 923 INTER-LIGAND FREE ENERGY PREDICTED BY IDOCK:   -3.08 KCAL/MOL
REMARK 924 INTRA-LIGAND FREE ENERGY PREDICTED BY IDOCK:   -0.07 KCAL/MOL
REMARK 927      BINDING AFFINITY PREDICTED BY RF-SCORE:    0.00 PKD
ROOT
HETATM    1  C   UNL     1     -12.110   8.976  71.938  1.00  0.00    -0.448 C  
HETATM    2  C   UNL     1     -11.002   9.097  71.484  1.00  0.00    -0.434 C  
ENDROOT
BRANCH   2   3
HETATM    3  C   UNL     1      -9.647   9.127  70.929  1.00  0.00    -0.279 C  
BRANCH   3   4
HETATM    4  N   UNL     1      -9.673   8.952  69.480  1.00  0.00    -0.170 NA 
HETATM    5  H   UNL     1      -9.022   9.591  69.024  1.00  0.00     0.000 HD 
BRANCH   4   6
HETATM    6  C   UNL     1      -9.424   7.564  69.072  1.00  0.00    -0.145 C  
HETATM    7  C   UNL     1     -10.767   6.880  68.703  1.00  0.00    -0.256 C  
HETATM    8  C   UNL     1     -11.128   5.855  69.789  1.00  0.00    -0.422 C  
HETATM    9  C   UNL     1      -9.892   5.784  70.621  1.00  0.00    -0.240 A  
HETATM   10  C   UNL     1      -9.674   4.968  71.720  1.00  0.00    -0.218 A  
HETATM   11  C   UNL     1      -8.449   5.051  72.386  1.00  0.00    -0.121 A  
HETATM   12  C   UNL     1      -7.448   5.909  71.918  1.00  0.00    -0.095 A  
HETATM   13  C   UNL     1      -7.671   6.708  70.797  1.00  0.00    -0.097 A  
HETATM   14  C   UNL     1      -8.919   6.683  70.184  1.00  0.00    -0.152 A  
ENDBRANCH   4   6
ENDBRANCH   3   4
ENDBRANCH   2   3
TORSDOF 3
ENDMDL
MODEL      196
REMARK 921   NORMALIZED FREE ENERGY PREDICTED BY IDOCK:   -2.42 KCAL/MOL
REMARK 922        TOTAL FREE ENERGY PREDICTED BY IDOCK:   -3.14 KCAL/MOL
REMARK 923 INTER-LIGAND FREE ENERGY PREDICTED BY IDOCK:   -3.23 KCAL/MOL
REMARK 924 INTRA-LIGAND FREE ENERGY PREDICTED BY IDOCK:    0.08 KCAL/MOL
REMARK 927      BINDING AFFINITY PREDICTED BY RF-SCORE:    0.00 PKD
ROOT
HETATM    1  C   UNL     1      -8.321  10.537  69.399  1.00  0.00    -0.117 C  
HETATM    2  C   UNL     1      -8.731   9.408  69.476  1.00  0.00    -0.162 C  
ENDROOT
BRANCH   2   3
HETATM    3  C   UNL     1      -9.308   8.061  69.487  1.00  0.00    -0.156 C  
BRANCH   3   4
HETATM    4  N   UNL     1     -10.734   8.108  69.794  1.00  0.00    -0.272 NA 
HETATM    5  H   UNL     1     -11.220   8.756  69.175  1.00  0.00     0.000 HD 
BRANCH   4   6
HETATM    6  C   UNL     1     -11.364   6.782  69.769  1.00  0.00    -0.296 C  
HETATM    7  C   UNL     1     -10.971   5.994  71.047  1.00  0.00    -0.350 C  
HETATM    8  C   UNL     1      -9.997   4.868  70.668  1.00  0.00    -0.305 C  
HETATM    9  C   UNL     1     -10.037   4.865  69.177  1.00  0.00    -0.229 A  
HETATM   10  C   UNL     1      -9.360   4.003  68.328  1.00  0.00    -0.216 A  
HETATM   11  C   UNL     1      -9.512   4.163  66.949  1.00  0.00    -0.212 A  
HETATM   12  C   UNL     1     -10.368   5.145  66.442  1.00  0.00    -0.332 A  
HETATM   13  C   UNL     1     -11.062   5.991  67.307  1.00  0.00    -0.247 A  
HETATM   14  C   UNL     1     -10.849   5.883  68.676  1.00  0.00    -0.333 A  
ENDBRANCH   4   6
ENDBRANCH   3   4
ENDBRANCH   2   3
TORSDOF 3
ENDMDL
MODEL      197
REMARK 921   NORMALIZED FREE ENERGY PREDICTED BY IDOCK:   -2.41 KCAL/MOL
REMARK 922        TOTAL FREE ENERGY PREDICTED BY IDOCK:   -3.13 KCAL/MOL
REMARK 923 INTER-LIGAND FREE ENERGY PREDICTED BY IDOCK:   -3.10 KCAL/MOL
REMARK 924 INTRA-LIGAND FREE ENERGY PREDICTED BY IDOCK:   -0.03 KCAL/MOL
REMARK 927      BINDING AFFINITY PREDICTED BY RF-SCORE:    0.00 PKD
ROOT
HETATM    1  C   UNL     1      -7.662   7.014  66.524  1.00  0.00    -0.104 C  
HETATM    2  C   UNL     1      -8.537   7.034  67.349  1.00  0.00    -0.121 C  
ENDROOT
BRANCH   2   3
HETATM    3  C   UNL     1      -9.577   7.173  68.372  1.00  0.00    -0.137 C  
BRANCH   3   4
HETATM    4  N   UNL     1     -10.446   8.309  68.081  1.00  0.00    -0.329 NA 
HETATM    5  H   UNL     1     -11.352   7.996  67.734  1.00  0.00     0.000 HD 
BRANCH   4   6
HETATM    6  C   UNL     1     -10.603   9.211  69.228  1.00  0.00    -0.216 C  
HETATM    7  C   UNL     1      -9.273   9.967  69.483  1.00  0.00    -0.238 C  
HETATM    8  C   UNL     1      -8.624   9.432  70.769  1.00  0.00    -0.201 C  
HETATM    9  C   UNL     1      -9.688   8.570  71.359  1.00  0.00    -0.287 A  
HETATM   10  C   UNL     1      -9.628   7.875  72.557  1.00  0.00    -0.278 A  
HETATM   11  C   UNL     1     -10.727   7.103  72.941  1.00  0.00    -0.339 A  
HETATM   12  C   UNL     1     -11.880   7.075  72.152  1.00  0.00    -0.314 A  
HETATM   13  C   UNL     1     -11.938   7.797  70.960  1.00  0.00    -0.281 A  
HETATM   14  C   UNL     1     -10.815   8.500  70.539  1.00  0.00    -0.252 A  
ENDBRANCH   4   6
ENDBRANCH   3   4
ENDBRANCH   2   3
TORSDOF 3
ENDMDL
MODEL      198
REMARK 921   NORMALIZED FREE ENERGY PREDICTED BY IDOCK:   -2.41 KCAL/MOL
REMARK 922        TOTAL FREE ENERGY PREDICTED BY IDOCK:   -3.12 KCAL/MOL
REMARK 923 INTER-LIGAND FREE ENERGY PREDICTED BY IDOCK:   -2.84 KCAL/MOL
REMARK 924 INTRA-LIGAND FREE ENERGY PREDICTED BY IDOCK:   -0.28 KCAL/MOL
REMARK 927      BINDING AFFINITY PREDICTED BY RF-SCORE:    0.00 PKD
ROOT
HETATM    1  C   UNL     1      -9.776   7.393  74.049  1.00  0.00    -0.215 C  
HETATM    2  C   UNL     1     -10.292   6.387  73.639  1.00  0.00    -0.301 C  
ENDROOT
BRANCH   2   3
HETATM    3  C   UNL     1     -10.878   5.188  73.033  1.00  0.00    -0.279 C  
BRANCH   3   4
HETATM    4  N   UNL     1     -11.222   5.426  71.636  1.00  0.00    -0.063 NA 
HETATM    5  H   UNL     1     -11.987   6.096  71.556  1.00  0.00     0.000 HD 
BRANCH   4   6
HETATM    6  C   UNL     1     -10.068   5.845  70.830  1.00  0.00    -0.197 C  
HETATM    7  C   UNL     1     -10.396   7.175  70.102  1.00  0.00    -0.218 C  
HETATM    8  C   UNL     1     -10.574   6.901  68.601  1.00  0.00    -0.254 C  
HETATM    9  C   UNL     1     -10.109   5.492  68.451  1.00  0.00    -0.234 A  
HETATM   10  C   UNL     1     -10.026   4.763  67.274  1.00  0.00    -0.214 A  
HETATM   11  C   UNL     1      -9.577   3.442  67.333  1.00  0.00    -0.143 A  
HETATM   12  C   UNL     1      -9.174   2.887  68.551  1.00  0.00    -0.239 A  
HETATM   13  C   UNL     1      -9.240   3.637  69.725  1.00  0.00    -0.217 A  
HETATM   14  C   UNL     1      -9.763   4.925  69.678  1.00  0.00    -0.266 A  
ENDBRANCH   4   6
ENDBRANCH   3   4
ENDBRANCH   2   3
TORSDOF 3
ENDMDL
MODEL      199
REMARK 921   NORMALIZED FREE ENERGY PREDICTED BY IDOCK:   -2.41 KCAL/MOL
REMARK 922        TOTAL FREE ENERGY PREDICTED BY IDOCK:   -3.12 KCAL/MOL
REMARK 923 INTER-LIGAND FREE ENERGY PREDICTED BY IDOCK:   -3.06 KCAL/MOL
REMARK 924 INTRA-LIGAND FREE ENERGY PREDICTED BY IDOCK:   -0.06 KCAL/MOL
REMARK 927      BINDING AFFINITY PREDICTED BY RF-SCORE:    0.00 PKD
ROOT
HETATM    1  C   UNL     1     -11.263   9.476  70.585  1.00  0.00    -0.364 C  
HETATM    2  C   UNL     1     -11.203  10.338  69.747  1.00  0.00    -0.339 C  
ENDROOT
BRANCH   2   3
HETATM    3  C   UNL     1     -11.033  11.335  68.687  1.00  0.00    -0.218 C  
BRANCH   3   4
HETATM    4  N   UNL     1      -9.903  12.213  68.973  1.00  0.00    -0.408 NA 
HETATM    5  H   UNL     1      -9.325  11.831  69.722  1.00  0.00     0.000 HD 
BRANCH   4   6
HETATM    6  C   UNL     1      -9.096  12.506  67.782  1.00  0.00    -0.191 C  
HETATM    7  C   UNL     1      -9.969  13.240  66.730  1.00  0.00    -0.263 C  
HETATM    8  C   UNL     1     -10.254  12.290  65.556  1.00  0.00    -0.296 C  
HETATM    9  C   UNL     1      -9.353  11.132  65.824  1.00  0.00    -0.238 A  
HETATM   10  C   UNL     1      -9.191  10.003  65.036  1.00  0.00    -0.277 A  
HETATM   11  C   UNL     1      -8.305   9.010  65.460  1.00  0.00    -0.138 A  
HETATM   12  C   UNL     1      -7.564   9.178  66.633  1.00  0.00    -0.089 A  
HETATM   13  C   UNL     1      -7.718  10.329  67.406  1.00  0.00    -0.095 A  
HETATM   14  C   UNL     1      -8.658  11.280  67.025  1.00  0.00    -0.148 A  
ENDBRANCH   4   6
ENDBRANCH   3   4
ENDBRANCH   2   3
TORSDOF 3
ENDMDL
MODEL      200
REMARK 921   NORMALIZED FREE ENERGY PREDICTED BY IDOCK:   -2.39 KCAL/MOL
REMARK 922        TOTAL FREE ENERGY PREDICTED BY IDOCK:   -3.10 KCAL/MOL
REMARK 923 INTER-LIGAND FREE ENERGY PREDICTED BY IDOCK:   -3.03 KCAL/MOL
REMARK 924 INTRA-LIGAND FREE ENERGY PREDICTED BY IDOCK:   -0.07 KCAL/MOL
REMARK 927      BINDING AFFINITY PREDICTED BY RF-SCORE:    0.00 PKD
ROOT
HETATM    1  C   UNL     1      -9.234  16.606  68.426  1.00  0.00    -0.225 C  
HETATM    2  C   UNL     1      -9.869  15.706  67.943  1.00  0.00    -0.217 C  
ENDROOT
BRANCH   2   3
HETATM    3  C   UNL     1     -10.735  14.682  67.350  1.00  0.00    -0.280 C  
BRANCH   3   4
HETATM    4  N   UNL     1     -10.253  14.295  66.028  1.00  0.00    -0.303 NA 
HETATM    5  H   UNL     1      -9.329  14.686  65.847  1.00  0.00     0.000 HD 
BRANCH   4   6
HETATM    6  C   UNL     1     -10.258  12.840  65.827  1.00  0.00    -0.289 C  
HETATM    7  C   UNL     1     -11.691  12.288  66.046  1.00  0.00    -0.451 C  
HETATM    8  C   UNL     1     -11.733  11.495  67.361  1.00  0.00    -0.231 C  
HETATM    9  C   UNL     1     -10.296  11.391  67.747  1.00  0.00    -0.206 A  
HETATM   10  C   UNL     1      -9.775  10.729  68.848  1.00  0.00    -0.207 A  
HETATM   11  C   UNL     1      -8.394  10.752  69.054  1.00  0.00    -0.138 A  
HETATM   12  C   UNL     1      -7.554  11.392  68.137  1.00  0.00    -0.114 A  
HETATM   13  C   UNL     1      -8.088  12.034  67.020  1.00  0.00    -0.158 A  
HETATM   14  C   UNL     1      -9.468  12.079  66.859  1.00  0.00    -0.206 A  
ENDBRANCH   4   6
ENDBRANCH   3   4
ENDBRANCH   2   3
TORSDOF 3
ENDMDL
MODEL      201
REMARK 921   NORMALIZED FREE ENERGY PREDICTED BY IDOCK:   -2.39 KCAL/MOL
REMARK 922        TOTAL FREE ENERGY PREDICTED BY IDOCK:   -3.10 KCAL/MOL
REMARK 923 INTER-LIGAND FREE ENERGY PREDICTED BY IDOCK:   -2.68 KCAL/MOL
REMARK 924 INTRA-LIGAND FREE ENERGY PREDICTED BY IDOCK:   -0.42 KCAL/MOL
REMARK 927      BINDING AFFINITY PREDICTED BY RF-SCORE:    0.00 PKD
ROOT
HETATM    1  C   UNL     1     -10.207  11.396  68.741  1.00  0.00    -0.209 C  
HETATM    2  C   UNL     1     -10.186  10.852  67.669  1.00  0.00    -0.214 C  
ENDROOT
BRANCH   2   3
HETATM    3  C   UNL     1     -10.046  10.164  66.382  1.00  0.00    -0.236 C  
BRANCH   3   4
HETATM    4  N   UNL     1     -10.100   8.717  66.557  1.00  0.00    -0.301 NA 
HETATM    5  H   UNL     1     -10.017   8.237  65.661  1.00  0.00     0.000 HD 
BRANCH   4   6
HETATM    6  C   UNL     1      -9.102   8.223  67.513  1.00  0.00    -0.137 C  
HETATM    7  C   UNL     1      -8.093   7.297  66.783  1.00  0.00    -0.119 C  
HETATM    8  C   UNL     1      -8.336   5.843  67.214  1.00  0.00    -0.105 C  
HETATM    9  C   UNL     1      -9.292   5.975  68.351  1.00  0.00    -0.120 A  
HETATM   10  C   UNL     1      -9.806   4.950  69.130  1.00  0.00    -0.263 A  
HETATM   11  C   UNL     1     -10.707   5.269  70.149  1.00  0.00    -0.217 A  
HETATM   12  C   UNL     1     -11.042   6.602  70.404  1.00  0.00    -0.374 A  
HETATM   13  C   UNL     1     -10.500   7.626  69.628  1.00  0.00    -0.235 A  
HETATM   14  C   UNL     1      -9.667   7.302  68.563  1.00  0.00    -0.149 A  
ENDBRANCH   4   6
ENDBRANCH   3   4
ENDBRANCH   2   3
TORSDOF 3
ENDMDL
MODEL      202
REMARK 921   NORMALIZED FREE ENERGY PREDICTED BY IDOCK:   -2.38 KCAL/MOL
REMARK 922        TOTAL FREE ENERGY PREDICTED BY IDOCK:   -3.09 KCAL/MOL
REMARK 923 INTER-LIGAND FREE ENERGY PREDICTED BY IDOCK:   -2.83 KCAL/MOL
REMARK 924 INTRA-LIGAND FREE ENERGY PREDICTED BY IDOCK:   -0.26 KCAL/MOL
REMARK 927      BINDING AFFINITY PREDICTED BY RF-SCORE:    0.00 PKD
ROOT
HETATM    1  C   UNL     1     -12.912  10.081  71.365  1.00  0.00    -0.517 C  
HETATM    2  C   UNL     1     -11.753   9.806  71.195  1.00  0.00    -0.465 C  
ENDROOT
BRANCH   2   3
HETATM    3  C   UNL     1     -10.347   9.410  71.087  1.00  0.00    -0.307 C  
BRANCH   3   4
HETATM    4  N   UNL     1     -10.124   8.597  69.896  1.00  0.00    -0.190 NA 
HETATM    5  H   UNL     1     -10.769   7.809  69.866  1.00  0.00     0.000 HD 
BRANCH   4   6
HETATM    6  C   UNL     1     -10.190   9.380  68.655  1.00  0.00    -0.201 C  
HETATM    7  C   UNL     1     -10.593   8.455  67.476  1.00  0.00    -0.285 C  
HETATM    8  C   UNL     1      -9.378   8.242  66.561  1.00  0.00    -0.263 C  
HETATM    9  C   UNL     1      -8.383   9.226  67.074  1.00  0.00    -0.120 A  
HETATM   10  C   UNL     1      -7.116   9.472  66.567  1.00  0.00    -0.085 A  
HETATM   11  C   UNL     1      -6.316  10.430  67.194  1.00  0.00    -0.067 A  
HETATM   12  C   UNL     1      -6.807  11.157  68.283  1.00  0.00    -0.068 A  
HETATM   13  C   UNL     1      -8.091  10.917  68.770  1.00  0.00    -0.145 A  
HETATM   14  C   UNL     1      -8.857   9.908  68.196  1.00  0.00    -0.118 A  
ENDBRANCH   4   6
ENDBRANCH   3   4
ENDBRANCH   2   3
TORSDOF 3
ENDMDL
MODEL      203
REMARK 921   NORMALIZED FREE ENERGY PREDICTED BY IDOCK:   -2.38 KCAL/MOL
REMARK 922        TOTAL FREE ENERGY PREDICTED BY IDOCK:   -3.09 KCAL/MOL
REMARK 923 INTER-LIGAND FREE ENERGY PREDICTED BY IDOCK:   -2.99 KCAL/MOL
REMARK 924 INTRA-LIGAND FREE ENERGY PREDICTED BY IDOCK:   -0.09 KCAL/MOL
REMARK 927      BINDING AFFINITY PREDICTED BY RF-SCORE:    0.00 PKD
ROOT
HETATM    1  C   UNL     1     -10.562   6.675  69.422  1.00  0.00    -0.279 C  
HETATM    2  C   UNL     1     -10.603   7.109  68.301  1.00  0.00    -0.230 C  
ENDROOT
BRANCH   2   3
HETATM    3  C   UNL     1     -10.752   7.691  66.964  1.00  0.00    -0.270 C  
BRANCH   3   4
HETATM    4  N   UNL     1      -9.626   7.330  66.110  1.00  0.00    -0.408 NA 
HETATM    5  H   UNL     1      -9.950   6.956  65.218  1.00  0.00     0.000 HD 
BRANCH   4   6
HETATM    6  C   UNL     1      -8.689   8.442  65.906  1.00  0.00    -0.169 C  
HETATM    7  C   UNL     1      -7.602   8.417  67.012  1.00  0.00    -0.092 C  
HETATM    8  C   UNL     1      -7.834   9.589  67.978  1.00  0.00    -0.087 C  
HETATM    9  C   UNL     1      -8.877  10.402  67.288  1.00  0.00    -0.135 A  
HETATM   10  C   UNL     1      -9.419  11.602  67.721  1.00  0.00    -0.178 A  
HETATM   11  C   UNL     1     -10.403  12.215  66.942  1.00  0.00    -0.235 A  
HETATM   12  C   UNL     1     -10.795  11.647  65.726  1.00  0.00    -0.334 A  
HETATM   13  C   UNL     1     -10.225  10.452  65.289  1.00  0.00    -0.332 A  
HETATM   14  C   UNL     1      -9.305   9.802  66.103  1.00  0.00    -0.243 A  
ENDBRANCH   4   6
ENDBRANCH   3   4
ENDBRANCH   2   3
TORSDOF 3
ENDMDL
MODEL      204
REMARK 921   NORMALIZED FREE ENERGY PREDICTED BY IDOCK:   -2.37 KCAL/MOL
REMARK 922        TOTAL FREE ENERGY PREDICTED BY IDOCK:   -3.08 KCAL/MOL
REMARK 923 INTER-LIGAND FREE ENERGY PREDICTED BY IDOCK:   -2.78 KCAL/MOL
REMARK 924 INTRA-LIGAND FREE ENERGY PREDICTED BY IDOCK:   -0.31 KCAL/MOL
REMARK 927      BINDING AFFINITY PREDICTED BY RF-SCORE:    0.00 PKD
ROOT
HETATM    1  C   UNL     1     -11.343   1.893  73.356  1.00  0.00    -0.289 C  
HETATM    2  C   UNL     1     -10.986   2.939  73.831  1.00  0.00    -0.282 C  
ENDROOT
BRANCH   2   3
HETATM    3  C   UNL     1     -10.473   4.221  74.321  1.00  0.00    -0.253 C  
BRANCH   3   4
HETATM    4  N   UNL     1     -10.432   5.211  73.249  1.00  0.00    -0.198 NA 
HETATM    5  H   UNL     1     -10.242   6.142  73.619  1.00  0.00     0.000 HD 
BRANCH   4   6
HETATM    6  C   UNL     1      -9.479   4.860  72.189  1.00  0.00    -0.145 C  
HETATM    7  C   UNL     1      -8.052   5.310  72.600  1.00  0.00    -0.110 C  
HETATM    8  C   UNL     1      -7.633   6.512  71.741  1.00  0.00    -0.094 C  
HETATM    9  C   UNL     1      -8.698   6.579  70.699  1.00  0.00    -0.144 A  
HETATM   10  C   UNL     1      -8.772   7.471  69.640  1.00  0.00    -0.137 A  
HETATM   11  C   UNL     1      -9.860   7.389  68.768  1.00  0.00    -0.164 A  
HETATM   12  C   UNL     1     -10.826   6.393  68.936  1.00  0.00    -0.382 A  
HETATM   13  C   UNL     1     -10.728   5.486  69.991  1.00  0.00    -0.356 A  
HETATM   14  C   UNL     1      -9.689   5.619  70.905  1.00  0.00    -0.223 A  
ENDBRANCH   4   6
ENDBRANCH   3   4
ENDBRANCH   2   3
TORSDOF 3
ENDMDL
MODEL      205
REMARK 921   NORMALIZED FREE ENERGY PREDICTED BY IDOCK:   -2.36 KCAL/MOL
REMARK 922        TOTAL FREE ENERGY PREDICTED BY IDOCK:   -3.07 KCAL/MOL
REMARK 923 INTER-LIGAND FREE ENERGY PREDICTED BY IDOCK:   -2.67 KCAL/MOL
REMARK 924 INTRA-LIGAND FREE ENERGY PREDICTED BY IDOCK:   -0.40 KCAL/MOL
REMARK 927      BINDING AFFINITY PREDICTED BY RF-SCORE:    0.00 PKD
ROOT
HETATM    1  C   UNL     1     -11.758  13.064  68.395  1.00  0.00    -0.386 C  
HETATM    2  C   UNL     1     -10.821  12.310  68.393  1.00  0.00    -0.257 C  
ENDROOT
BRANCH   2   3
HETATM    3  C   UNL     1      -9.728  11.338  68.298  1.00  0.00    -0.198 C  
BRANCH   3   4
HETATM    4  N   UNL     1      -8.464  11.932  68.720  1.00  0.00    -0.352 NA 
HETATM    5  H   UNL     1      -7.950  11.300  69.332  1.00  0.00     0.000 HD 
BRANCH   4   6
HETATM    6  C   UNL     1      -7.633  12.362  67.588  1.00  0.00    -0.141 C  
HETATM    7  C   UNL     1      -6.153  11.980  67.853  1.00  0.00    -0.062 C  
HETATM    8  C   UNL     1      -5.345  13.255  68.144  1.00  0.00    -0.102 C  
HETATM    9  C   UNL     1      -6.297  14.351  67.802  1.00  0.00    -0.168 A  
HETATM   10  C   UNL     1      -6.048  15.714  67.850  1.00  0.00    -0.163 A  
HETATM   11  C   UNL     1      -7.075  16.596  67.504  1.00  0.00    -0.169 A  
HETATM   12  C   UNL     1      -8.311  16.106  67.072  1.00  0.00    -0.247 A  
HETATM   13  C   UNL     1      -8.541  14.732  67.006  1.00  0.00    -0.260 A  
HETATM   14  C   UNL     1      -7.547  13.857  67.427  1.00  0.00    -0.160 A  
ENDBRANCH   4   6
ENDBRANCH   3   4
ENDBRANCH   2   3
TORSDOF 3
ENDMDL
MODEL      206
REMARK 921   NORMALIZED FREE ENERGY PREDICTED BY IDOCK:   -2.35 KCAL/MOL
REMARK 922        TOTAL FREE ENERGY PREDICTED BY IDOCK:   -3.05 KCAL/MOL
REMARK 923 INTER-LIGAND FREE ENERGY PREDICTED BY IDOCK:   -2.78 KCAL/MOL
REMARK 924 INTRA-LIGAND FREE ENERGY PREDICTED BY IDOCK:   -0.27 KCAL/MOL
REMARK 927      BINDING AFFINITY PREDICTED BY RF-SCORE:    0.00 PKD
ROOT
HETATM    1  C   UNL     1      -7.233  16.093  66.836  1.00  0.00    -0.240 C  
HETATM    2  C   UNL     1      -7.415  15.253  67.677  1.00  0.00    -0.197 C  
ENDROOT
BRANCH   2   3
HETATM    3  C   UNL     1      -7.521  14.226  68.718  1.00  0.00    -0.129 C  
BRANCH   3   4
HETATM    4  N   UNL     1      -8.811  13.548  68.651  1.00  0.00    -0.364 NA 
HETATM    5  H   UNL     1      -9.559  14.206  68.431  1.00  0.00     0.000 HD 
BRANCH   4   6
HETATM    6  C   UNL     1      -8.811  12.418  67.714  1.00  0.00    -0.176 C  
HETATM    7  C   UNL     1      -9.965  12.590  66.690  1.00  0.00    -0.243 C  
HETATM    8  C   UNL     1     -11.063  11.557  66.987  1.00  0.00    -0.365 C  
HETATM    9  C   UNL     1     -10.429  10.660  67.996  1.00  0.00    -0.228 A  
HETATM   10  C   UNL     1     -10.987   9.529  68.572  1.00  0.00    -0.109 A  
HETATM   11  C   UNL     1     -10.242   8.819  69.516  1.00  0.00    -0.208 A  
HETATM   12  C   UNL     1      -8.940   9.219  69.833  1.00  0.00    -0.194 A  
HETATM   13  C   UNL     1      -8.381  10.345  69.230  1.00  0.00    -0.161 A  
HETATM   14  C   UNL     1      -9.153  11.097  68.351  1.00  0.00    -0.168 A  
ENDBRANCH   4   6
ENDBRANCH   3   4
ENDBRANCH   2   3
TORSDOF 3
ENDMDL
MODEL      207
REMARK 921   NORMALIZED FREE ENERGY PREDICTED BY IDOCK:   -2.35 KCAL/MOL
REMARK 922        TOTAL FREE ENERGY PREDICTED BY IDOCK:   -3.05 KCAL/MOL
REMARK 923 INTER-LIGAND FREE ENERGY PREDICTED BY IDOCK:   -2.79 KCAL/MOL
REMARK 924 INTRA-LIGAND FREE ENERGY PREDICTED BY IDOCK:   -0.26 KCAL/MOL
REMARK 927      BINDING AFFINITY PREDICTED BY RF-SCORE:    0.00 PKD
ROOT
HETATM    1  C   UNL     1      -9.344   2.401  67.965  1.00  0.00    -0.253 C  
HETATM    2  C   UNL     1      -9.554   3.564  67.742  1.00  0.00    -0.179 C  
ENDROOT
BRANCH   2   3
HETATM    3  C   UNL     1      -9.921   4.963  67.504  1.00  0.00    -0.156 C  
BRANCH   3   4
HETATM    4  N   UNL     1     -10.612   5.524  68.661  1.00  0.00    -0.179 NA 
HETATM    5  H   UNL     1     -11.197   4.821  69.112  1.00  0.00     0.000 HD 
BRANCH   4   6
HETATM    6  C   UNL     1      -9.694   6.143  69.625  1.00  0.00    -0.152 C  
HETATM    7  C   UNL     1     -10.050   5.674  71.060  1.00  0.00    -0.266 C  
HETATM    8  C   UNL     1     -10.682   6.842  71.833  1.00  0.00    -0.250 C  
HETATM    9  C   UNL     1     -10.455   8.011  70.936  1.00  0.00    -0.223 A  
HETATM   10  C   UNL     1     -10.802   9.330  71.184  1.00  0.00    -0.407 A  
HETATM   11  C   UNL     1     -10.520  10.293  70.211  1.00  0.00    -0.207 A  
HETATM   12  C   UNL     1      -9.858   9.934  69.034  1.00  0.00    -0.193 A  
HETATM   13  C   UNL     1      -9.493   8.607  68.806  1.00  0.00    -0.143 A  
HETATM   14  C   UNL     1      -9.846   7.637  69.738  1.00  0.00    -0.181 A  
ENDBRANCH   4   6
ENDBRANCH   3   4
ENDBRANCH   2   3
TORSDOF 3
ENDMDL
MODEL      208
REMARK 921   NORMALIZED FREE ENERGY PREDICTED BY IDOCK:   -2.34 KCAL/MOL
REMARK 922        TOTAL FREE ENERGY PREDICTED BY IDOCK:   -3.04 KCAL/MOL
REMARK 923 INTER-LIGAND FREE ENERGY PREDICTED BY IDOCK:   -2.71 KCAL/MOL
REMARK 924 INTRA-LIGAND FREE ENERGY PREDICTED BY IDOCK:   -0.33 KCAL/MOL
REMARK 927      BINDING AFFINITY PREDICTED BY RF-SCORE:    0.00 PKD
ROOT
HETATM    1  C   UNL     1     -10.862   6.112  68.440  1.00  0.00    -0.382 C  
HETATM    2  C   UNL     1     -10.346   5.210  69.045  1.00  0.00    -0.205 C  
ENDROOT
BRANCH   2   3
HETATM    3  C   UNL     1      -9.784   4.038  69.722  1.00  0.00    -0.184 C  
BRANCH   3   4
HETATM    4  N   UNL     1      -8.507   4.361  70.350  1.00  0.00    -0.076 NA 
HETATM    5  H   UNL     1      -8.195   5.294  70.084  1.00  0.00     0.000 HD 
BRANCH   4   6
HETATM    6  C   UNL     1      -8.540   4.213  71.811  1.00  0.00    -0.104 C  
HETATM    7  C   UNL     1      -9.890   3.579  72.240  1.00  0.00    -0.233 C  
HETATM    8  C   UNL     1     -10.750   4.643  72.938  1.00  0.00    -0.295 C  
HETATM    9  C   UNL     1      -9.807   5.784  73.121  1.00  0.00    -0.178 A  
HETATM   10  C   UNL     1     -10.073   6.994  73.743  1.00  0.00    -0.390 A  
HETATM   11  C   UNL     1      -9.060   7.953  73.807  1.00  0.00    -0.306 A  
HETATM   12  C   UNL     1      -7.790   7.674  73.294  1.00  0.00    -0.149 A  
HETATM   13  C   UNL     1      -7.527   6.444  72.691  1.00  0.00    -0.091 A  
HETATM   14  C   UNL     1      -8.558   5.521  72.556  1.00  0.00    -0.121 A  
ENDBRANCH   4   6
ENDBRANCH   3   4
ENDBRANCH   2   3
TORSDOF 3
ENDMDL
MODEL      209
REMARK 921   NORMALIZED FREE ENERGY PREDICTED BY IDOCK:   -2.34 KCAL/MOL
REMARK 922        TOTAL FREE ENERGY PREDICTED BY IDOCK:   -3.04 KCAL/MOL
REMARK 923 INTER-LIGAND FREE ENERGY PREDICTED BY IDOCK:   -2.64 KCAL/MOL
REMARK 924 INTRA-LIGAND FREE ENERGY PREDICTED BY IDOCK:   -0.40 KCAL/MOL
REMARK 927      BINDING AFFINITY PREDICTED BY RF-SCORE:    0.00 PKD
ROOT
HETATM    1  C   UNL     1      -6.506   6.165  73.011  1.00  0.00    -0.064 C  
HETATM    2  C   UNL     1      -7.519   5.594  73.321  1.00  0.00    -0.096 C  
ENDROOT
BRANCH   2   3
HETATM    3  C   UNL     1      -8.811   4.996  73.668  1.00  0.00    -0.108 C  
BRANCH   3   4
HETATM    4  N   UNL     1      -9.711   4.998  72.519  1.00  0.00    -0.152 NA 
HETATM    5  H   UNL     1     -10.605   4.567  72.754  1.00  0.00     0.000 HD 
BRANCH   4   6
HETATM    6  C   UNL     1      -9.905   6.339  71.953  1.00  0.00    -0.155 C  
HETATM    7  C   UNL     1     -11.359   6.811  72.219  1.00  0.00    -0.310 C  
HETATM    8  C   UNL     1     -12.144   6.802  70.898  1.00  0.00    -0.421 C  
HETATM    9  C   UNL     1     -11.088   6.572  69.871  1.00  0.00    -0.430 A  
HETATM   10  C   UNL     1     -11.261   6.517  68.496  1.00  0.00    -0.287 A  
HETATM   11  C   UNL     1     -10.148   6.276  67.688  1.00  0.00    -0.179 A  
HETATM   12  C   UNL     1      -8.878   6.141  68.258  1.00  0.00    -0.112 A  
HETATM   13  C   UNL     1      -8.713   6.222  69.641  1.00  0.00    -0.136 A  
HETATM   14  C   UNL     1      -9.833   6.381  70.449  1.00  0.00    -0.193 A  
ENDBRANCH   4   6
ENDBRANCH   3   4
ENDBRANCH   2   3
TORSDOF 3
ENDMDL
MODEL      210
REMARK 921   NORMALIZED FREE ENERGY PREDICTED BY IDOCK:   -2.31 KCAL/MOL
REMARK 922        TOTAL FREE ENERGY PREDICTED BY IDOCK:   -3.01 KCAL/MOL
REMARK 923 INTER-LIGAND FREE ENERGY PREDICTED BY IDOCK:   -3.32 KCAL/MOL
REMARK 924 INTRA-LIGAND FREE ENERGY PREDICTED BY IDOCK:    0.31 KCAL/MOL
REMARK 927      BINDING AFFINITY PREDICTED BY RF-SCORE:    0.00 PKD
ROOT
HETATM    1  C   UNL     1     -10.240  12.498  65.811  1.00  0.00    -0.289 C  
HETATM    2  C   UNL     1      -9.818  13.467  66.386  1.00  0.00    -0.299 C  
ENDROOT
BRANCH   2   3
HETATM    3  C   UNL     1      -9.285  14.696  66.981  1.00  0.00    -0.239 C  
BRANCH   3   4
HETATM    4  N   UNL     1      -9.904  14.959  68.276  1.00  0.00    -0.214 NA 
HETATM    5  H   UNL     1      -9.843  14.141  68.883  1.00  0.00     0.000 HD 
BRANCH   4   6
HETATM    6  C   UNL     1      -9.352  16.148  68.938  1.00  0.00    -0.235 C  
HETATM    7  C   UNL     1     -10.445  17.244  69.035  1.00  0.00    -0.309 C  
HETATM    8  C   UNL     1     -10.111  18.381  68.057  1.00  0.00    -0.392 C  
HETATM    9  C   UNL     1      -8.730  18.050  67.603  1.00  0.00    -0.247 A  
HETATM   10  C   UNL     1      -7.940  18.787  66.734  1.00  0.00    -0.265 A  
HETATM   11  C   UNL     1      -6.668  18.307  66.412  1.00  0.00    -0.256 A  
HETATM   12  C   UNL     1      -6.189  17.130  66.995  1.00  0.00    -0.212 A  
HETATM   13  C   UNL     1      -6.985  16.410  67.885  1.00  0.00    -0.154 A  
HETATM   14  C   UNL     1      -8.279  16.845  68.143  1.00  0.00    -0.207 A  
ENDBRANCH   4   6
ENDBRANCH   3   4
ENDBRANCH   2   3
TORSDOF 3
ENDMDL
MODEL      211
REMARK 921   NORMALIZED FREE ENERGY PREDICTED BY IDOCK:   -2.30 KCAL/MOL
REMARK 922        TOTAL FREE ENERGY PREDICTED BY IDOCK:   -2.99 KCAL/MOL
REMARK 923 INTER-LIGAND FREE ENERGY PREDICTED BY IDOCK:   -2.77 KCAL/MOL
REMARK 924 INTRA-LIGAND FREE ENERGY PREDICTED BY IDOCK:   -0.22 KCAL/MOL
REMARK 927      BINDING AFFINITY PREDICTED BY RF-SCORE:    0.00 PKD
ROOT
HETATM    1  C   UNL     1      -7.495  12.476  67.663  1.00  0.00    -0.139 C  
HETATM    2  C   UNL     1      -7.985  13.485  68.100  1.00  0.00    -0.149 C  
ENDROOT
BRANCH   2   3
HETATM    3  C   UNL     1      -8.616  14.650  68.725  1.00  0.00    -0.160 C  
BRANCH   3   4
HETATM    4  N   UNL     1      -7.708  15.791  68.736  1.00  0.00    -0.163 NA 
HETATM    5  H   UNL     1      -6.878  15.603  68.174  1.00  0.00     0.000 HD 
BRANCH   4   6
HETATM    6  C   UNL     1      -8.358  17.038  68.313  1.00  0.00    -0.228 C  
HETATM    7  C   UNL     1      -8.763  16.934  66.820  1.00  0.00    -0.261 C  
HETATM    8  C   UNL     1      -7.848  17.841  65.982  1.00  0.00    -0.193 C  
HETATM    9  C   UNL     1      -7.109  18.628  67.010  1.00  0.00    -0.212 A  
HETATM   10  C   UNL     1      -6.177  19.629  66.781  1.00  0.00    -0.186 A  
HETATM   11  C   UNL     1      -5.574  20.249  67.877  1.00  0.00    -0.232 A  
HETATM   12  C   UNL     1      -5.943  19.896  69.179  1.00  0.00    -0.312 A  
HETATM   13  C   UNL     1      -6.900  18.904  69.396  1.00  0.00    -0.247 A  
HETATM   14  C   UNL     1      -7.440  18.232  68.306  1.00  0.00    -0.288 A  
ENDBRANCH   4   6
ENDBRANCH   3   4
ENDBRANCH   2   3
TORSDOF 3
ENDMDL
MODEL      212
REMARK 921   NORMALIZED FREE ENERGY PREDICTED BY IDOCK:   -2.29 KCAL/MOL
REMARK 922        TOTAL FREE ENERGY PREDICTED BY IDOCK:   -2.98 KCAL/MOL
REMARK 923 INTER-LIGAND FREE ENERGY PREDICTED BY IDOCK:   -2.74 KCAL/MOL
REMARK 924 INTRA-LIGAND FREE ENERGY PREDICTED BY IDOCK:   -0.25 KCAL/MOL
REMARK 927      BINDING AFFINITY PREDICTED BY RF-SCORE:    0.00 PKD
ROOT
HETATM    1  C   UNL     1      -8.127  10.397  68.896  1.00  0.00    -0.129 C  
HETATM    2  C   UNL     1      -9.273  10.108  68.670  1.00  0.00    -0.157 C  
ENDROOT
BRANCH   2   3
HETATM    3  C   UNL     1     -10.640   9.750  68.282  1.00  0.00    -0.229 C  
BRANCH   3   4
HETATM    4  N   UNL     1     -11.013   8.451  68.832  1.00  0.00    -0.428 NA 
HETATM    5  H   UNL     1     -11.705   7.990  68.242  1.00  0.00     0.000 HD 
BRANCH   4   6
HETATM    6  C   UNL     1      -9.855   7.579  69.065  1.00  0.00    -0.170 C  
HETATM    7  C   UNL     1      -9.908   6.371  68.093  1.00  0.00    -0.127 C  
HETATM    8  C   UNL     1     -10.256   5.099  68.883  1.00  0.00    -0.221 C  
HETATM    9  C   UNL     1     -10.154   5.538  70.304  1.00  0.00    -0.305 A  
HETATM   10  C   UNL     1     -10.334   4.754  71.433  1.00  0.00    -0.192 A  
HETATM   11  C   UNL     1     -10.211   5.349  72.691  1.00  0.00    -0.225 A  
HETATM   12  C   UNL     1      -9.864   6.699  72.803  1.00  0.00    -0.182 A  
HETATM   13  C   UNL     1      -9.662   7.472  71.660  1.00  0.00    -0.184 A  
HETATM   14  C   UNL     1      -9.864   6.899  70.409  1.00  0.00    -0.187 A  
ENDBRANCH   4   6
ENDBRANCH   3   4
ENDBRANCH   2   3
TORSDOF 3
ENDMDL
MODEL      213
REMARK 921   NORMALIZED FREE ENERGY PREDICTED BY IDOCK:   -2.28 KCAL/MOL
REMARK 922        TOTAL FREE ENERGY PREDICTED BY IDOCK:   -2.98 KCAL/MOL
REMARK 923 INTER-LIGAND FREE ENERGY PREDICTED BY IDOCK:   -2.77 KCAL/MOL
REMARK 924 INTRA-LIGAND FREE ENERGY PREDICTED BY IDOCK:   -0.20 KCAL/MOL
REMARK 927      BINDING AFFINITY PREDICTED BY RF-SCORE:    0.00 PKD
ROOT
HETATM    1  C   UNL     1      -7.455  10.015  65.158  1.00  0.00    -0.139 C  
HETATM    2  C   UNL     1      -7.311   9.829  66.338  1.00  0.00    -0.095 C  
ENDROOT
BRANCH   2   3
HETATM    3  C   UNL     1      -7.191   9.705  67.793  1.00  0.00    -0.085 C  
BRANCH   3   4
HETATM    4  N   UNL     1      -8.488   9.427  68.401  1.00  0.00    -0.119 NA 
HETATM    5  H   UNL     1      -9.173   9.161  67.694  1.00  0.00     0.000 HD 
BRANCH   4   6
HETATM    6  C   UNL     1      -8.412   8.419  69.466  1.00  0.00    -0.124 C  
HETATM    7  C   UNL     1      -8.316   7.003  68.838  1.00  0.00    -0.125 C  
HETATM    8  C   UNL     1      -9.641   6.258  69.062  1.00  0.00    -0.138 C  
HETATM    9  C   UNL     1     -10.375   7.141  70.014  1.00  0.00    -0.219 A  
HETATM   10  C   UNL     1     -11.621   6.907  70.575  1.00  0.00    -0.396 A  
HETATM   11  C   UNL     1     -12.158   7.862  71.441  1.00  0.00    -0.333 A  
HETATM   12  C   UNL     1     -11.427   9.008  71.769  1.00  0.00    -0.442 A  
HETATM   13  C   UNL     1     -10.164   9.221  71.217  1.00  0.00    -0.383 A  
HETATM   14  C   UNL     1      -9.666   8.310  70.293  1.00  0.00    -0.177 A  
ENDBRANCH   4   6
ENDBRANCH   3   4
ENDBRANCH   2   3
TORSDOF 3
ENDMDL
MODEL      214
REMARK 921   NORMALIZED FREE ENERGY PREDICTED BY IDOCK:   -2.28 KCAL/MOL
REMARK 922        TOTAL FREE ENERGY PREDICTED BY IDOCK:   -2.98 KCAL/MOL
REMARK 923 INTER-LIGAND FREE ENERGY PREDICTED BY IDOCK:   -2.78 KCAL/MOL
REMARK 924 INTRA-LIGAND FREE ENERGY PREDICTED BY IDOCK:   -0.19 KCAL/MOL
REMARK 927      BINDING AFFINITY PREDICTED BY RF-SCORE:    0.00 PKD
ROOT
HETATM    1  C   UNL     1      -6.553  13.254  67.462  1.00  0.00    -0.153 C  
HETATM    2  C   UNL     1      -7.377  12.518  67.937  1.00  0.00    -0.115 C  
ENDROOT
BRANCH   2   3
HETATM    3  C   UNL     1      -8.409  11.708  68.590  1.00  0.00    -0.100 C  
BRANCH   3   4
HETATM    4  N   UNL     1      -7.811  10.747  69.510  1.00  0.00    -0.344 NA 
HETATM    5  H   UNL     1      -7.682  11.158  70.435  1.00  0.00     0.000 HD 
BRANCH   4   6
HETATM    6  C   UNL     1      -8.569   9.492  69.592  1.00  0.00    -0.183 C  
HETATM    7  C   UNL     1     -10.089   9.802  69.607  1.00  0.00    -0.250 C  
HETATM    8  C   UNL     1     -10.650   9.523  71.010  1.00  0.00    -0.392 C  
HETATM    9  C   UNL     1      -9.522   8.833  71.701  1.00  0.00    -0.358 A  
HETATM   10  C   UNL     1      -9.521   8.328  72.992  1.00  0.00    -0.298 A  
HETATM   11  C   UNL     1      -8.358   7.723  73.475  1.00  0.00    -0.247 A  
HETATM   12  C   UNL     1      -7.237   7.589  72.650  1.00  0.00    -0.080 A  
HETATM   13  C   UNL     1      -7.259   8.081  71.345  1.00  0.00    -0.068 A  
HETATM   14  C   UNL     1      -8.388   8.754  70.892  1.00  0.00    -0.196 A  
ENDBRANCH   4   6
ENDBRANCH   3   4
ENDBRANCH   2   3
TORSDOF 3
ENDMDL
MODEL      215
REMARK 921   NORMALIZED FREE ENERGY PREDICTED BY IDOCK:   -2.27 KCAL/MOL
REMARK 922        TOTAL FREE ENERGY PREDICTED BY IDOCK:   -2.96 KCAL/MOL
REMARK 923 INTER-LIGAND FREE ENERGY PREDICTED BY IDOCK:   -2.75 KCAL/MOL
REMARK 924 INTRA-LIGAND FREE ENERGY PREDICTED BY IDOCK:   -0.21 KCAL/MOL
REMARK 927      BINDING AFFINITY PREDICTED BY RF-SCORE:    0.00 PKD
ROOT
HETATM    1  C   UNL     1      -9.375  18.461  66.383  1.00  0.00    -0.287 C  
HETATM    2  C   UNL     1     -10.077  17.905  67.187  1.00  0.00    -0.340 C  
ENDROOT
BRANCH   2   3
HETATM    3  C   UNL     1     -10.839  17.163  68.195  1.00  0.00    -0.316 C  
BRANCH   3   4
HETATM    4  N   UNL     1     -10.779  15.727  67.941  1.00  0.00    -0.293 NA 
HETATM    5  H   UNL     1     -10.339  15.534  67.041  1.00  0.00     0.000 HD 
BRANCH   4   6
HETATM    6  C   UNL     1     -10.116  14.987  69.022  1.00  0.00    -0.241 C  
HETATM    7  C   UNL     1      -8.905  15.803  69.546  1.00  0.00    -0.169 C  
HETATM    8  C   UNL     1      -7.602  15.119  69.102  1.00  0.00    -0.188 C  
HETATM    9  C   UNL     1      -8.069  13.813  68.554  1.00  0.00    -0.128 A  
HETATM   10  C   UNL     1      -7.278  12.791  68.051  1.00  0.00    -0.115 A  
HETATM   11  C   UNL     1      -7.899  11.638  67.566  1.00  0.00    -0.137 A  
HETATM   12  C   UNL     1      -9.289  11.504  67.633  1.00  0.00    -0.171 A  
HETATM   13  C   UNL     1     -10.072  12.529  68.162  1.00  0.00    -0.225 A  
HETATM   14  C   UNL     1      -9.460  13.708  68.571  1.00  0.00    -0.143 A  
ENDBRANCH   4   6
ENDBRANCH   3   4
ENDBRANCH   2   3
TORSDOF 3
ENDMDL
MODEL      216
REMARK 921   NORMALIZED FREE ENERGY PREDICTED BY IDOCK:   -2.27 KCAL/MOL
REMARK 922        TOTAL FREE ENERGY PREDICTED BY IDOCK:   -2.96 KCAL/MOL
REMARK 923 INTER-LIGAND FREE ENERGY PREDICTED BY IDOCK:   -2.53 KCAL/MOL
REMARK 924 INTRA-LIGAND FREE ENERGY PREDICTED BY IDOCK:   -0.43 KCAL/MOL
REMARK 927      BINDING AFFINITY PREDICTED BY RF-SCORE:    0.00 PKD
ROOT
HETATM    1  C   UNL     1     -13.283   7.119  71.156  1.00  0.00    -0.265 C  
HETATM    2  C   UNL     1     -12.350   7.542  71.786  1.00  0.00    -0.357 C  
ENDROOT
BRANCH   2   3
HETATM    3  C   UNL     1     -11.291   8.115  72.621  1.00  0.00    -0.381 C  
BRANCH   3   4
HETATM    4  N   UNL     1      -9.977   7.655  72.184  1.00  0.00    -0.176 NA 
HETATM    5  H   UNL     1      -9.246   8.299  72.485  1.00  0.00     0.000 HD 
BRANCH   4   6
HETATM    6  C   UNL     1      -9.683   6.283  72.616  1.00  0.00    -0.158 C  
HETATM    7  C   UNL     1      -8.397   6.274  73.484  1.00  0.00    -0.121 C  
HETATM    8  C   UNL     1      -7.254   5.621  72.691  1.00  0.00    -0.090 C  
HETATM    9  C   UNL     1      -7.945   5.049  71.500  1.00  0.00    -0.112 A  
HETATM   10  C   UNL     1      -7.369   4.312  70.477  1.00  0.00    -0.048 A  
HETATM   11  C   UNL     1      -8.179   3.868  69.430  1.00  0.00    -0.069 A  
HETATM   12  C   UNL     1      -9.554   4.124  69.443  1.00  0.00    -0.265 A  
HETATM   13  C   UNL     1     -10.126   4.847  70.490  1.00  0.00    -0.312 A  
HETATM   14  C   UNL     1      -9.306   5.356  71.490  1.00  0.00    -0.177 A  
ENDBRANCH   4   6
ENDBRANCH   3   4
ENDBRANCH   2   3
TORSDOF 3
ENDMDL
MODEL      217
REMARK 921   NORMALIZED FREE ENERGY PREDICTED BY IDOCK:   -2.26 KCAL/MOL
REMARK 922        TOTAL FREE ENERGY PREDICTED BY IDOCK:   -2.95 KCAL/MOL
REMARK 923 INTER-LIGAND FREE ENERGY PREDICTED BY IDOCK:   -2.93 KCAL/MOL
REMARK 924 INTRA-LIGAND FREE ENERGY PREDICTED BY IDOCK:   -0.02 KCAL/MOL
REMARK 927      BINDING AFFINITY PREDICTED BY RF-SCORE:    0.00 PKD
ROOT
HETATM    1  C   UNL     1      -7.844   5.368  66.827  1.00  0.00    -0.101 C  
HETATM    2  C   UNL     1      -8.535   5.486  67.805  1.00  0.00    -0.098 C  
ENDROOT
BRANCH   2   3
HETATM    3  C   UNL     1      -9.315   5.725  69.023  1.00  0.00    -0.123 C  
BRANCH   3   4
HETATM    4  N   UNL     1      -8.832   6.909  69.726  1.00  0.00    -0.141 NA 
HETATM    5  H   UNL     1      -9.143   7.762  69.261  1.00  0.00     0.000 HD 
BRANCH   4   6
HETATM    6  C   UNL     1      -9.204   6.918  71.146  1.00  0.00    -0.154 C  
HETATM    7  C   UNL     1      -9.359   5.459  71.653  1.00  0.00    -0.173 C  
HETATM    8  C   UNL     1     -10.847   5.160  71.890  1.00  0.00    -0.171 C  
HETATM    9  C   UNL     1     -11.492   6.499  71.760  1.00  0.00    -0.346 A  
HETATM   10  C   UNL     1     -12.837   6.794  71.926  1.00  0.00    -0.264 A  
HETATM   11  C   UNL     1     -13.261   8.114  71.749  1.00  0.00    -0.365 A  
HETATM   12  C   UNL     1     -12.335   9.120  71.458  1.00  0.00    -0.421 A  
HETATM   13  C   UNL     1     -10.981   8.814  71.317  1.00  0.00    -0.345 A  
HETATM   14  C   UNL     1     -10.572   7.489  71.414  1.00  0.00    -0.229 A  
ENDBRANCH   4   6
ENDBRANCH   3   4
ENDBRANCH   2   3
TORSDOF 3
ENDMDL
MODEL      218
REMARK 921   NORMALIZED FREE ENERGY PREDICTED BY IDOCK:   -2.26 KCAL/MOL
REMARK 922        TOTAL FREE ENERGY PREDICTED BY IDOCK:   -2.95 KCAL/MOL
REMARK 923 INTER-LIGAND FREE ENERGY PREDICTED BY IDOCK:   -3.00 KCAL/MOL
REMARK 924 INTRA-LIGAND FREE ENERGY PREDICTED BY IDOCK:    0.05 KCAL/MOL
REMARK 927      BINDING AFFINITY PREDICTED BY RF-SCORE:    0.00 PKD
ROOT
HETATM    1  C   UNL     1     -11.640  13.067  63.773  1.00  0.00    -0.517 C  
HETATM    2  C   UNL     1     -10.816  12.508  64.450  1.00  0.00    -0.375 C  
ENDROOT
BRANCH   2   3
HETATM    3  C   UNL     1      -9.801  11.751  65.186  1.00  0.00    -0.235 C  
BRANCH   3   4
HETATM    4  N   UNL     1      -9.851  12.061  66.611  1.00  0.00    -0.201 NA 
HETATM    5  H   UNL     1     -10.812  12.048  66.954  1.00  0.00     0.000 HD 
BRANCH   4   6
HETATM    6  C   UNL     1      -8.994  11.180  67.414  1.00  0.00    -0.139 C  
HETATM    7  C   UNL     1      -7.536  11.253  66.891  1.00  0.00    -0.145 C  
HETATM    8  C   UNL     1      -7.185   9.936  66.180  1.00  0.00    -0.104 C  
HETATM    9  C   UNL     1      -8.335   9.047  66.516  1.00  0.00    -0.115 A  
HETATM   10  C   UNL     1      -8.496   7.720  66.150  1.00  0.00    -0.143 A  
HETATM   11  C   UNL     1      -9.655   7.049  66.548  1.00  0.00    -0.201 A  
HETATM   12  C   UNL     1     -10.607   7.696  67.341  1.00  0.00    -0.356 A  
HETATM   13  C   UNL     1     -10.423   9.025  67.722  1.00  0.00    -0.305 A  
HETATM   14  C   UNL     1      -9.309   9.715  67.259  1.00  0.00    -0.163 A  
ENDBRANCH   4   6
ENDBRANCH   3   4
ENDBRANCH   2   3
TORSDOF 3
ENDMDL
MODEL      219
REMARK 921   NORMALIZED FREE ENERGY PREDICTED BY IDOCK:   -2.25 KCAL/MOL
REMARK 922        TOTAL FREE ENERGY PREDICTED BY IDOCK:   -2.94 KCAL/MOL
REMARK 923 INTER-LIGAND FREE ENERGY PREDICTED BY IDOCK:   -3.07 KCAL/MOL
REMARK 924 INTRA-LIGAND FREE ENERGY PREDICTED BY IDOCK:    0.13 KCAL/MOL
REMARK 927      BINDING AFFINITY PREDICTED BY RF-SCORE:    0.00 PKD
ROOT
HETATM    1  C   UNL     1     -11.397  12.893  64.300  1.00  0.00    -0.417 C  
HETATM    2  C   UNL     1     -10.497  12.234  64.751  1.00  0.00    -0.328 C  
ENDROOT
BRANCH   2   3
HETATM    3  C   UNL     1      -9.331  11.478  65.218  1.00  0.00    -0.137 C  
BRANCH   3   4
HETATM    4  N   UNL     1      -9.743  10.319  66.004  1.00  0.00    -0.204 NA 
HETATM    5  H   UNL     1      -9.121   9.528  65.840  1.00  0.00     0.000 HD 
BRANCH   4   6
HETATM    6  C   UNL     1      -9.851  10.616  67.438  1.00  0.00    -0.170 C  
HETATM    7  C   UNL     1     -11.334  10.890  67.803  1.00  0.00    -0.366 C  
HETATM    8  C   UNL     1     -11.515  12.387  68.099  1.00  0.00    -0.370 C  
HETATM    9  C   UNL     1     -10.115  12.900  68.146  1.00  0.00    -0.240 A  
HETATM   10  C   UNL     1      -9.713  14.198  68.423  1.00  0.00    -0.226 A  
HETATM   11  C   UNL     1      -8.348  14.495  68.407  1.00  0.00    -0.153 A  
HETATM   12  C   UNL     1      -7.409  13.489  68.164  1.00  0.00    -0.121 A  
HETATM   13  C   UNL     1      -7.825  12.182  67.909  1.00  0.00    -0.147 A  
HETATM   14  C   UNL     1      -9.185  11.904  67.846  1.00  0.00    -0.187 A  
ENDBRANCH   4   6
ENDBRANCH   3   4
ENDBRANCH   2   3
TORSDOF 3
ENDMDL
MODEL      220
REMARK 921   NORMALIZED FREE ENERGY PREDICTED BY IDOCK:   -2.25 KCAL/MOL
REMARK 922        TOTAL FREE ENERGY PREDICTED BY IDOCK:   -2.94 KCAL/MOL
REMARK 923 INTER-LIGAND FREE ENERGY PREDICTED BY IDOCK:   -2.68 KCAL/MOL
REMARK 924 INTRA-LIGAND FREE ENERGY PREDICTED BY IDOCK:   -0.25 KCAL/MOL
REMARK 927      BINDING AFFINITY PREDICTED BY RF-SCORE:    0.00 PKD
ROOT
HETATM    1  C   UNL     1      -5.235  15.135  71.265  1.00  0.00    -0.110 C  
HETATM    2  C   UNL     1      -5.357  15.081  70.070  1.00  0.00    -0.111 C  
ENDROOT
BRANCH   2   3
HETATM    3  C   UNL     1      -5.542  15.127  68.617  1.00  0.00    -0.091 C  
BRANCH   3   4
HETATM    4  N   UNL     1      -6.162  16.384  68.210  1.00  0.00    -0.117 NA 
HETATM    5  H   UNL     1      -5.457  17.061  67.919  1.00  0.00     0.000 HD 
BRANCH   4   6
HETATM    6  C   UNL     1      -7.182  16.204  67.170  1.00  0.00    -0.220 C  
HETATM    7  C   UNL     1      -7.122  17.389  66.170  1.00  0.00    -0.320 C  
HETATM    8  C   UNL     1      -8.355  18.283  66.370  1.00  0.00    -0.267 C  
HETATM    9  C   UNL     1      -9.216  17.483  67.288  1.00  0.00    -0.240 A  
HETATM   10  C   UNL     1     -10.476  17.822  67.755  1.00  0.00    -0.402 A  
HETATM   11  C   UNL     1     -11.129  16.946  68.625  1.00  0.00    -0.194 A  
HETATM   12  C   UNL     1     -10.537  15.729  68.976  1.00  0.00    -0.232 A  
HETATM   13  C   UNL     1      -9.278  15.388  68.481  1.00  0.00    -0.198 A  
HETATM   14  C   UNL     1      -8.596  16.296  67.680  1.00  0.00    -0.181 A  
ENDBRANCH   4   6
ENDBRANCH   3   4
ENDBRANCH   2   3
TORSDOF 3
ENDMDL
MODEL      221
REMARK 921   NORMALIZED FREE ENERGY PREDICTED BY IDOCK:   -2.23 KCAL/MOL
REMARK 922        TOTAL FREE ENERGY PREDICTED BY IDOCK:   -2.91 KCAL/MOL
REMARK 923 INTER-LIGAND FREE ENERGY PREDICTED BY IDOCK:   -2.71 KCAL/MOL
REMARK 924 INTRA-LIGAND FREE ENERGY PREDICTED BY IDOCK:   -0.20 KCAL/MOL
REMARK 927      BINDING AFFINITY PREDICTED BY RF-SCORE:    0.00 PKD
ROOT
HETATM    1  C   UNL     1     -11.676   9.666  71.414  1.00  0.00    -0.478 C  
HETATM    2  C   UNL     1     -10.841   8.977  70.889  1.00  0.00    -0.323 C  
ENDROOT
BRANCH   2   3
HETATM    3  C   UNL     1      -9.751   8.231  70.253  1.00  0.00    -0.175 C  
BRANCH   3   4
HETATM    4  N   UNL     1     -10.173   6.874  69.922  1.00  0.00    -0.195 NA 
HETATM    5  H   UNL     1     -10.707   6.859  69.053  1.00  0.00     0.000 HD 
BRANCH   4   6
HETATM    6  C   UNL     1      -9.052   5.928  69.868  1.00  0.00    -0.146 C  
HETATM    7  C   UNL     1      -9.164   5.059  68.588  1.00  0.00    -0.158 C  
HETATM    8  C   UNL     1      -9.560   3.627  68.981  1.00  0.00    -0.165 C  
HETATM    9  C   UNL     1      -9.427   3.629  70.466  1.00  0.00    -0.255 A  
HETATM   10  C   UNL     1      -9.632   2.557  71.322  1.00  0.00    -0.224 A  
HETATM   11  C   UNL     1      -9.472   2.755  72.696  1.00  0.00    -0.159 A  
HETATM   12  C   UNL     1      -9.067   3.999  73.188  1.00  0.00    -0.117 A  
HETATM   13  C   UNL     1      -8.842   5.063  72.315  1.00  0.00    -0.135 A  
HETATM   14  C   UNL     1      -9.079   4.888  70.956  1.00  0.00    -0.181 A  
ENDBRANCH   4   6
ENDBRANCH   3   4
ENDBRANCH   2   3
TORSDOF 3
ENDMDL
MODEL      222
REMARK 921   NORMALIZED FREE ENERGY PREDICTED BY IDOCK:   -2.20 KCAL/MOL
REMARK 922        TOTAL FREE ENERGY PREDICTED BY IDOCK:   -2.87 KCAL/MOL
REMARK 923 INTER-LIGAND FREE ENERGY PREDICTED BY IDOCK:   -2.60 KCAL/MOL
REMARK 924 INTRA-LIGAND FREE ENERGY PREDICTED BY IDOCK:   -0.27 KCAL/MOL
REMARK 927      BINDING AFFINITY PREDICTED BY RF-SCORE:    0.00 PKD
ROOT
HETATM    1  C   UNL     1      -9.503  11.973  66.995  1.00  0.00    -0.199 C  
HETATM    2  C   UNL     1     -10.077  11.448  67.912  1.00  0.00    -0.198 C  
ENDROOT
BRANCH   2   3
HETATM    3  C   UNL     1     -10.873  10.806  68.962  1.00  0.00    -0.235 C  
BRANCH   3   4
HETATM    4  N   UNL     1     -10.057   9.884  69.744  1.00  0.00    -0.229 NA 
HETATM    5  H   UNL     1      -9.799  10.294  70.641  1.00  0.00     0.000 HD 
BRANCH   4   6
HETATM    6  C   UNL     1     -10.697   8.575  69.928  1.00  0.00    -0.224 C  
HETATM    7  C   UNL     1     -10.197   7.930  71.247  1.00  0.00    -0.218 C  
HETATM    8  C   UNL     1      -9.270   6.751  70.915  1.00  0.00    -0.157 C  
HETATM    9  C   UNL     1      -9.445   6.579  69.444  1.00  0.00    -0.147 A  
HETATM   10  C   UNL     1      -8.855   5.614  68.642  1.00  0.00    -0.109 A  
HETATM   11  C   UNL     1      -9.130   5.619  67.273  1.00  0.00    -0.110 A  
HETATM   12  C   UNL     1     -10.020   6.552  66.735  1.00  0.00    -0.224 A  
HETATM   13  C   UNL     1     -10.626   7.504  67.556  1.00  0.00    -0.331 A  
HETATM   14  C   UNL     1     -10.290   7.548  68.904  1.00  0.00    -0.220 A  
ENDBRANCH   4   6
ENDBRANCH   3   4
ENDBRANCH   2   3
TORSDOF 3
ENDMDL
MODEL      223
REMARK 921   NORMALIZED FREE ENERGY PREDICTED BY IDOCK:   -2.19 KCAL/MOL
REMARK 922        TOTAL FREE ENERGY PREDICTED BY IDOCK:   -2.86 KCAL/MOL
REMARK 923 INTER-LIGAND FREE ENERGY PREDICTED BY IDOCK:   -2.61 KCAL/MOL
REMARK 924 INTRA-LIGAND FREE ENERGY PREDICTED BY IDOCK:   -0.25 KCAL/MOL
REMARK 927      BINDING AFFINITY PREDICTED BY RF-SCORE:    0.00 PKD
ROOT
HETATM    1  C   UNL     1      -9.628   2.386  71.015  1.00  0.00    -0.203 C  
HETATM    2  C   UNL     1      -9.375   3.155  70.125  1.00  0.00    -0.238 C  
ENDROOT
BRANCH   2   3
HETATM    3  C   UNL     1      -9.035   4.000  68.977  1.00  0.00    -0.115 C  
BRANCH   3   4
HETATM    4  N   UNL     1      -9.905   5.170  68.915  1.00  0.00    -0.159 NA 
HETATM    5  H   UNL     1     -10.674   5.089  69.579  1.00  0.00     0.000 HD 
BRANCH   4   6
HETATM    6  C   UNL     1      -9.176   6.430  69.105  1.00  0.00    -0.133 C  
HETATM    7  C   UNL     1      -7.851   6.156  69.865  1.00  0.00    -0.109 C  
HETATM    8  C   UNL     1      -7.962   6.711  71.294  1.00  0.00    -0.107 C  
HETATM    9  C   UNL     1      -9.227   7.501  71.259  1.00  0.00    -0.155 A  
HETATM   10  C   UNL     1      -9.772   8.245  72.294  1.00  0.00    -0.362 A  
HETATM   11  C   UNL     1     -10.980   8.912  72.077  1.00  0.00    -0.412 A  
HETATM   12  C   UNL     1     -11.598   8.864  70.824  1.00  0.00    -0.301 A  
HETATM   13  C   UNL     1     -11.028   8.130  69.784  1.00  0.00    -0.133 A  
HETATM   14  C   UNL     1      -9.868   7.402  70.024  1.00  0.00    -0.179 A  
ENDBRANCH   4   6
ENDBRANCH   3   4
ENDBRANCH   2   3
TORSDOF 3
ENDMDL
MODEL      224
REMARK 921   NORMALIZED FREE ENERGY PREDICTED BY IDOCK:   -2.18 KCAL/MOL
REMARK 922        TOTAL FREE ENERGY PREDICTED BY IDOCK:   -2.86 KCAL/MOL
REMARK 923 INTER-LIGAND FREE ENERGY PREDICTED BY IDOCK:   -2.99 KCAL/MOL
REMARK 924 INTRA-LIGAND FREE ENERGY PREDICTED BY IDOCK:    0.13 KCAL/MOL
REMARK 927      BINDING AFFINITY PREDICTED BY RF-SCORE:    0.00 PKD
ROOT
HETATM    1  C   UNL     1     -10.089   2.952  73.942  1.00  0.00    -0.177 C  
HETATM    2  C   UNL     1     -10.244   4.045  73.463  1.00  0.00    -0.210 C  
ENDROOT
BRANCH   2   3
HETATM    3  C   UNL     1     -10.387   5.334  72.780  1.00  0.00    -0.196 C  
BRANCH   3   4
HETATM    4  N   UNL     1     -11.288   6.216  73.515  1.00  0.00    -0.363 NA 
HETATM    5  H   UNL     1     -11.249   6.025  74.516  1.00  0.00     0.000 HD 
BRANCH   4   6
HETATM    6  C   UNL     1     -11.041   7.637  73.239  1.00  0.00    -0.197 C  
HETATM    7  C   UNL     1     -11.964   8.112  72.087  1.00  0.00    -0.413 C  
HETATM    8  C   UNL     1     -11.120   8.346  70.824  1.00  0.00    -0.286 C  
HETATM    9  C   UNL     1      -9.718   8.246  71.324  1.00  0.00    -0.225 A  
HETATM   10  C   UNL     1      -8.557   8.421  70.586  1.00  0.00    -0.150 A  
HETATM   11  C   UNL     1      -7.326   8.273  71.229  1.00  0.00    -0.078 A  
HETATM   12  C   UNL     1      -7.272   8.002  72.599  1.00  0.00    -0.116 A  
HETATM   13  C   UNL     1      -8.447   7.852  73.335  1.00  0.00    -0.273 A  
HETATM   14  C   UNL     1      -9.671   7.919  72.679  1.00  0.00    -0.304 A  
ENDBRANCH   4   6
ENDBRANCH   3   4
ENDBRANCH   2   3
TORSDOF 3
ENDMDL
MODEL      225
REMARK 921   NORMALIZED FREE ENERGY PREDICTED BY IDOCK:   -2.16 KCAL/MOL
REMARK 922        TOTAL FREE ENERGY PREDICTED BY IDOCK:   -2.83 KCAL/MOL
REMARK 923 INTER-LIGAND FREE ENERGY PREDICTED BY IDOCK:   -2.51 KCAL/MOL
REMARK 924 INTRA-LIGAND FREE ENERGY PREDICTED BY IDOCK:   -0.32 KCAL/MOL
REMARK 927      BINDING AFFINITY PREDICTED BY RF-SCORE:    0.00 PKD
ROOT
HETATM    1  C   UNL     1     -11.494   6.370  69.144  1.00  0.00    -0.265 C  
HETATM    2  C   UNL     1     -11.870   6.477  70.282  1.00  0.00    -0.361 C  
ENDROOT
BRANCH   2   3
HETATM    3  C   UNL     1     -12.438   6.618  71.625  1.00  0.00    -0.303 C  
BRANCH   3   4
HETATM    4  N   UNL     1     -11.384   6.791  72.620  1.00  0.00    -0.373 NA 
HETATM    5  H   UNL     1     -11.746   6.652  73.563  1.00  0.00     0.000 HD 
BRANCH   4   6
HETATM    6  C   UNL     1     -10.221   5.931  72.370  1.00  0.00    -0.188 C  
HETATM    7  C   UNL     1     -10.291   4.680  73.285  1.00  0.00    -0.236 C  
HETATM    8  C   UNL     1      -9.213   4.788  74.374  1.00  0.00    -0.116 C  
HETATM    9  C   UNL     1      -8.391   5.951  73.931  1.00  0.00    -0.114 A  
HETATM   10  C   UNL     1      -7.254   6.450  74.549  1.00  0.00    -0.100 A  
HETATM   11  C   UNL     1      -6.622   7.564  73.991  1.00  0.00    -0.086 A  
HETATM   12  C   UNL     1      -7.103   8.129  72.807  1.00  0.00    -0.120 A  
HETATM   13  C   UNL     1      -8.233   7.603  72.182  1.00  0.00    -0.127 A  
HETATM   14  C   UNL     1      -8.909   6.546  72.781  1.00  0.00    -0.127 A  
ENDBRANCH   4   6
ENDBRANCH   3   4
ENDBRANCH   2   3
TORSDOF 3
ENDMDL
MODEL      226
REMARK 921   NORMALIZED FREE ENERGY PREDICTED BY IDOCK:   -2.14 KCAL/MOL
REMARK 922        TOTAL FREE ENERGY PREDICTED BY IDOCK:   -2.80 KCAL/MOL
REMARK 923 INTER-LIGAND FREE ENERGY PREDICTED BY IDOCK:   -2.59 KCAL/MOL
REMARK 924 INTRA-LIGAND FREE ENERGY PREDICTED BY IDOCK:   -0.21 KCAL/MOL
REMARK 927      BINDING AFFINITY PREDICTED BY RF-SCORE:    0.00 PKD
ROOT
HETATM    1  C   UNL     1     -10.695   3.572  62.707  1.00  0.00    -0.182 C  
HETATM    2  C   UNL     1     -10.416   3.800  63.855  1.00  0.00    -0.265 C  
ENDROOT
BRANCH   2   3
HETATM    3  C   UNL     1     -10.182   4.036  65.282  1.00  0.00    -0.139 C  
BRANCH   3   4
HETATM    4  N   UNL     1     -10.119   5.466  65.569  1.00  0.00    -0.376 NA 
HETATM    5  H   UNL     1     -11.031   5.821  65.856  1.00  0.00     0.000 HD 
BRANCH   4   6
HETATM    6  C   UNL     1      -9.088   5.801  66.559  1.00  0.00    -0.141 C  
HETATM    7  C   UNL     1      -8.661   4.519  67.322  1.00  0.00    -0.105 C  
HETATM    8  C   UNL     1      -9.199   4.582  68.759  1.00  0.00    -0.184 C  
HETATM    9  C   UNL     1      -9.702   5.981  68.878  1.00  0.00    -0.159 A  
HETATM   10  C   UNL     1     -10.258   6.574  70.001  1.00  0.00    -0.219 A  
HETATM   11  C   UNL     1     -10.688   7.900  69.917  1.00  0.00    -0.244 A  
HETATM   12  C   UNL     1     -10.515   8.625  68.734  1.00  0.00    -0.209 A  
HETATM   13  C   UNL     1      -9.934   8.024  67.618  1.00  0.00    -0.234 A  
HETATM   14  C   UNL     1      -9.580   6.681  67.677  1.00  0.00    -0.135 A  
ENDBRANCH   4   6
ENDBRANCH   3   4
ENDBRANCH   2   3
TORSDOF 3
ENDMDL
MODEL      227
REMARK 921   NORMALIZED FREE ENERGY PREDICTED BY IDOCK:   -2.13 KCAL/MOL
REMARK 922        TOTAL FREE ENERGY PREDICTED BY IDOCK:   -2.79 KCAL/MOL
REMARK 923 INTER-LIGAND FREE ENERGY PREDICTED BY IDOCK:   -2.37 KCAL/MOL
REMARK 924 INTRA-LIGAND FREE ENERGY PREDICTED BY IDOCK:   -0.43 KCAL/MOL
REMARK 927      BINDING AFFINITY PREDICTED BY RF-SCORE:    0.00 PKD
ROOT
HETATM    1  C   UNL     1      -8.728  11.649  67.459  1.00  0.00    -0.156 C  
HETATM    2  C   UNL     1      -7.976  12.163  68.244  1.00  0.00    -0.163 C  
ENDROOT
BRANCH   2   3
HETATM    3  C   UNL     1      -7.101  12.893  69.165  1.00  0.00     0.033 C  
BRANCH   3   4
HETATM    4  N   UNL     1      -7.394  14.322  69.139  1.00  0.00    -0.209 NA 
HETATM    5  H   UNL     1      -6.823  14.824  69.818  1.00  0.00     0.000 HD 
BRANCH   4   6
HETATM    6  C   UNL     1      -7.253  14.906  67.799  1.00  0.00    -0.172 C  
HETATM    7  C   UNL     1      -6.113  15.958  67.806  1.00  0.00    -0.167 C  
HETATM    8  C   UNL     1      -6.720  17.365  67.691  1.00  0.00    -0.168 C  
HETATM    9  C   UNL     1      -8.153  17.096  67.373  1.00  0.00    -0.193 A  
HETATM   10  C   UNL     1      -9.142  18.036  67.128  1.00  0.00    -0.256 A  
HETATM   11  C   UNL     1     -10.439  17.592  66.860  1.00  0.00    -0.290 A  
HETATM   12  C   UNL     1     -10.717  16.224  66.794  1.00  0.00    -0.204 A  
HETATM   13  C   UNL     1      -9.708  15.287  67.020  1.00  0.00    -0.232 A  
HETATM   14  C   UNL     1      -8.437  15.730  67.366  1.00  0.00    -0.191 A  
ENDBRANCH   4   6
ENDBRANCH   3   4
ENDBRANCH   2   3
TORSDOF 3
ENDMDL
MODEL      228
REMARK 921   NORMALIZED FREE ENERGY PREDICTED BY IDOCK:   -2.13 KCAL/MOL
REMARK 922        TOTAL FREE ENERGY PREDICTED BY IDOCK:   -2.79 KCAL/MOL
REMARK 923 INTER-LIGAND FREE ENERGY PREDICTED BY IDOCK:   -3.16 KCAL/MOL
REMARK 924 INTRA-LIGAND FREE ENERGY PREDICTED BY IDOCK:    0.36 KCAL/MOL
REMARK 927      BINDING AFFINITY PREDICTED BY RF-SCORE:    0.00 PKD
ROOT
HETATM    1  C   UNL     1     -12.803  10.049  71.827  1.00  0.00    -0.546 C  
HETATM    2  C   UNL     1     -11.997   9.898  70.948  1.00  0.00    -0.434 C  
ENDROOT
BRANCH   2   3
HETATM    3  C   UNL     1     -11.095   9.755  69.801  1.00  0.00    -0.237 C  
BRANCH   3   4
HETATM    4  N   UNL     1     -10.270  10.948  69.636  1.00  0.00    -0.445 NA 
HETATM    5  H   UNL     1     -10.031  11.355  70.540  1.00  0.00     0.000 HD 
BRANCH   4   6
HETATM    6  C   UNL     1      -9.065  10.697  68.836  1.00  0.00    -0.176 C  
HETATM    7  C   UNL     1      -9.003  11.703  67.656  1.00  0.00    -0.166 C  
HETATM    8  C   UNL     1      -9.292  10.962  66.342  1.00  0.00    -0.199 C  
HETATM    9  C   UNL     1      -9.268   9.526  66.744  1.00  0.00    -0.184 A  
HETATM   10  C   UNL     1      -9.434   8.426  65.916  1.00  0.00    -0.169 A  
HETATM   11  C   UNL     1      -9.393   7.149  66.480  1.00  0.00    -0.208 A  
HETATM   12  C   UNL     1      -9.142   6.988  67.846  1.00  0.00    -0.127 A  
HETATM   13  C   UNL     1      -8.953   8.101  68.665  1.00  0.00    -0.137 A  
HETATM   14  C   UNL     1      -9.074   9.374  68.118  1.00  0.00    -0.129 A  
ENDBRANCH   4   6
ENDBRANCH   3   4
ENDBRANCH   2   3
TORSDOF 3
ENDMDL
MODEL      229
REMARK 921   NORMALIZED FREE ENERGY PREDICTED BY IDOCK:   -2.12 KCAL/MOL
REMARK 922        TOTAL FREE ENERGY PREDICTED BY IDOCK:   -2.78 KCAL/MOL
REMARK 923 INTER-LIGAND FREE ENERGY PREDICTED BY IDOCK:   -2.56 KCAL/MOL
REMARK 924 INTRA-LIGAND FREE ENERGY PREDICTED BY IDOCK:   -0.22 KCAL/MOL
REMARK 927      BINDING AFFINITY PREDICTED BY RF-SCORE:    0.00 PKD
ROOT
HETATM    1  C   UNL     1      -6.327   3.657  64.737  1.00  0.00    -0.027 C  
HETATM    2  C   UNL     1      -7.232   3.419  65.494  1.00  0.00    -0.070 C  
ENDROOT
BRANCH   2   3
HETATM    3  C   UNL     1      -8.366   3.046  66.343  1.00  0.00    -0.098 C  
BRANCH   3   4
HETATM    4  N   UNL     1      -8.530   3.993  67.440  1.00  0.00    -0.098 NA 
HETATM    5  H   UNL     1      -7.936   4.811  67.309  1.00  0.00     0.000 HD 
BRANCH   4   6
HETATM    6  C   UNL     1      -9.930   4.387  67.647  1.00  0.00    -0.053 C  
HETATM    7  C   UNL     1     -10.414   5.240  66.445  1.00  0.00    -0.347 C  
HETATM    8  C   UNL     1     -10.572   6.701  66.892  1.00  0.00    -0.376 C  
HETATM    9  C   UNL     1     -10.423   6.626  68.374  1.00  0.00    -0.248 A  
HETATM   10  C   UNL     1     -10.522   7.675  69.275  1.00  0.00    -0.220 A  
HETATM   11  C   UNL     1     -10.337   7.412  70.635  1.00  0.00    -0.217 A  
HETATM   12  C   UNL     1     -10.104   6.106  71.076  1.00  0.00    -0.231 A  
HETATM   13  C   UNL     1     -10.029   5.056  70.161  1.00  0.00    -0.328 A  
HETATM   14  C   UNL     1     -10.133   5.330  68.803  1.00  0.00    -0.248 A  
ENDBRANCH   4   6
ENDBRANCH   3   4
ENDBRANCH   2   3
TORSDOF 3
ENDMDL
MODEL      230
REMARK 921   NORMALIZED FREE ENERGY PREDICTED BY IDOCK:   -2.12 KCAL/MOL
REMARK 922        TOTAL FREE ENERGY PREDICTED BY IDOCK:   -2.78 KCAL/MOL
REMARK 923 INTER-LIGAND FREE ENERGY PREDICTED BY IDOCK:   -2.67 KCAL/MOL
REMARK 924 INTRA-LIGAND FREE ENERGY PREDICTED BY IDOCK:   -0.11 KCAL/MOL
REMARK 927      BINDING AFFINITY PREDICTED BY RF-SCORE:    0.00 PKD
ROOT
HETATM    1  C   UNL     1      -7.954   9.607  65.073  1.00  0.00    -0.122 C  
HETATM    2  C   UNL     1      -8.524   8.864  65.829  1.00  0.00    -0.157 C  
ENDROOT
BRANCH   2   3
HETATM    3  C   UNL     1      -9.113   7.935  66.797  1.00  0.00    -0.156 C  
BRANCH   3   4
HETATM    4  N   UNL     1      -8.901   6.551  66.386  1.00  0.00    -0.138 NA 
HETATM    5  H   UNL     1      -7.971   6.229  66.653  1.00  0.00     0.000 HD 
BRANCH   4   6
HETATM    6  C   UNL     1      -9.939   5.644  66.893  1.00  0.00    -0.174 C  
HETATM    7  C   UNL     1     -11.096   6.470  67.514  1.00  0.00    -0.396 C  
HETATM    8  C   UNL     1     -11.069   6.312  69.042  1.00  0.00    -0.446 C  
HETATM    9  C   UNL     1     -10.075   5.222  69.258  1.00  0.00    -0.300 A  
HETATM   10  C   UNL     1      -9.704   4.661  70.470  1.00  0.00    -0.284 A  
HETATM   11  C   UNL     1      -8.739   3.652  70.476  1.00  0.00    -0.124 A  
HETATM   12  C   UNL     1      -8.196   3.187  69.274  1.00  0.00    -0.077 A  
HETATM   13  C   UNL     1      -8.595   3.742  68.059  1.00  0.00    -0.114 A  
HETATM   14  C   UNL     1      -9.495   4.802  68.060  1.00  0.00    -0.182 A  
ENDBRANCH   4   6
ENDBRANCH   3   4
ENDBRANCH   2   3
TORSDOF 3
ENDMDL
MODEL      231
REMARK 921   NORMALIZED FREE ENERGY PREDICTED BY IDOCK:   -2.11 KCAL/MOL
REMARK 922        TOTAL FREE ENERGY PREDICTED BY IDOCK:   -2.77 KCAL/MOL
REMARK 923 INTER-LIGAND FREE ENERGY PREDICTED BY IDOCK:   -2.61 KCAL/MOL
REMARK 924 INTRA-LIGAND FREE ENERGY PREDICTED BY IDOCK:   -0.16 KCAL/MOL
REMARK 927      BINDING AFFINITY PREDICTED BY RF-SCORE:    0.00 PKD
ROOT
HETATM    1  C   UNL     1      -9.298   1.825  71.040  1.00  0.00    -0.183 C  
HETATM    2  C   UNL     1      -9.733   2.837  71.525  1.00  0.00    -0.225 C  
ENDROOT
BRANCH   2   3
HETATM    3  C   UNL     1     -10.237   4.024  72.221  1.00  0.00    -0.157 C  
BRANCH   3   4
HETATM    4  N   UNL     1     -10.481   5.114  71.282  1.00  0.00    -0.205 NA 
HETATM    5  H   UNL     1     -11.409   5.038  70.868  1.00  0.00     0.000 HD 
BRANCH   4   6
HETATM    6  C   UNL     1     -10.279   6.437  71.885  1.00  0.00    -0.195 C  
HETATM    7  C   UNL     1     -11.655   7.079  72.205  1.00  0.00    -0.320 C  
HETATM    8  C   UNL     1     -11.915   8.236  71.227  1.00  0.00    -0.317 C  
HETATM    9  C   UNL     1     -10.604   8.402  70.535  1.00  0.00    -0.236 A  
HETATM   10  C   UNL     1     -10.285   9.348  69.573  1.00  0.00    -0.219 A  
HETATM   11  C   UNL     1      -9.000   9.341  69.024  1.00  0.00    -0.140 A  
HETATM   12  C   UNL     1      -8.046   8.424  69.474  1.00  0.00    -0.113 A  
HETATM   13  C   UNL     1      -8.372   7.492  70.459  1.00  0.00    -0.131 A  
HETATM   14  C   UNL     1      -9.673   7.448  70.947  1.00  0.00    -0.169 A  
ENDBRANCH   4   6
ENDBRANCH   3   4
ENDBRANCH   2   3
TORSDOF 3
ENDMDL
MODEL      232
REMARK 921   NORMALIZED FREE ENERGY PREDICTED BY IDOCK:   -2.09 KCAL/MOL
REMARK 922        TOTAL FREE ENERGY PREDICTED BY IDOCK:   -2.75 KCAL/MOL
REMARK 923 INTER-LIGAND FREE ENERGY PREDICTED BY IDOCK:   -2.59 KCAL/MOL
REMARK 924 INTRA-LIGAND FREE ENERGY PREDICTED BY IDOCK:   -0.17 KCAL/MOL
REMARK 927      BINDING AFFINITY PREDICTED BY RF-SCORE:    0.00 PKD
ROOT
HETATM    1  C   UNL     1      -9.149   8.379  72.637  1.00  0.00    -0.311 C  
HETATM    2  C   UNL     1      -9.584   8.449  71.518  1.00  0.00    -0.273 C  
ENDROOT
BRANCH   2   3
HETATM    3  C   UNL     1     -10.004   8.537  70.116  1.00  0.00    -0.181 C  
BRANCH   3   4
HETATM    4  N   UNL     1      -9.612   7.340  69.380  1.00  0.00    -0.154 NA 
HETATM    5  H   UNL     1      -9.647   6.515  69.978  1.00  0.00     0.000 HD 
BRANCH   4   6
HETATM    6  C   UNL     1     -10.404   7.139  68.160  1.00  0.00    -0.196 C  
HETATM    7  C   UNL     1     -10.784   5.641  68.025  1.00  0.00    -0.235 C  
HETATM    8  C   UNL     1      -9.979   5.015  66.876  1.00  0.00    -0.238 C  
HETATM    9  C   UNL     1      -9.346   6.194  66.217  1.00  0.00    -0.157 A  
HETATM   10  C   UNL     1      -8.539   6.185  65.089  1.00  0.00    -0.051 A  
HETATM   11  C   UNL     1      -8.023   7.396  64.622  1.00  0.00    -0.127 A  
HETATM   12  C   UNL     1      -8.357   8.596  65.256  1.00  0.00    -0.177 A  
HETATM   13  C   UNL     1      -9.188   8.596  66.376  1.00  0.00    -0.245 A  
HETATM   14  C   UNL     1      -9.636   7.383  66.887  1.00  0.00    -0.240 A  
ENDBRANCH   4   6
ENDBRANCH   3   4
ENDBRANCH   2   3
TORSDOF 3
ENDMDL
MODEL      233
REMARK 921   NORMALIZED FREE ENERGY PREDICTED BY IDOCK:   -2.09 KCAL/MOL
REMARK 922        TOTAL FREE ENERGY PREDICTED BY IDOCK:   -2.75 KCAL/MOL
REMARK 923 INTER-LIGAND FREE ENERGY PREDICTED BY IDOCK:   -2.58 KCAL/MOL
REMARK 924 INTRA-LIGAND FREE ENERGY PREDICTED BY IDOCK:   -0.16 KCAL/MOL
REMARK 927      BINDING AFFINITY PREDICTED BY RF-SCORE:    0.00 PKD
ROOT
HETATM    1  C   UNL     1     -10.514   5.112  67.006  1.00  0.00    -0.256 C  
HETATM    2  C   UNL     1     -10.601   6.064  67.736  1.00  0.00    -0.337 C  
ENDROOT
BRANCH   2   3
HETATM    3  C   UNL     1     -10.717   7.149  68.715  1.00  0.00    -0.169 C  
BRANCH   3   4
HETATM    4  N   UNL     1     -10.628   8.451  68.063  1.00  0.00    -0.403 NA 
HETATM    5  H   UNL     1     -11.333   8.542  67.331  1.00  0.00     0.000 HD 
BRANCH   4   6
HETATM    6  C   UNL     1     -10.708   9.568  69.012  1.00  0.00    -0.202 C  
HETATM    7  C   UNL     1     -11.378  10.788  68.328  1.00  0.00    -0.376 C  
HETATM    8  C   UNL     1     -10.320  11.873  68.076  1.00  0.00    -0.209 C  
HETATM    9  C   UNL     1      -9.132  11.377  68.829  1.00  0.00    -0.096 A  
HETATM   10  C   UNL     1      -7.907  12.011  68.962  1.00  0.00     0.136 A  
HETATM   11  C   UNL     1      -6.902  11.382  69.700  1.00  0.00    -0.068 A  
HETATM   12  C   UNL     1      -7.149  10.158  70.329  1.00  0.00    -0.146 A  
HETATM   13  C   UNL     1      -8.394   9.541  70.207  1.00  0.00    -0.221 A  
HETATM   14  C   UNL     1      -9.366  10.129  69.407  1.00  0.00    -0.235 A  
ENDBRANCH   4   6
ENDBRANCH   3   4
ENDBRANCH   2   3
TORSDOF 3
ENDMDL
MODEL      234
REMARK 921   NORMALIZED FREE ENERGY PREDICTED BY IDOCK:   -2.05 KCAL/MOL
REMARK 922        TOTAL FREE ENERGY PREDICTED BY IDOCK:   -2.70 KCAL/MOL
REMARK 923 INTER-LIGAND FREE ENERGY PREDICTED BY IDOCK:   -2.37 KCAL/MOL
REMARK 924 INTRA-LIGAND FREE ENERGY PREDICTED BY IDOCK:   -0.33 KCAL/MOL
REMARK 927      BINDING AFFINITY PREDICTED BY RF-SCORE:    0.00 PKD
ROOT
HETATM    1  C   UNL     1     -10.640   3.484  63.168  1.00  0.00    -0.236 C  
HETATM    2  C   UNL     1     -10.055   3.406  64.217  1.00  0.00    -0.176 C  
ENDROOT
BRANCH   2   3
HETATM    3  C   UNL     1      -9.403   3.212  65.515  1.00  0.00    -0.117 C  
BRANCH   3   4
HETATM    4  N   UNL     1      -8.513   4.327  65.822  1.00  0.00    -0.113 NA 
HETATM    5  H   UNL     1      -7.647   4.261  65.289  1.00  0.00     0.000 HD 
BRANCH   4   6
HETATM    6  C   UNL     1      -9.154   5.634  65.628  1.00  0.00    -0.098 C  
HETATM    7  C   UNL     1      -8.093   6.672  65.176  1.00  0.00    -0.133 C  
HETATM    8  C   UNL     1      -7.823   7.655  66.326  1.00  0.00    -0.091 C  
HETATM    9  C   UNL     1      -8.891   7.330  67.314  1.00  0.00    -0.124 A  
HETATM   10  C   UNL     1      -9.123   7.961  68.527  1.00  0.00    -0.132 A  
HETATM   11  C   UNL     1     -10.170   7.505  69.332  1.00  0.00    -0.204 A  
HETATM   12  C   UNL     1     -10.993   6.463  68.896  1.00  0.00    -0.412 A  
HETATM   13  C   UNL     1     -10.764   5.852  67.663  1.00  0.00    -0.352 A  
HETATM   14  C   UNL     1      -9.674   6.252  66.899  1.00  0.00    -0.184 A  
ENDBRANCH   4   6
ENDBRANCH   3   4
ENDBRANCH   2   3
TORSDOF 3
ENDMDL
MODEL      235
REMARK 921   NORMALIZED FREE ENERGY PREDICTED BY IDOCK:   -2.04 KCAL/MOL
REMARK 922        TOTAL FREE ENERGY PREDICTED BY IDOCK:   -2.69 KCAL/MOL
REMARK 923 INTER-LIGAND FREE ENERGY PREDICTED BY IDOCK:   -2.66 KCAL/MOL
REMARK 924 INTRA-LIGAND FREE ENERGY PREDICTED BY IDOCK:   -0.03 KCAL/MOL
REMARK 927      BINDING AFFINITY PREDICTED BY RF-SCORE:    0.00 PKD
ROOT
HETATM    1  C   UNL     1      -7.146   8.508  74.271  1.00  0.00    -0.175 C  
HETATM    2  C   UNL     1      -7.548   7.478  73.796  1.00  0.00    -0.138 C  
ENDROOT
BRANCH   2   3
HETATM    3  C   UNL     1      -7.973   6.248  73.123  1.00  0.00    -0.106 C  
BRANCH   3   4
HETATM    4  N   UNL     1      -8.066   6.449  71.681  1.00  0.00    -0.108 NA 
HETATM    5  H   UNL     1      -7.298   5.984  71.197  1.00  0.00     0.000 HD 
BRANCH   4   6
HETATM    6  C   UNL     1      -9.362   6.033  71.132  1.00  0.00    -0.160 C  
HETATM    7  C   UNL     1     -10.436   7.103  71.463  1.00  0.00    -0.221 C  
HETATM    8  C   UNL     1     -11.394   6.548  72.527  1.00  0.00    -0.299 C  
HETATM    9  C   UNL     1     -11.019   5.107  72.610  1.00  0.00    -0.303 A  
HETATM   10  C   UNL     1     -11.612   4.136  73.403  1.00  0.00    -0.162 A  
HETATM   11  C   UNL     1     -11.111   2.833  73.356  1.00  0.00    -0.286 A  
HETATM   12  C   UNL     1     -10.063   2.510  72.490  1.00  0.00    -0.232 A  
HETATM   13  C   UNL     1      -9.489   3.491  71.680  1.00  0.00    -0.217 A  
HETATM   14  C   UNL     1      -9.935   4.803  71.786  1.00  0.00    -0.255 A  
ENDBRANCH   4   6
ENDBRANCH   3   4
ENDBRANCH   2   3
TORSDOF 3
ENDMDL
MODEL      236
REMARK 921   NORMALIZED FREE ENERGY PREDICTED BY IDOCK:   -2.02 KCAL/MOL
REMARK 922        TOTAL FREE ENERGY PREDICTED BY IDOCK:   -2.67 KCAL/MOL
REMARK 923 INTER-LIGAND FREE ENERGY PREDICTED BY IDOCK:   -2.63 KCAL/MOL
REMARK 924 INTRA-LIGAND FREE ENERGY PREDICTED BY IDOCK:   -0.04 KCAL/MOL
REMARK 927      BINDING AFFINITY PREDICTED BY RF-SCORE:    0.00 PKD
ROOT
HETATM    1  C   UNL     1      -7.598  11.582  68.267  1.00  0.00    -0.115 C  
HETATM    2  C   UNL     1      -8.448  10.843  68.690  1.00  0.00    -0.152 C  
ENDROOT
BRANCH   2   3
HETATM    3  C   UNL     1      -9.406   9.856  69.196  1.00  0.00    -0.193 C  
BRANCH   3   4
HETATM    4  N   UNL     1      -9.648  10.048  70.622  1.00  0.00    -0.260 NA 
HETATM    5  H   UNL     1     -10.591  10.398  70.789  1.00  0.00     0.000 HD 
BRANCH   4   6
HETATM    6  C   UNL     1      -9.387   8.837  71.411  1.00  0.00    -0.258 C  
HETATM    7  C   UNL     1      -7.858   8.602  71.515  1.00  0.00    -0.163 C  
HETATM    8  C   UNL     1      -7.471   7.390  70.653  1.00  0.00    -0.078 C  
HETATM    9  C   UNL     1      -8.788   6.804  70.273  1.00  0.00    -0.152 A  
HETATM   10  C   UNL     1      -9.005   5.659  69.522  1.00  0.00    -0.129 A  
HETATM   11  C   UNL     1     -10.319   5.270  69.254  1.00  0.00    -0.286 A  
HETATM   12  C   UNL     1     -11.392   5.999  69.776  1.00  0.00    -0.344 A  
HETATM   13  C   UNL     1     -11.161   7.136  70.551  1.00  0.00    -0.321 A  
HETATM   14  C   UNL     1      -9.855   7.567  70.749  1.00  0.00    -0.178 A  
ENDBRANCH   4   6
ENDBRANCH   3   4
ENDBRANCH   2   3
TORSDOF 3
ENDMDL
MODEL      237
REMARK 921   NORMALIZED FREE ENERGY PREDICTED BY IDOCK:   -2.02 KCAL/MOL
REMARK 922        TOTAL FREE ENERGY PREDICTED BY IDOCK:   -2.67 KCAL/MOL
REMARK 923 INTER-LIGAND FREE ENERGY PREDICTED BY IDOCK:   -2.53 KCAL/MOL
REMARK 924 INTRA-LIGAND FREE ENERGY PREDICTED BY IDOCK:   -0.14 KCAL/MOL
REMARK 927      BINDING AFFINITY PREDICTED BY RF-SCORE:    0.00 PKD
ROOT
HETATM    1  C   UNL     1     -10.718   7.285  70.053  1.00  0.00    -0.261 C  
HETATM    2  C   UNL     1     -10.846   6.790  68.964  1.00  0.00    -0.290 C  
ENDROOT
BRANCH   2   3
HETATM    3  C   UNL     1     -11.112   6.226  67.638  1.00  0.00    -0.266 C  
BRANCH   3   4
HETATM    4  N   UNL     1     -10.549   7.071  66.590  1.00  0.00    -0.523 NA 
HETATM    5  H   UNL     1     -11.257   7.317  65.899  1.00  0.00     0.000 HD 
BRANCH   4   6
HETATM    6  C   UNL     1      -9.893   8.273  67.121  1.00  0.00    -0.217 C  
HETATM    7  C   UNL     1     -10.355   9.518  66.319  1.00  0.00    -0.226 C  
HETATM    8  C   UNL     1      -9.197  10.014  65.440  1.00  0.00    -0.259 C  
HETATM    9  C   UNL     1      -8.032   9.219  65.924  1.00  0.00    -0.106 A  
HETATM   10  C   UNL     1      -6.721   9.311  65.485  1.00  0.00    -0.073 A  
HETATM   11  C   UNL     1      -5.762   8.468  66.051  1.00  0.00    -0.043 A  
HETATM   12  C   UNL     1      -6.115   7.584  67.075  1.00  0.00    -0.047 A  
HETATM   13  C   UNL     1      -7.433   7.517  67.525  1.00  0.00    -0.104 A  
HETATM   14  C   UNL     1      -8.402   8.298  66.906  1.00  0.00    -0.114 A  
ENDBRANCH   4   6
ENDBRANCH   3   4
ENDBRANCH   2   3
TORSDOF 3
ENDMDL
MODEL      238
REMARK 921   NORMALIZED FREE ENERGY PREDICTED BY IDOCK:   -2.01 KCAL/MOL
REMARK 922        TOTAL FREE ENERGY PREDICTED BY IDOCK:   -2.66 KCAL/MOL
REMARK 923 INTER-LIGAND FREE ENERGY PREDICTED BY IDOCK:   -2.39 KCAL/MOL
REMARK 924 INTRA-LIGAND FREE ENERGY PREDICTED BY IDOCK:   -0.27 KCAL/MOL
REMARK 927      BINDING AFFINITY PREDICTED BY RF-SCORE:    0.00 PKD
ROOT
HETATM    1  C   UNL     1     -10.452  10.226  69.991  1.00  0.00    -0.293 C  
HETATM    2  C   UNL     1     -10.512  10.612  68.853  1.00  0.00    -0.232 C  
ENDROOT
BRANCH   2   3
HETATM    3  C   UNL     1     -10.480  11.130  67.483  1.00  0.00    -0.204 C  
BRANCH   3   4
HETATM    4  N   UNL     1     -10.298  10.049  66.521  1.00  0.00    -0.221 NA 
HETATM    5  H   UNL     1     -10.339  10.400  65.565  1.00  0.00     0.000 HD 
BRANCH   4   6
HETATM    6  C   UNL     1      -9.065   9.286  66.750  1.00  0.00    -0.140 C  
HETATM    7  C   UNL     1      -8.234   9.233  65.441  1.00  0.00    -0.129 C  
HETATM    8  C   UNL     1      -8.286   7.809  64.866  1.00  0.00    -0.111 C  
HETATM    9  C   UNL     1      -8.923   7.019  65.958  1.00  0.00    -0.135 A  
HETATM   10  C   UNL     1      -9.169   5.655  65.965  1.00  0.00    -0.164 A  
HETATM   11  C   UNL     1      -9.792   5.090  67.080  1.00  0.00    -0.204 A  
HETATM   12  C   UNL     1     -10.115   5.883  68.185  1.00  0.00    -0.199 A  
HETATM   13  C   UNL     1      -9.841   7.251  68.176  1.00  0.00    -0.165 A  
HETATM   14  C   UNL     1      -9.295   7.825  67.035  1.00  0.00    -0.196 A  
ENDBRANCH   4   6
ENDBRANCH   3   4
ENDBRANCH   2   3
TORSDOF 3
ENDMDL
MODEL      239
REMARK 921   NORMALIZED FREE ENERGY PREDICTED BY IDOCK:   -2.01 KCAL/MOL
REMARK 922        TOTAL FREE ENERGY PREDICTED BY IDOCK:   -2.66 KCAL/MOL
REMARK 923 INTER-LIGAND FREE ENERGY PREDICTED BY IDOCK:   -2.34 KCAL/MOL
REMARK 924 INTRA-LIGAND FREE ENERGY PREDICTED BY IDOCK:   -0.32 KCAL/MOL
REMARK 927      BINDING AFFINITY PREDICTED BY RF-SCORE:    0.00 PKD
ROOT
HETATM    1  C   UNL     1      -6.475  13.400  70.166  1.00  0.00     0.098 C  
HETATM    2  C   UNL     1      -6.448  13.529  68.970  1.00  0.00    -0.107 C  
ENDROOT
BRANCH   2   3
HETATM    3  C   UNL     1      -6.363  13.791  67.530  1.00  0.00    -0.045 C  
BRANCH   3   4
HETATM    4  N   UNL     1      -7.306  14.831  67.133  1.00  0.00    -0.288 NA 
HETATM    5  H   UNL     1      -8.268  14.524  67.272  1.00  0.00     0.000 HD 
BRANCH   4   6
HETATM    6  C   UNL     1      -7.059  16.110  67.811  1.00  0.00    -0.138 C  
HETATM    7  C   UNL     1      -8.388  16.656  68.396  1.00  0.00    -0.208 C  
HETATM    8  C   UNL     1      -8.840  17.874  67.575  1.00  0.00    -0.248 C  
HETATM    9  C   UNL     1      -7.662  18.159  66.706  1.00  0.00    -0.249 A  
HETATM   10  C   UNL     1      -7.533  19.195  65.793  1.00  0.00    -0.205 A  
HETATM   11  C   UNL     1      -6.352  19.294  65.053  1.00  0.00    -0.297 A  
HETATM   12  C   UNL     1      -5.306  18.392  65.268  1.00  0.00    -0.211 A  
HETATM   13  C   UNL     1      -5.440  17.368  66.206  1.00  0.00    -0.213 A  
HETATM   14  C   UNL     1      -6.645  17.222  66.883  1.00  0.00    -0.229 A  
ENDBRANCH   4   6
ENDBRANCH   3   4
ENDBRANCH   2   3
TORSDOF 3
ENDMDL
MODEL      240
REMARK 921   NORMALIZED FREE ENERGY PREDICTED BY IDOCK:   -2.01 KCAL/MOL
REMARK 922        TOTAL FREE ENERGY PREDICTED BY IDOCK:   -2.66 KCAL/MOL
REMARK 923 INTER-LIGAND FREE ENERGY PREDICTED BY IDOCK:   -2.47 KCAL/MOL
REMARK 924 INTRA-LIGAND FREE ENERGY PREDICTED BY IDOCK:   -0.19 KCAL/MOL
REMARK 927      BINDING AFFINITY PREDICTED BY RF-SCORE:    0.00 PKD
ROOT
HETATM    1  C   UNL     1      -9.568   1.745  71.189  1.00  0.00    -0.206 C  
HETATM    2  C   UNL     1      -9.706   2.752  70.546  1.00  0.00    -0.068 C  
ENDROOT
BRANCH   2   3
HETATM    3  C   UNL     1      -9.864   3.914  69.667  1.00  0.00    -0.036 C  
BRANCH   3   4
HETATM    4  N   UNL     1     -10.138   5.120  70.442  1.00  0.00    -0.243 NA 
HETATM    5  H   UNL     1      -9.287   5.475  70.878  1.00  0.00     0.000 HD 
BRANCH   4   6
HETATM    6  C   UNL     1     -10.800   6.165  69.650  1.00  0.00    -0.356 C  
HETATM    7  C   UNL     1     -10.763   5.782  68.147  1.00  0.00    -0.288 C  
HETATM    8  C   UNL     1      -9.776   6.702  67.413  1.00  0.00    -0.155 C  
HETATM    9  C   UNL     1      -9.453   7.742  68.431  1.00  0.00    -0.148 A  
HETATM   10  C   UNL     1      -8.628   8.844  68.263  1.00  0.00    -0.134 A  
HETATM   11  C   UNL     1      -8.433   9.708  69.344  1.00  0.00    -0.156 A  
HETATM   12  C   UNL     1      -9.097   9.486  70.554  1.00  0.00    -0.276 A  
HETATM   13  C   UNL     1      -9.943   8.387  70.703  1.00  0.00    -0.212 A  
HETATM   14  C   UNL     1     -10.073   7.484  69.654  1.00  0.00    -0.189 A  
ENDBRANCH   4   6
ENDBRANCH   3   4
ENDBRANCH   2   3
TORSDOF 3
ENDMDL
MODEL      241
REMARK 921   NORMALIZED FREE ENERGY PREDICTED BY IDOCK:   -2.00 KCAL/MOL
REMARK 922        TOTAL FREE ENERGY PREDICTED BY IDOCK:   -2.64 KCAL/MOL
REMARK 923 INTER-LIGAND FREE ENERGY PREDICTED BY IDOCK:   -2.27 KCAL/MOL
REMARK 924 INTRA-LIGAND FREE ENERGY PREDICTED BY IDOCK:   -0.37 KCAL/MOL
REMARK 927      BINDING AFFINITY PREDICTED BY RF-SCORE:    0.00 PKD
ROOT
HETATM    1  C   UNL     1     -10.387   5.559  67.327  1.00  0.00    -0.290 C  
HETATM    2  C   UNL     1      -9.573   5.841  68.167  1.00  0.00    -0.132 C  
ENDROOT
BRANCH   2   3
HETATM    3  C   UNL     1      -8.669   6.193  69.265  1.00  0.00    -0.122 C  
BRANCH   3   4
HETATM    4  N   UNL     1      -8.618   7.639  69.455  1.00  0.00    -0.132 NA 
HETATM    5  H   UNL     1      -7.865   7.897  70.092  1.00  0.00     0.000 HD 
BRANCH   4   6
HETATM    6  C   UNL     1      -8.512   8.374  68.189  1.00  0.00    -0.132 C  
HETATM    7  C   UNL     1      -7.120   9.052  68.095  1.00  0.00    -0.078 C  
HETATM    8  C   UNL     1      -7.283  10.571  68.261  1.00  0.00    -0.083 C  
HETATM    9  C   UNL     1      -8.760  10.767  68.198  1.00  0.00    -0.130 A  
HETATM   10  C   UNL     1      -9.443  11.972  68.258  1.00  0.00    -0.199 A  
HETATM   11  C   UNL     1     -10.839  11.956  68.197  1.00  0.00    -0.259 A  
HETATM   12  C   UNL     1     -11.525  10.750  68.031  1.00  0.00    -0.333 A  
HETATM   13  C   UNL     1     -10.825   9.546  67.949  1.00  0.00    -0.240 A  
HETATM   14  C   UNL     1      -9.442   9.554  68.090  1.00  0.00    -0.145 A  
ENDBRANCH   4   6
ENDBRANCH   3   4
ENDBRANCH   2   3
TORSDOF 3
ENDMDL
MODEL      242
REMARK 921   NORMALIZED FREE ENERGY PREDICTED BY IDOCK:   -1.99 KCAL/MOL
REMARK 922        TOTAL FREE ENERGY PREDICTED BY IDOCK:   -2.64 KCAL/MOL
REMARK 923 INTER-LIGAND FREE ENERGY PREDICTED BY IDOCK:   -2.39 KCAL/MOL
REMARK 924 INTRA-LIGAND FREE ENERGY PREDICTED BY IDOCK:   -0.25 KCAL/MOL
REMARK 927      BINDING AFFINITY PREDICTED BY RF-SCORE:    0.00 PKD
ROOT
HETATM    1  C   UNL     1      -9.255   1.878  71.029  1.00  0.00    -0.174 C  
HETATM    2  C   UNL     1      -9.557   3.002  71.330  1.00  0.00    -0.227 C  
ENDROOT
BRANCH   2   3
HETATM    3  C   UNL     1      -9.893   4.347  71.806  1.00  0.00    -0.185 C  
BRANCH   3   4
HETATM    4  N   UNL     1     -10.335   5.195  70.704  1.00  0.00    -0.251 NA 
HETATM    5  H   UNL     1     -11.033   5.868  71.018  1.00  0.00     0.000 HD 
BRANCH   4   6
HETATM    6  C   UNL     1      -9.221   5.870  70.025  1.00  0.00    -0.148 C  
HETATM    7  C   UNL     1      -8.226   6.422  71.080  1.00  0.00    -0.122 C  
HETATM    8  C   UNL     1      -8.331   7.955  71.121  1.00  0.00    -0.116 C  
HETATM    9  C   UNL     1      -9.183   8.274  69.940  1.00  0.00    -0.154 A  
HETATM   10  C   UNL     1      -9.554   9.534  69.497  1.00  0.00    -0.198 A  
HETATM   11  C   UNL     1     -10.376   9.635  68.372  1.00  0.00    -0.233 A  
HETATM   12  C   UNL     1     -10.773   8.486  67.682  1.00  0.00    -0.189 A  
HETATM   13  C   UNL     1     -10.374   7.225  68.124  1.00  0.00    -0.234 A  
HETATM   14  C   UNL     1      -9.624   7.121  69.289  1.00  0.00    -0.155 A  
ENDBRANCH   4   6
ENDBRANCH   3   4
ENDBRANCH   2   3
TORSDOF 3
ENDMDL
MODEL      243
REMARK 921   NORMALIZED FREE ENERGY PREDICTED BY IDOCK:   -1.99 KCAL/MOL
REMARK 922        TOTAL FREE ENERGY PREDICTED BY IDOCK:   -2.63 KCAL/MOL
REMARK 923 INTER-LIGAND FREE ENERGY PREDICTED BY IDOCK:   -2.29 KCAL/MOL
REMARK 924 INTRA-LIGAND FREE ENERGY PREDICTED BY IDOCK:   -0.33 KCAL/MOL
REMARK 927      BINDING AFFINITY PREDICTED BY RF-SCORE:    0.00 PKD
ROOT
HETATM    1  C   UNL     1     -10.289   5.233  73.400  1.00  0.00    -0.242 C  
HETATM    2  C   UNL     1     -10.755   5.762  72.425  1.00  0.00    -0.280 C  
ENDROOT
BRANCH   2   3
HETATM    3  C   UNL     1     -11.265   6.503  71.268  1.00  0.00    -0.288 C  
BRANCH   3   4
HETATM    4  N   UNL     1     -10.172   7.106  70.513  1.00  0.00    -0.195 NA 
HETATM    5  H   UNL     1      -9.716   7.840  71.054  1.00  0.00     0.000 HD 
BRANCH   4   6
HETATM    6  C   UNL     1      -9.196   6.117  70.039  1.00  0.00    -0.151 C  
HETATM    7  C   UNL     1      -7.760   6.678  70.210  1.00  0.00    -0.098 C  
HETATM    8  C   UNL     1      -7.179   7.015  68.828  1.00  0.00    -0.091 C  
HETATM    9  C   UNL     1      -8.170   6.422  67.884  1.00  0.00    -0.115 A  
HETATM   10  C   UNL     1      -8.098   6.412  66.500  1.00  0.00    -0.111 A  
HETATM   11  C   UNL     1      -9.135   5.817  65.778  1.00  0.00    -0.122 A  
HETATM   12  C   UNL     1     -10.200   5.205  66.446  1.00  0.00    -0.303 A  
HETATM   13  C   UNL     1     -10.249   5.202  67.840  1.00  0.00    -0.180 A  
HETATM   14  C   UNL     1      -9.258   5.863  68.555  1.00  0.00    -0.119 A  
ENDBRANCH   4   6
ENDBRANCH   3   4
ENDBRANCH   2   3
TORSDOF 3
ENDMDL
MODEL      244
REMARK 921   NORMALIZED FREE ENERGY PREDICTED BY IDOCK:   -1.98 KCAL/MOL
REMARK 922        TOTAL FREE ENERGY PREDICTED BY IDOCK:   -2.62 KCAL/MOL
REMARK 923 INTER-LIGAND FREE ENERGY PREDICTED BY IDOCK:   -2.35 KCAL/MOL
REMARK 924 INTRA-LIGAND FREE ENERGY PREDICTED BY IDOCK:   -0.28 KCAL/MOL
REMARK 927      BINDING AFFINITY PREDICTED BY RF-SCORE:    0.00 PKD
ROOT
HETATM    1  C   UNL     1      -6.745   7.721  68.892  1.00  0.00    -0.050 C  
HETATM    2  C   UNL     1      -7.620   8.383  69.383  1.00  0.00    -0.091 C  
ENDROOT
BRANCH   2   3
HETATM    3  C   UNL     1      -8.762   9.105  69.951  1.00  0.00    -0.163 C  
BRANCH   3   4
HETATM    4  N   UNL     1      -8.729  10.514  69.571  1.00  0.00    -0.362 NA 
HETATM    5  H   UNL     1      -7.769  10.849  69.496  1.00  0.00     0.000 HD 
BRANCH   4   6
HETATM    6  C   UNL     1      -9.479  10.787  68.339  1.00  0.00    -0.174 C  
HETATM    7  C   UNL     1     -10.691   9.822  68.242  1.00  0.00    -0.277 C  
HETATM    8  C   UNL     1     -10.430   8.792  67.133  1.00  0.00    -0.354 C  
HETATM    9  C   UNL     1      -9.212   9.318  66.453  1.00  0.00    -0.227 A  
HETATM   10  C   UNL     1      -8.576   8.776  65.346  1.00  0.00    -0.203 A  
HETATM   11  C   UNL     1      -7.431   9.406  64.855  1.00  0.00    -0.107 A  
HETATM   12  C   UNL     1      -6.967  10.586  65.442  1.00  0.00    -0.074 A  
HETATM   13  C   UNL     1      -7.628  11.135  66.541  1.00  0.00    -0.135 A  
HETATM   14  C   UNL     1      -8.721  10.464  67.079  1.00  0.00    -0.132 A  
ENDBRANCH   4   6
ENDBRANCH   3   4
ENDBRANCH   2   3
TORSDOF 3
ENDMDL
MODEL      245
REMARK 921   NORMALIZED FREE ENERGY PREDICTED BY IDOCK:   -1.98 KCAL/MOL
REMARK 922        TOTAL FREE ENERGY PREDICTED BY IDOCK:   -2.62 KCAL/MOL
REMARK 923 INTER-LIGAND FREE ENERGY PREDICTED BY IDOCK:   -2.36 KCAL/MOL
REMARK 924 INTRA-LIGAND FREE ENERGY PREDICTED BY IDOCK:   -0.26 KCAL/MOL
REMARK 927      BINDING AFFINITY PREDICTED BY RF-SCORE:    0.00 PKD
ROOT
HETATM    1  C   UNL     1      -6.847   2.239  68.199  1.00  0.00    -0.043 C  
HETATM    2  C   UNL     1      -7.349   3.314  68.005  1.00  0.00    -0.054 C  
ENDROOT
BRANCH   2   3
HETATM    3  C   UNL     1      -7.991   4.626  67.882  1.00  0.00    -0.089 C  
BRANCH   3   4
HETATM    4  N   UNL     1      -7.862   5.387  69.120  1.00  0.00    -0.089 NA 
HETATM    5  H   UNL     1      -7.868   6.390  68.935  1.00  0.00     0.000 HD 
BRANCH   4   6
HETATM    6  C   UNL     1      -8.881   5.029  70.115  1.00  0.00    -0.110 C  
HETATM    7  C   UNL     1     -10.278   4.997  69.442  1.00  0.00    -0.268 C  
HETATM    8  C   UNL     1     -11.102   6.200  69.926  1.00  0.00    -0.481 C  
HETATM    9  C   UNL     1     -10.278   6.757  71.037  1.00  0.00    -0.217 A  
HETATM   10  C   UNL     1     -10.592   7.838  71.847  1.00  0.00    -0.270 A  
HETATM   11  C   UNL     1      -9.683   8.224  72.834  1.00  0.00    -0.310 A  
HETATM   12  C   UNL     1      -8.502   7.501  73.029  1.00  0.00    -0.172 A  
HETATM   13  C   UNL     1      -8.208   6.401  72.223  1.00  0.00    -0.107 A  
HETATM   14  C   UNL     1      -9.075   6.066  71.190  1.00  0.00    -0.153 A  
ENDBRANCH   4   6
ENDBRANCH   3   4
ENDBRANCH   2   3
TORSDOF 3
ENDMDL
MODEL      246
REMARK 921   NORMALIZED FREE ENERGY PREDICTED BY IDOCK:   -1.96 KCAL/MOL
REMARK 922        TOTAL FREE ENERGY PREDICTED BY IDOCK:   -2.60 KCAL/MOL
REMARK 923 INTER-LIGAND FREE ENERGY PREDICTED BY IDOCK:   -2.25 KCAL/MOL
REMARK 924 INTRA-LIGAND FREE ENERGY PREDICTED BY IDOCK:   -0.34 KCAL/MOL
REMARK 927      BINDING AFFINITY PREDICTED BY RF-SCORE:    0.00 PKD
ROOT
HETATM    1  C   UNL     1     -11.809   6.435  71.932  1.00  0.00    -0.380 C  
HETATM    2  C   UNL     1     -12.211   7.449  71.424  1.00  0.00    -0.374 C  
ENDROOT
BRANCH   2   3
HETATM    3  C   UNL     1     -12.723   8.621  70.709  1.00  0.00     0.233 C  
BRANCH   3   4
HETATM    4  N   UNL     1     -11.808   9.022  69.645  1.00  0.00    -0.085 NA 
HETATM    5  H   UNL     1     -12.299   9.116  68.757  1.00  0.00     0.000 HD 
BRANCH   4   6
HETATM    6  C   UNL     1     -11.065  10.247  69.969  1.00  0.00    -0.311 C  
HETATM    7  C   UNL     1     -11.249  11.284  68.830  1.00  0.00    -0.311 C  
HETATM    8  C   UNL     1      -9.932  11.418  68.048  1.00  0.00    -0.192 C  
HETATM    9  C   UNL     1      -8.957  10.660  68.885  1.00  0.00    -0.172 A  
HETATM   10  C   UNL     1      -7.601  10.503  68.645  1.00  0.00    -0.099 A  
HETATM   11  C   UNL     1      -6.845   9.741  69.540  1.00  0.00    -0.060 A  
HETATM   12  C   UNL     1      -7.442   9.191  70.678  1.00  0.00    -0.129 A  
HETATM   13  C   UNL     1      -8.803   9.376  70.920  1.00  0.00    -0.168 A  
HETATM   14  C   UNL     1      -9.570  10.066  69.988  1.00  0.00    -0.205 A  
ENDBRANCH   4   6
ENDBRANCH   3   4
ENDBRANCH   2   3
TORSDOF 3
ENDMDL
MODEL      247
REMARK 921   NORMALIZED FREE ENERGY PREDICTED BY IDOCK:   -1.96 KCAL/MOL
REMARK 922        TOTAL FREE ENERGY PREDICTED BY IDOCK:   -2.59 KCAL/MOL
REMARK 923 INTER-LIGAND FREE ENERGY PREDICTED BY IDOCK:   -2.49 KCAL/MOL
REMARK 924 INTRA-LIGAND FREE ENERGY PREDICTED BY IDOCK:   -0.10 KCAL/MOL
REMARK 927      BINDING AFFINITY PREDICTED BY RF-SCORE:    0.00 PKD
ROOT
HETATM    1  C   UNL     1      -8.561   3.883  65.715  1.00  0.00    -0.111 C  
HETATM    2  C   UNL     1      -8.174   4.669  66.539  1.00  0.00    -0.107 C  
ENDROOT
BRANCH   2   3
HETATM    3  C   UNL     1      -7.664   5.694  67.455  1.00  0.00    -0.100 C  
BRANCH   3   4
HETATM    4  N   UNL     1      -8.267   5.558  68.776  1.00  0.00    -0.101 NA 
HETATM    5  H   UNL     1      -7.554   5.562  69.505  1.00  0.00     0.000 HD 
BRANCH   4   6
HETATM    6  C   UNL     1      -9.294   6.574  69.039  1.00  0.00    -0.128 C  
HETATM    7  C   UNL     1     -10.685   6.030  68.617  1.00  0.00    -0.363 C  
HETATM    8  C   UNL     1     -11.152   6.761  67.349  1.00  0.00    -0.366 C  
HETATM    9  C   UNL     1     -10.161   7.866  67.203  1.00  0.00    -0.360 A  
HETATM   10  C   UNL     1     -10.152   8.853  66.230  1.00  0.00    -0.284 A  
HETATM   11  C   UNL     1      -9.128   9.803  66.247  1.00  0.00    -0.192 A  
HETATM   12  C   UNL     1      -8.161   9.781  67.256  1.00  0.00    -0.117 A  
HETATM   13  C   UNL     1      -8.195   8.797  68.244  1.00  0.00    -0.118 A  
HETATM   14  C   UNL     1      -9.167   7.805  68.180  1.00  0.00    -0.138 A  
ENDBRANCH   4   6
ENDBRANCH   3   4
ENDBRANCH   2   3
TORSDOF 3
ENDMDL
MODEL      248
REMARK 921   NORMALIZED FREE ENERGY PREDICTED BY IDOCK:   -1.95 KCAL/MOL
REMARK 922        TOTAL FREE ENERGY PREDICTED BY IDOCK:   -2.59 KCAL/MOL
REMARK 923 INTER-LIGAND FREE ENERGY PREDICTED BY IDOCK:   -2.39 KCAL/MOL
REMARK 924 INTRA-LIGAND FREE ENERGY PREDICTED BY IDOCK:   -0.20 KCAL/MOL
REMARK 927      BINDING AFFINITY PREDICTED BY RF-SCORE:    0.00 PKD
ROOT
HETATM    1  C   UNL     1     -13.727   1.474  73.379  1.00  0.00    -0.139 C  
HETATM    2  C   UNL     1     -12.589   1.839  73.518  1.00  0.00     0.007 C  
ENDROOT
BRANCH   2   3
HETATM    3  C   UNL     1     -11.170   2.191  73.625  1.00  0.00    -0.206 C  
BRANCH   3   4
HETATM    4  N   UNL     1     -10.997   3.637  73.716  1.00  0.00    -0.232 NA 
HETATM    5  H   UNL     1     -10.419   3.886  74.518  1.00  0.00     0.000 HD 
BRANCH   4   6
HETATM    6  C   UNL     1     -10.464   4.223  72.479  1.00  0.00    -0.152 C  
HETATM    7  C   UNL     1      -9.114   3.547  72.121  1.00  0.00    -0.152 C  
HETATM    8  C   UNL     1      -7.969   4.541  72.367  1.00  0.00    -0.094 C  
HETATM    9  C   UNL     1      -8.678   5.829  72.618  1.00  0.00    -0.119 A  
HETATM   10  C   UNL     1      -8.099   7.066  72.857  1.00  0.00    -0.117 A  
HETATM   11  C   UNL     1      -8.932   8.164  73.086  1.00  0.00    -0.330 A  
HETATM   12  C   UNL     1     -10.321   8.021  73.025  1.00  0.00    -0.351 A  
HETATM   13  C   UNL     1     -10.892   6.776  72.761  1.00  0.00    -0.294 A  
HETATM   14  C   UNL     1     -10.064   5.669  72.613  1.00  0.00    -0.208 A  
ENDBRANCH   4   6
ENDBRANCH   3   4
ENDBRANCH   2   3
TORSDOF 3
ENDMDL
MODEL      249
REMARK 921   NORMALIZED FREE ENERGY PREDICTED BY IDOCK:   -1.90 KCAL/MOL
REMARK 922        TOTAL FREE ENERGY PREDICTED BY IDOCK:   -2.52 KCAL/MOL
REMARK 923 INTER-LIGAND FREE ENERGY PREDICTED BY IDOCK:   -2.36 KCAL/MOL
REMARK 924 INTRA-LIGAND FREE ENERGY PREDICTED BY IDOCK:   -0.16 KCAL/MOL
REMARK 927      BINDING AFFINITY PREDICTED BY RF-SCORE:    0.00 PKD
ROOT
HETATM    1  C   UNL     1      -9.909   4.700  67.217  1.00  0.00    -0.218 C  
HETATM    2  C   UNL     1     -10.237   5.852  67.102  1.00  0.00    -0.247 C  
ENDROOT
BRANCH   2   3
HETATM    3  C   UNL     1     -10.662   7.254  67.077  1.00  0.00    -0.336 C  
BRANCH   3   4
HETATM    4  N   UNL     1      -9.818   8.038  66.181  1.00  0.00    -0.467 NA 
HETATM    5  H   UNL     1      -9.762   7.605  65.260  1.00  0.00     0.000 HD 
BRANCH   4   6
HETATM    6  C   UNL     1     -10.245   9.439  66.080  1.00  0.00    -0.194 C  
HETATM    7  C   UNL     1      -9.918   9.983  64.665  1.00  0.00    -0.206 C  
HETATM    8  C   UNL     1      -8.753  10.980  64.762  1.00  0.00     0.023 C  
HETATM    9  C   UNL     1      -8.594  11.182  66.230  1.00  0.00    -0.180 A  
HETATM   10  C   UNL     1      -7.696  12.029  66.862  1.00  0.00    -0.078 A  
HETATM   11  C   UNL     1      -7.684  12.074  68.258  1.00  0.00    -0.127 A  
HETATM   12  C   UNL     1      -8.596  11.314  68.997  1.00  0.00     0.015 A  
HETATM   13  C   UNL     1      -9.510  10.484  68.349  1.00  0.00    -0.158 A  
HETATM   14  C   UNL     1      -9.468  10.379  66.964  1.00  0.00    -0.189 A  
ENDBRANCH   4   6
ENDBRANCH   3   4
ENDBRANCH   2   3
TORSDOF 3
ENDMDL
MODEL      250
REMARK 921   NORMALIZED FREE ENERGY PREDICTED BY IDOCK:   -1.89 KCAL/MOL
REMARK 922        TOTAL FREE ENERGY PREDICTED BY IDOCK:   -2.51 KCAL/MOL
REMARK 923 INTER-LIGAND FREE ENERGY PREDICTED BY IDOCK:   -2.10 KCAL/MOL
REMARK 924 INTRA-LIGAND FREE ENERGY PREDICTED BY IDOCK:   -0.41 KCAL/MOL
REMARK 927      BINDING AFFINITY PREDICTED BY RF-SCORE:    0.00 PKD
ROOT
HETATM    1  C   UNL     1     -11.890   6.744  70.210  1.00  0.00    -0.359 C  
HETATM    2  C   UNL     1     -11.853   6.455  71.378  1.00  0.00    -0.340 C  
ENDROOT
BRANCH   2   3
HETATM    3  C   UNL     1     -11.919   6.067  72.789  1.00  0.00     0.048 C  
BRANCH   3   4
HETATM    4  N   UNL     1     -10.665   5.460  73.222  1.00  0.00    -0.252 NA 
HETATM    5  H   UNL     1     -10.400   5.791  74.149  1.00  0.00     0.000 HD 
BRANCH   4   6
HETATM    6  C   UNL     1     -10.700   3.992  73.177  1.00  0.00    -0.186 C  
HETATM    7  C   UNL     1     -10.202   3.417  74.529  1.00  0.00    -0.228 C  
HETATM    8  C   UNL     1      -8.816   2.784  74.330  1.00  0.00    -0.085 C  
HETATM    9  C   UNL     1      -8.648   2.780  72.848  1.00  0.00    -0.072 A  
HETATM   10  C   UNL     1      -7.574   2.274  72.133  1.00  0.00    -0.044 A  
HETATM   11  C   UNL     1      -7.588   2.373  70.740  1.00  0.00    -0.036 A  
HETATM   12  C   UNL     1      -8.689   2.931  70.083  1.00  0.00    -0.129 A  
HETATM   13  C   UNL     1      -9.774   3.416  70.812  1.00  0.00    -0.190 A  
HETATM   14  C   UNL     1      -9.724   3.389  72.201  1.00  0.00    -0.228 A  
ENDBRANCH   4   6
ENDBRANCH   3   4
ENDBRANCH   2   3
TORSDOF 3
ENDMDL
MODEL      251
REMARK 921   NORMALIZED FREE ENERGY PREDICTED BY IDOCK:   -1.89 KCAL/MOL
REMARK 922        TOTAL FREE ENERGY PREDICTED BY IDOCK:   -2.51 KCAL/MOL
REMARK 923 INTER-LIGAND FREE ENERGY PREDICTED BY IDOCK:   -2.54 KCAL/MOL
REMARK 924 INTRA-LIGAND FREE ENERGY PREDICTED BY IDOCK:    0.03 KCAL/MOL
REMARK 927      BINDING AFFINITY PREDICTED BY RF-SCORE:    0.00 PKD
ROOT
HETATM    1  C   UNL     1      -6.200   9.340  69.627  1.00  0.00    -0.039 C  
HETATM    2  C   UNL     1      -6.823   9.075  68.632  1.00  0.00    -0.063 C  
ENDROOT
BRANCH   2   3
HETATM    3  C   UNL     1      -7.562   8.862  67.385  1.00  0.00    -0.089 C  
BRANCH   3   4
HETATM    4  N   UNL     1      -8.274  10.073  66.988  1.00  0.00    -0.117 NA 
HETATM    5  H   UNL     1      -7.996  10.371  66.054  1.00  0.00     0.000 HD 
BRANCH   4   6
HETATM    6  C   UNL     1      -9.733   9.930  67.083  1.00  0.00    -0.178 C  
HETATM    7  C   UNL     1     -10.283  10.902  68.159  1.00  0.00    -0.197 C  
HETATM    8  C   UNL     1     -10.735  10.097  69.387  1.00  0.00    -0.266 C  
HETATM    9  C   UNL     1     -10.673   8.684  68.914  1.00  0.00    -0.109 A  
HETATM   10  C   UNL     1     -11.021   7.550  69.631  1.00  0.00    -0.164 A  
HETATM   11  C   UNL     1     -10.882   6.301  69.021  1.00  0.00    -0.400 A  
HETATM   12  C   UNL     1     -10.444   6.207  67.696  1.00  0.00    -0.295 A  
HETATM   13  C   UNL     1     -10.119   7.357  66.977  1.00  0.00    -0.328 A  
HETATM   14  C   UNL     1     -10.181   8.593  67.611  1.00  0.00    -0.300 A  
ENDBRANCH   4   6
ENDBRANCH   3   4
ENDBRANCH   2   3
TORSDOF 3
ENDMDL
MODEL      252
REMARK 921   NORMALIZED FREE ENERGY PREDICTED BY IDOCK:   -1.87 KCAL/MOL
REMARK 922        TOTAL FREE ENERGY PREDICTED BY IDOCK:   -2.49 KCAL/MOL
REMARK 923 INTER-LIGAND FREE ENERGY PREDICTED BY IDOCK:   -2.26 KCAL/MOL
REMARK 924 INTRA-LIGAND FREE ENERGY PREDICTED BY IDOCK:   -0.23 KCAL/MOL
REMARK 927      BINDING AFFINITY PREDICTED BY RF-SCORE:    0.00 PKD
ROOT
HETATM    1  C   UNL     1      -8.191   6.673  62.960  1.00  0.00     0.037 C  
HETATM    2  C   UNL     1      -7.716   7.224  63.918  1.00  0.00    -0.120 C  
ENDROOT
BRANCH   2   3
HETATM    3  C   UNL     1      -7.094   7.790  65.119  1.00  0.00    -0.060 C  
BRANCH   3   4
HETATM    4  N   UNL     1      -7.623   9.120  65.401  1.00  0.00    -0.096 NA 
HETATM    5  H   UNL     1      -7.313   9.792  64.700  1.00  0.00     0.000 HD 
BRANCH   4   6
HETATM    6  C   UNL     1      -9.085   9.133  65.534  1.00  0.00    -0.219 C  
HETATM    7  C   UNL     1      -9.600  10.596  65.495  1.00  0.00    -0.271 C  
HETATM    8  C   UNL     1     -10.077  11.003  66.898  1.00  0.00    -0.248 C  
HETATM    9  C   UNL     1     -10.065   9.717  67.652  1.00  0.00    -0.236 A  
HETATM   10  C   UNL     1     -10.452   9.521  68.969  1.00  0.00    -0.229 A  
HETATM   11  C   UNL     1     -10.358   8.237  69.512  1.00  0.00    -0.219 A  
HETATM   12  C   UNL     1      -9.926   7.167  68.724  1.00  0.00    -0.163 A  
HETATM   13  C   UNL     1      -9.562   7.373  67.393  1.00  0.00    -0.184 A  
HETATM   14  C   UNL     1      -9.580   8.663  66.877  1.00  0.00    -0.254 A  
ENDBRANCH   4   6
ENDBRANCH   3   4
ENDBRANCH   2   3
TORSDOF 3
ENDMDL
MODEL      253
REMARK 921   NORMALIZED FREE ENERGY PREDICTED BY IDOCK:   -1.87 KCAL/MOL
REMARK 922        TOTAL FREE ENERGY PREDICTED BY IDOCK:   -2.49 KCAL/MOL
REMARK 923 INTER-LIGAND FREE ENERGY PREDICTED BY IDOCK:   -2.16 KCAL/MOL
REMARK 924 INTRA-LIGAND FREE ENERGY PREDICTED BY IDOCK:   -0.32 KCAL/MOL
REMARK 927      BINDING AFFINITY PREDICTED BY RF-SCORE:    0.00 PKD
ROOT
HETATM    1  C   UNL     1      -6.083  14.524  68.939  1.00  0.00    -0.086 C  
HETATM    2  C   UNL     1      -7.214  14.286  68.604  1.00  0.00    -0.125 C  
ENDROOT
BRANCH   2   3
HETATM    3  C   UNL     1      -8.627  14.063  68.286  1.00  0.00    -0.180 C  
BRANCH   3   4
HETATM    4  N   UNL     1      -8.775  13.021  67.276  1.00  0.00    -0.201 NA 
HETATM    5  H   UNL     1      -8.534  13.372  66.350  1.00  0.00     0.000 HD 
BRANCH   4   6
HETATM    6  C   UNL     1      -8.010  11.808  67.595  1.00  0.00    -0.143 C  
HETATM    7  C   UNL     1      -7.242  11.330  66.335  1.00  0.00    -0.052 C  
HETATM    8  C   UNL     1      -7.893  10.045  65.801  1.00  0.00    -0.128 C  
HETATM    9  C   UNL     1      -8.850   9.670  66.881  1.00  0.00    -0.143 A  
HETATM   10  C   UNL     1      -9.671   8.553  66.916  1.00  0.00    -0.286 A  
HETATM   11  C   UNL     1     -10.517   8.375  68.012  1.00  0.00    -0.242 A  
HETATM   12  C   UNL     1     -10.498   9.285  69.074  1.00  0.00    -0.233 A  
HETATM   13  C   UNL     1      -9.651  10.393  69.038  1.00  0.00    -0.212 A  
HETATM   14  C   UNL     1      -8.868  10.612  67.911  1.00  0.00    -0.131 A  
ENDBRANCH   4   6
ENDBRANCH   3   4
ENDBRANCH   2   3
TORSDOF 3
ENDMDL
MODEL      254
REMARK 921   NORMALIZED FREE ENERGY PREDICTED BY IDOCK:   -1.86 KCAL/MOL
REMARK 922        TOTAL FREE ENERGY PREDICTED BY IDOCK:   -2.48 KCAL/MOL
REMARK 923 INTER-LIGAND FREE ENERGY PREDICTED BY IDOCK:   -2.12 KCAL/MOL
REMARK 924 INTRA-LIGAND FREE ENERGY PREDICTED BY IDOCK:   -0.36 KCAL/MOL
REMARK 927      BINDING AFFINITY PREDICTED BY RF-SCORE:    0.00 PKD
ROOT
HETATM    1  C   UNL     1      -9.482   5.441  67.641  1.00  0.00    -0.132 C  
HETATM    2  C   UNL     1      -8.814   6.214  68.277  1.00  0.00    -0.112 C  
ENDROOT
BRANCH   2   3
HETATM    3  C   UNL     1      -8.096   7.176  69.118  1.00  0.00    -0.121 C  
BRANCH   3   4
HETATM    4  N   UNL     1      -8.968   7.710  70.159  1.00  0.00    -0.146 NA 
HETATM    5  H   UNL     1      -9.941   7.458  69.986  1.00  0.00     0.000 HD 
BRANCH   4   6
HETATM    6  C   UNL     1      -8.552   7.309  71.509  1.00  0.00    -0.118 C  
HETATM    7  C   UNL     1      -7.198   6.557  71.435  1.00  0.00    -0.079 C  
HETATM    8  C   UNL     1      -7.430   5.065  71.721  1.00  0.00    -0.095 C  
HETATM    9  C   UNL     1      -8.843   5.021  72.194  1.00  0.00    -0.137 A  
HETATM   10  C   UNL     1      -9.543   3.904  72.624  1.00  0.00    -0.188 A  
HETATM   11  C   UNL     1     -10.874   4.057  73.018  1.00  0.00    -0.234 A  
HETATM   12  C   UNL     1     -11.469   5.322  73.022  1.00  0.00    -0.340 A  
HETATM   13  C   UNL     1     -10.747   6.442  72.609  1.00  0.00    -0.262 A  
HETATM   14  C   UNL     1      -9.449   6.277  72.141  1.00  0.00    -0.155 A  
ENDBRANCH   4   6
ENDBRANCH   3   4
ENDBRANCH   2   3
TORSDOF 3
ENDMDL
MODEL      255
REMARK 921   NORMALIZED FREE ENERGY PREDICTED BY IDOCK:   -1.86 KCAL/MOL
REMARK 922        TOTAL FREE ENERGY PREDICTED BY IDOCK:   -2.47 KCAL/MOL
REMARK 923 INTER-LIGAND FREE ENERGY PREDICTED BY IDOCK:   -2.26 KCAL/MOL
REMARK 924 INTRA-LIGAND FREE ENERGY PREDICTED BY IDOCK:   -0.21 KCAL/MOL
REMARK 927      BINDING AFFINITY PREDICTED BY RF-SCORE:    0.00 PKD
ROOT
HETATM    1  C   UNL     1      -7.622  10.009  65.333  1.00  0.00    -0.138 C  
HETATM    2  C   UNL     1      -8.312   9.199  65.893  1.00  0.00    -0.127 C  
ENDROOT
BRANCH   2   3
HETATM    3  C   UNL     1      -9.057   8.174  66.630  1.00  0.00    -0.165 C  
BRANCH   3   4
HETATM    4  N   UNL     1      -9.272   6.991  65.803  1.00  0.00    -0.381 NA 
HETATM    5  H   UNL     1      -8.386   6.547  65.563  1.00  0.00     0.000 HD 
BRANCH   4   6
HETATM    6  C   UNL     1     -10.194   6.028  66.418  1.00  0.00    -0.076 C  
HETATM    7  C   UNL     1     -10.188   6.213  67.959  1.00  0.00    -0.210 C  
HETATM    8  C   UNL     1      -9.472   5.019  68.610  1.00  0.00    -0.188 C  
HETATM    9  C   UNL     1      -9.301   4.062  67.479  1.00  0.00    -0.219 A  
HETATM   10  C   UNL     1      -8.739   2.796  67.538  1.00  0.00    -0.136 A  
HETATM   11  C   UNL     1      -8.651   2.045  66.363  1.00  0.00    -0.112 A  
HETATM   12  C   UNL     1      -9.164   2.548  65.163  1.00  0.00    -0.120 A  
HETATM   13  C   UNL     1      -9.747   3.814  65.122  1.00  0.00    -0.176 A  
HETATM   14  C   UNL     1      -9.762   4.592  66.274  1.00  0.00    -0.212 A  
ENDBRANCH   4   6
ENDBRANCH   3   4
ENDBRANCH   2   3
TORSDOF 3
ENDMDL
MODEL      256
REMARK 921   NORMALIZED FREE ENERGY PREDICTED BY IDOCK:   -1.86 KCAL/MOL
REMARK 922        TOTAL FREE ENERGY PREDICTED BY IDOCK:   -2.47 KCAL/MOL
REMARK 923 INTER-LIGAND FREE ENERGY PREDICTED BY IDOCK:   -2.34 KCAL/MOL
REMARK 924 INTRA-LIGAND FREE ENERGY PREDICTED BY IDOCK:   -0.13 KCAL/MOL
REMARK 927      BINDING AFFINITY PREDICTED BY RF-SCORE:    0.00 PKD
ROOT
HETATM    1  C   UNL     1     -11.893  13.205  67.572  1.00  0.00    -0.409 C  
HETATM    2  C   UNL     1     -10.979  12.499  67.235  1.00  0.00    -0.300 C  
ENDROOT
BRANCH   2   3
HETATM    3  C   UNL     1      -9.825  11.647  66.935  1.00  0.00    -0.198 C  
BRANCH   3   4
HETATM    4  N   UNL     1     -10.071  10.836  65.747  1.00  0.00    -0.250 NA 
HETATM    5  H   UNL     1      -9.595  11.226  64.934  1.00  0.00     0.000 HD 
BRANCH   4   6
HETATM    6  C   UNL     1      -9.714   9.425  65.939  1.00  0.00    -0.285 C  
HETATM    7  C   UNL     1      -9.341   9.179  67.425  1.00  0.00    -0.161 C  
HETATM    8  C   UNL     1      -7.826   8.947  67.535  1.00  0.00    -0.101 C  
HETATM    9  C   UNL     1      -7.394   8.815  66.114  1.00  0.00    -0.086 A  
HETATM   10  C   UNL     1      -6.112   8.553  65.654  1.00  0.00    -0.048 A  
HETATM   11  C   UNL     1      -5.895   8.479  64.276  1.00  0.00    -0.065 A  
HETATM   12  C   UNL     1      -6.963   8.619  63.384  1.00  0.00    -0.089 A  
HETATM   13  C   UNL     1      -8.252   8.859  63.860  1.00  0.00    -0.171 A  
HETATM   14  C   UNL     1      -8.453   9.013  65.227  1.00  0.00    -0.181 A  
ENDBRANCH   4   6
ENDBRANCH   3   4
ENDBRANCH   2   3
TORSDOF 3
ENDMDL
MODEL      257
REMARK 921   NORMALIZED FREE ENERGY PREDICTED BY IDOCK:   -1.84 KCAL/MOL
REMARK 922        TOTAL FREE ENERGY PREDICTED BY IDOCK:   -2.45 KCAL/MOL
REMARK 923 INTER-LIGAND FREE ENERGY PREDICTED BY IDOCK:   -2.64 KCAL/MOL
REMARK 924 INTRA-LIGAND FREE ENERGY PREDICTED BY IDOCK:    0.19 KCAL/MOL
REMARK 927      BINDING AFFINITY PREDICTED BY RF-SCORE:    0.00 PKD
ROOT
HETATM    1  C   UNL     1     -10.026   9.431  66.257  1.00  0.00    -0.353 C  
HETATM    2  C   UNL     1     -10.362   8.304  66.509  1.00  0.00    -0.175 C  
ENDROOT
BRANCH   2   3
HETATM    3  C   UNL     1     -10.661   6.909  66.845  1.00  0.00    -0.302 C  
BRANCH   3   4
HETATM    4  N   UNL     1     -11.372   6.820  68.116  1.00  0.00    -0.558 NA 
HETATM    5  H   UNL     1     -12.109   6.115  68.073  1.00  0.00     0.000 HD 
BRANCH   4   6
HETATM    6  C   UNL     1     -10.476   6.577  69.253  1.00  0.00    -0.219 C  
HETATM    7  C   UNL     1     -10.774   7.600  70.380  1.00  0.00    -0.241 C  
HETATM    8  C   UNL     1      -9.618   8.610  70.466  1.00  0.00    -0.210 C  
HETATM    9  C   UNL     1      -8.577   8.018  69.578  1.00  0.00    -0.136 A  
HETATM   10  C   UNL     1      -7.308   8.520  69.333  1.00  0.00    -0.069 A  
HETATM   11  C   UNL     1      -6.471   7.830  68.453  1.00  0.00    -0.053 A  
HETATM   12  C   UNL     1      -6.893   6.631  67.871  1.00  0.00    -0.077 A  
HETATM   13  C   UNL     1      -8.164   6.124  68.143  1.00  0.00    -0.114 A  
HETATM   14  C   UNL     1      -9.025   6.853  68.955  1.00  0.00    -0.131 A  
ENDBRANCH   4   6
ENDBRANCH   3   4
ENDBRANCH   2   3
TORSDOF 3
ENDMDL
MODEL      258
REMARK 921   NORMALIZED FREE ENERGY PREDICTED BY IDOCK:   -1.84 KCAL/MOL
REMARK 922        TOTAL FREE ENERGY PREDICTED BY IDOCK:   -2.45 KCAL/MOL
REMARK 923 INTER-LIGAND FREE ENERGY PREDICTED BY IDOCK:   -2.26 KCAL/MOL
REMARK 924 INTRA-LIGAND FREE ENERGY PREDICTED BY IDOCK:   -0.19 KCAL/MOL
REMARK 927      BINDING AFFINITY PREDICTED BY RF-SCORE:    0.00 PKD
ROOT
HETATM    1  C   UNL     1     -12.927   8.896  72.302  1.00  0.00    -0.479 C  
HETATM    2  C   UNL     1     -11.778   8.540  72.328  1.00  0.00    -0.443 C  
ENDROOT
BRANCH   2   3
HETATM    3  C   UNL     1     -10.396   8.058  72.252  1.00  0.00    -0.271 C  
BRANCH   3   4
HETATM    4  N   UNL     1      -9.580   8.944  71.429  1.00  0.00    -0.271 NA 
HETATM    5  H   UNL     1      -9.436   9.842  71.890  1.00  0.00     0.000 HD 
BRANCH   4   6
HETATM    6  C   UNL     1      -8.298   8.339  71.043  1.00  0.00    -0.124 C  
HETATM    7  C   UNL     1      -7.730   7.519  72.231  1.00  0.00    -0.099 C  
HETATM    8  C   UNL     1      -6.514   8.252  72.818  1.00  0.00    -0.094 C  
HETATM    9  C   UNL     1      -6.251   9.332  71.824  1.00  0.00     0.010 A  
HETATM   10  C   UNL     1      -5.225  10.264  71.859  1.00  0.00    -0.001 A  
HETATM   11  C   UNL     1      -5.147  11.216  70.840  1.00  0.00    -0.110 A  
HETATM   12  C   UNL     1      -6.061  11.194  69.782  1.00  0.00    -0.107 A  
HETATM   13  C   UNL     1      -7.075  10.237  69.746  1.00  0.00    -0.140 A  
HETATM   14  C   UNL     1      -7.200   9.341  70.801  1.00  0.00    -0.126 A  
ENDBRANCH   4   6
ENDBRANCH   3   4
ENDBRANCH   2   3
TORSDOF 3
ENDMDL
MODEL      259
REMARK 921   NORMALIZED FREE ENERGY PREDICTED BY IDOCK:   -1.83 KCAL/MOL
REMARK 922        TOTAL FREE ENERGY PREDICTED BY IDOCK:   -2.44 KCAL/MOL
REMARK 923 INTER-LIGAND FREE ENERGY PREDICTED BY IDOCK:   -2.11 KCAL/MOL
REMARK 924 INTRA-LIGAND FREE ENERGY PREDICTED BY IDOCK:   -0.33 KCAL/MOL
REMARK 927      BINDING AFFINITY PREDICTED BY RF-SCORE:    0.00 PKD
ROOT
HETATM    1  C   UNL     1      -7.227   6.104  62.643  1.00  0.00    -0.053 C  
HETATM    2  C   UNL     1      -7.122   5.867  63.817  1.00  0.00    -0.052 C  
ENDROOT
BRANCH   2   3
HETATM    3  C   UNL     1      -6.926   5.486  65.219  1.00  0.00    -0.060 C  
BRANCH   3   4
HETATM    4  N   UNL     1      -7.359   6.554  66.114  1.00  0.00    -0.078 NA 
HETATM    5  H   UNL     1      -6.812   7.401  65.964  1.00  0.00     0.000 HD 
BRANCH   4   6
HETATM    6  C   UNL     1      -8.797   6.831  66.012  1.00  0.00    -0.135 C  
HETATM    7  C   UNL     1      -9.027   8.361  65.899  1.00  0.00    -0.223 C  
HETATM    8  C   UNL     1      -9.638   8.881  67.210  1.00  0.00    -0.212 C  
HETATM    9  C   UNL     1      -9.977   7.631  67.950  1.00  0.00    -0.208 A  
HETATM   10  C   UNL     1     -10.596   7.539  69.187  1.00  0.00    -0.204 A  
HETATM   11  C   UNL     1     -10.821   6.272  69.732  1.00  0.00    -0.399 A  
HETATM   12  C   UNL     1     -10.471   5.123  69.017  1.00  0.00    -0.149 A  
HETATM   13  C   UNL     1      -9.870   5.229  67.762  1.00  0.00    -0.187 A  
HETATM   14  C   UNL     1      -9.574   6.490  67.257  1.00  0.00    -0.148 A  
ENDBRANCH   4   6
ENDBRANCH   3   4
ENDBRANCH   2   3
TORSDOF 3
ENDMDL
MODEL      260
REMARK 921   NORMALIZED FREE ENERGY PREDICTED BY IDOCK:   -1.82 KCAL/MOL
REMARK 922        TOTAL FREE ENERGY PREDICTED BY IDOCK:   -2.44 KCAL/MOL
REMARK 923 INTER-LIGAND FREE ENERGY PREDICTED BY IDOCK:   -2.43 KCAL/MOL
REMARK 924 INTRA-LIGAND FREE ENERGY PREDICTED BY IDOCK:   -0.01 KCAL/MOL
REMARK 927      BINDING AFFINITY PREDICTED BY RF-SCORE:    0.00 PKD
ROOT
HETATM    1  C   UNL     1      -8.237   5.240  73.084  1.00  0.00    -0.112 C  
HETATM    2  C   UNL     1      -8.275   5.575  71.930  1.00  0.00    -0.119 C  
ENDROOT
BRANCH   2   3
HETATM    3  C   UNL     1      -8.232   5.908  70.503  1.00  0.00    -0.119 C  
BRANCH   3   4
HETATM    4  N   UNL     1      -8.231   7.354  70.306  1.00  0.00    -0.130 NA 
HETATM    5  H   UNL     1      -7.309   7.683  70.020  1.00  0.00     0.000 HD 
BRANCH   4   6
HETATM    6  C   UNL     1      -9.265   7.799  69.363  1.00  0.00    -0.149 C  
HETATM    7  C   UNL     1     -10.668   7.439  69.920  1.00  0.00    -0.254 C  
HETATM    8  C   UNL     1     -11.264   6.292  69.089  1.00  0.00    -0.439 C  
HETATM    9  C   UNL     1     -10.326   6.179  67.935  1.00  0.00    -0.250 A  
HETATM   10  C   UNL     1     -10.431   5.312  66.858  1.00  0.00    -0.313 A  
HETATM   11  C   UNL     1      -9.441   5.342  65.874  1.00  0.00    -0.156 A  
HETATM   12  C   UNL     1      -8.392   6.263  65.954  1.00  0.00    -0.142 A  
HETATM   13  C   UNL     1      -8.310   7.146  67.030  1.00  0.00    -0.118 A  
HETATM   14  C   UNL     1      -9.251   7.062  68.050  1.00  0.00    -0.129 A  
ENDBRANCH   4   6
ENDBRANCH   3   4
ENDBRANCH   2   3
TORSDOF 3
ENDMDL
MODEL      261
REMARK 921   NORMALIZED FREE ENERGY PREDICTED BY IDOCK:   -1.82 KCAL/MOL
REMARK 922        TOTAL FREE ENERGY PREDICTED BY IDOCK:   -2.43 KCAL/MOL
REMARK 923 INTER-LIGAND FREE ENERGY PREDICTED BY IDOCK:   -2.14 KCAL/MOL
REMARK 924 INTRA-LIGAND FREE ENERGY PREDICTED BY IDOCK:   -0.29 KCAL/MOL
REMARK 927      BINDING AFFINITY PREDICTED BY RF-SCORE:    0.00 PKD
ROOT
HETATM    1  C   UNL     1     -11.492   6.441  69.729  1.00  0.00    -0.468 C  
HETATM    2  C   UNL     1     -10.686   5.596  70.017  1.00  0.00    -0.390 C  
ENDROOT
BRANCH   2   3
HETATM    3  C   UNL     1      -9.794   4.492  70.383  1.00  0.00    -0.232 C  
BRANCH   3   4
HETATM    4  N   UNL     1      -8.444   4.723  69.878  1.00  0.00    -0.074 NA 
HETATM    5  H   UNL     1      -7.773   4.776  70.643  1.00  0.00     0.000 HD 
BRANCH   4   6
HETATM    6  C   UNL     1      -8.032   3.726  68.882  1.00  0.00    -0.058 C  
HETATM    7  C   UNL     1      -6.484   3.695  68.786  1.00  0.00    -0.036 C  
HETATM    8  C   UNL     1      -6.046   4.318  67.451  1.00  0.00    -0.031 C  
HETATM    9  C   UNL     1      -7.328   4.466  66.704  1.00  0.00    -0.081 A  
HETATM   10  C   UNL     1      -7.490   4.948  65.414  1.00  0.00    -0.077 A  
HETATM   11  C   UNL     1      -8.779   5.027  64.883  1.00  0.00    -0.150 A  
HETATM   12  C   UNL     1      -9.877   4.583  65.625  1.00  0.00    -0.227 A  
HETATM   13  C   UNL     1      -9.700   4.079  66.914  1.00  0.00    -0.215 A  
HETATM   14  C   UNL     1      -8.426   4.075  67.471  1.00  0.00    -0.103 A  
ENDBRANCH   4   6
ENDBRANCH   3   4
ENDBRANCH   2   3
TORSDOF 3
ENDMDL
MODEL      262
REMARK 921   NORMALIZED FREE ENERGY PREDICTED BY IDOCK:   -1.80 KCAL/MOL
REMARK 922        TOTAL FREE ENERGY PREDICTED BY IDOCK:   -2.41 KCAL/MOL
REMARK 923 INTER-LIGAND FREE ENERGY PREDICTED BY IDOCK:   -2.22 KCAL/MOL
REMARK 924 INTRA-LIGAND FREE ENERGY PREDICTED BY IDOCK:   -0.19 KCAL/MOL
REMARK 927      BINDING AFFINITY PREDICTED BY RF-SCORE:    0.00 PKD
ROOT
HETATM    1  C   UNL     1      -8.598   4.659  63.055  1.00  0.00    -0.115 C  
HETATM    2  C   UNL     1      -8.012   5.554  63.606  1.00  0.00    -0.108 C  
ENDROOT
BRANCH   2   3
HETATM    3  C   UNL     1      -7.239   6.562  64.337  1.00  0.00    -0.069 C  
BRANCH   3   4
HETATM    4  N   UNL     1      -8.115   7.586  64.895  1.00  0.00    -0.165 NA 
HETATM    5  H   UNL     1      -9.045   7.537  64.480  1.00  0.00     0.000 HD 
BRANCH   4   6
HETATM    6  C   UNL     1      -8.189   7.533  66.360  1.00  0.00    -0.122 C  
HETATM    7  C   UNL     1      -9.249   6.484  66.791  1.00  0.00    -0.163 C  
HETATM    8  C   UNL     1     -10.477   7.210  67.362  1.00  0.00    -0.354 C  
HETATM    9  C   UNL     1     -10.017   8.623  67.483  1.00  0.00    -0.256 A  
HETATM   10  C   UNL     1     -10.738   9.694  67.989  1.00  0.00    -0.284 A  
HETATM   11  C   UNL     1     -10.141  10.956  68.009  1.00  0.00    -0.197 A  
HETATM   12  C   UNL     1      -8.824  11.122  67.570  1.00  0.00    -0.139 A  
HETATM   13  C   UNL     1      -8.100  10.032  67.084  1.00  0.00    -0.117 A  
HETATM   14  C   UNL     1      -8.722   8.793  66.990  1.00  0.00    -0.131 A  
ENDBRANCH   4   6
ENDBRANCH   3   4
ENDBRANCH   2   3
TORSDOF 3
ENDMDL
MODEL      263
REMARK 921   NORMALIZED FREE ENERGY PREDICTED BY IDOCK:   -1.76 KCAL/MOL
REMARK 922        TOTAL FREE ENERGY PREDICTED BY IDOCK:   -2.36 KCAL/MOL
REMARK 923 INTER-LIGAND FREE ENERGY PREDICTED BY IDOCK:   -2.40 KCAL/MOL
REMARK 924 INTRA-LIGAND FREE ENERGY PREDICTED BY IDOCK:    0.04 KCAL/MOL
REMARK 927      BINDING AFFINITY PREDICTED BY RF-SCORE:    0.00 PKD
ROOT
HETATM    1  C   UNL     1     -10.077   3.010  64.258  1.00  0.00    -0.097 C  
HETATM    2  C   UNL     1      -9.660   3.886  64.970  1.00  0.00    -0.181 C  
ENDROOT
BRANCH   2   3
HETATM    3  C   UNL     1      -9.198   5.030  65.760  1.00  0.00    -0.156 C  
BRANCH   3   4
HETATM    4  N   UNL     1      -8.773   6.125  64.892  1.00  0.00    -0.357 NA 
HETATM    5  H   UNL     1      -9.568   6.523  64.393  1.00  0.00     0.000 HD 
BRANCH   4   6
HETATM    6  C   UNL     1      -8.029   7.164  65.614  1.00  0.00    -0.126 C  
HETATM    7  C   UNL     1      -7.084   6.504  66.652  1.00  0.00    -0.068 C  
HETATM    8  C   UNL     1      -7.625   6.765  68.067  1.00  0.00    -0.107 C  
HETATM    9  C   UNL     1      -8.710   7.762  67.842  1.00  0.00    -0.124 A  
HETATM   10  C   UNL     1      -9.499   8.366  68.809  1.00  0.00    -0.147 A  
HETATM   11  C   UNL     1     -10.482   9.271  68.404  1.00  0.00    -0.246 A  
HETATM   12  C   UNL     1     -10.631   9.595  67.052  1.00  0.00    -0.267 A  
HETATM   13  C   UNL     1      -9.815   8.998  66.091  1.00  0.00    -0.349 A  
HETATM   14  C   UNL     1      -8.892   8.037  66.487  1.00  0.00    -0.175 A  
ENDBRANCH   4   6
ENDBRANCH   3   4
ENDBRANCH   2   3
TORSDOF 3
ENDMDL
MODEL      264
REMARK 921   NORMALIZED FREE ENERGY PREDICTED BY IDOCK:   -1.75 KCAL/MOL
REMARK 922        TOTAL FREE ENERGY PREDICTED BY IDOCK:   -2.35 KCAL/MOL
REMARK 923 INTER-LIGAND FREE ENERGY PREDICTED BY IDOCK:   -2.10 KCAL/MOL
REMARK 924 INTRA-LIGAND FREE ENERGY PREDICTED BY IDOCK:   -0.26 KCAL/MOL
REMARK 927      BINDING AFFINITY PREDICTED BY RF-SCORE:    0.00 PKD
ROOT
HETATM    1  C   UNL     1      -8.677   4.648  63.195  1.00  0.00    -0.121 C  
HETATM    2  C   UNL     1      -8.214   5.533  63.865  1.00  0.00    -0.110 C  
ENDROOT
BRANCH   2   3
HETATM    3  C   UNL     1      -7.571   6.533  64.721  1.00  0.00    -0.099 C  
BRANCH   3   4
HETATM    4  N   UNL     1      -8.498   7.023  65.736  1.00  0.00    -0.149 NA 
HETATM    5  H   UNL     1      -9.354   7.375  65.309  1.00  0.00     0.000 HD 
BRANCH   4   6
HETATM    6  C   UNL     1      -8.796   6.019  66.765  1.00  0.00    -0.120 C  
HETATM    7  C   UNL     1     -10.308   5.672  66.731  1.00  0.00    -0.316 C  
HETATM    8  C   UNL     1     -10.992   6.262  67.974  1.00  0.00    -0.418 C  
HETATM    9  C   UNL     1      -9.847   6.716  68.814  1.00  0.00    -0.140 A  
HETATM   10  C   UNL     1      -9.915   7.292  70.074  1.00  0.00    -0.184 A  
HETATM   11  C   UNL     1      -8.727   7.668  70.705  1.00  0.00    -0.139 A  
HETATM   12  C   UNL     1      -7.494   7.422  70.094  1.00  0.00    -0.087 A  
HETATM   13  C   UNL     1      -7.437   6.820  68.837  1.00  0.00    -0.096 A  
HETATM   14  C   UNL     1      -8.622   6.520  68.175  1.00  0.00    -0.118 A  
ENDBRANCH   4   6
ENDBRANCH   3   4
ENDBRANCH   2   3
TORSDOF 3
ENDMDL
MODEL      265
REMARK 921   NORMALIZED FREE ENERGY PREDICTED BY IDOCK:   -1.74 KCAL/MOL
REMARK 922        TOTAL FREE ENERGY PREDICTED BY IDOCK:   -2.33 KCAL/MOL
REMARK 923 INTER-LIGAND FREE ENERGY PREDICTED BY IDOCK:   -2.02 KCAL/MOL
REMARK 924 INTRA-LIGAND FREE ENERGY PREDICTED BY IDOCK:   -0.31 KCAL/MOL
REMARK 927      BINDING AFFINITY PREDICTED BY RF-SCORE:    0.00 PKD
ROOT
HETATM    1  C   UNL     1     -11.494   6.370  69.144  1.00  0.00    -0.265 C  
HETATM    2  C   UNL     1     -11.870   6.486  70.281  1.00  0.00    -0.361 C  
ENDROOT
BRANCH   2   3
HETATM    3  C   UNL     1     -12.437   6.639  71.624  1.00  0.00    -0.303 C  
BRANCH   3   4
HETATM    4  N   UNL     1     -11.525   6.117  72.636  1.00  0.00    -0.417 NA 
HETATM    5  H   UNL     1     -12.000   6.001  73.531  1.00  0.00     0.000 HD 
BRANCH   4   6
HETATM    6  C   UNL     1     -10.870   4.870  72.222  1.00  0.00    -0.102 C  
HETATM    7  C   UNL     1     -11.597   3.661  72.866  1.00  0.00     0.317 C  
HETATM    8  C   UNL     1     -10.703   3.054  73.959  1.00  0.00    -0.278 C  
HETATM    9  C   UNL     1      -9.399   3.751  73.762  1.00  0.00    -0.110 A  
HETATM   10  C   UNL     1      -8.227   3.539  74.472  1.00  0.00    -0.081 A  
HETATM   11  C   UNL     1      -7.102   4.302  74.152  1.00  0.00    -0.067 A  
HETATM   12  C   UNL     1      -7.150   5.226  73.104  1.00  0.00    -0.085 A  
HETATM   13  C   UNL     1      -8.328   5.413  72.382  1.00  0.00    -0.118 A  
HETATM   14  C   UNL     1      -9.469   4.712  72.753  1.00  0.00    -0.156 A  
ENDBRANCH   4   6
ENDBRANCH   3   4
ENDBRANCH   2   3
TORSDOF 3
ENDMDL
MODEL      266
REMARK 921   NORMALIZED FREE ENERGY PREDICTED BY IDOCK:   -1.74 KCAL/MOL
REMARK 922        TOTAL FREE ENERGY PREDICTED BY IDOCK:   -2.33 KCAL/MOL
REMARK 923 INTER-LIGAND FREE ENERGY PREDICTED BY IDOCK:   -2.14 KCAL/MOL
REMARK 924 INTRA-LIGAND FREE ENERGY PREDICTED BY IDOCK:   -0.19 KCAL/MOL
REMARK 927      BINDING AFFINITY PREDICTED BY RF-SCORE:    0.00 PKD
ROOT
HETATM    1  C   UNL     1     -12.927   8.896  72.302  1.00  0.00    -0.479 C  
HETATM    2  C   UNL     1     -11.778   8.540  72.328  1.00  0.00    -0.443 C  
ENDROOT
BRANCH   2   3
HETATM    3  C   UNL     1     -10.396   8.059  72.253  1.00  0.00    -0.271 C  
BRANCH   3   4
HETATM    4  N   UNL     1      -9.973   7.904  70.865  1.00  0.00    -0.182 NA 
HETATM    5  H   UNL     1      -9.876   8.811  70.409  1.00  0.00     0.000 HD 
BRANCH   4   6
HETATM    6  C   UNL     1      -8.742   7.115  70.732  1.00  0.00    -0.147 C  
HETATM    7  C   UNL     1      -7.766   7.471  71.884  1.00  0.00    -0.088 C  
HETATM    8  C   UNL     1      -6.587   8.278  71.319  1.00  0.00    -0.048 C  
HETATM    9  C   UNL     1      -6.767   8.162  69.843  1.00  0.00    -0.043 A  
HETATM   10  C   UNL     1      -5.940   8.683  68.860  1.00  0.00    -0.044 A  
HETATM   11  C   UNL     1      -6.280   8.483  67.520  1.00  0.00    -0.053 A  
HETATM   12  C   UNL     1      -7.409   7.730  67.183  1.00  0.00    -0.091 A  
HETATM   13  C   UNL     1      -8.221   7.191  68.182  1.00  0.00    -0.124 A  
HETATM   14  C   UNL     1      -7.926   7.459  69.513  1.00  0.00    -0.127 A  
ENDBRANCH   4   6
ENDBRANCH   3   4
ENDBRANCH   2   3
TORSDOF 3
ENDMDL
MODEL      267
REMARK 921   NORMALIZED FREE ENERGY PREDICTED BY IDOCK:   -1.73 KCAL/MOL
REMARK 922        TOTAL FREE ENERGY PREDICTED BY IDOCK:   -2.33 KCAL/MOL
REMARK 923 INTER-LIGAND FREE ENERGY PREDICTED BY IDOCK:   -2.22 KCAL/MOL
REMARK 924 INTRA-LIGAND FREE ENERGY PREDICTED BY IDOCK:   -0.11 KCAL/MOL
REMARK 927      BINDING AFFINITY PREDICTED BY RF-SCORE:    0.00 PKD
ROOT
HETATM    1  C   UNL     1      -7.753  12.167  68.531  1.00  0.00    -0.119 C  
HETATM    2  C   UNL     1      -7.494  10.992  68.538  1.00  0.00    -0.106 C  
ENDROOT
BRANCH   2   3
HETATM    3  C   UNL     1      -7.182   9.564  68.429  1.00  0.00    -0.075 C  
BRANCH   3   4
HETATM    4  N   UNL     1      -7.432   9.078  67.076  1.00  0.00    -0.087 NA 
HETATM    5  H   UNL     1      -6.632   8.553  66.724  1.00  0.00     0.000 HD 
BRANCH   4   6
HETATM    6  C   UNL     1      -8.666   8.290  66.975  1.00  0.00    -0.127 C  
HETATM    7  C   UNL     1      -9.843   9.214  66.564  1.00  0.00    -0.333 C  
HETATM    8  C   UNL     1     -10.782   9.403  67.765  1.00  0.00    -0.290 C  
HETATM    9  C   UNL     1     -10.281   8.406  68.755  1.00  0.00    -0.223 A  
HETATM   10  C   UNL     1     -10.810   8.139  70.008  1.00  0.00    -0.233 A  
HETATM   11  C   UNL     1     -10.192   7.173  70.806  1.00  0.00    -0.208 A  
HETATM   12  C   UNL     1      -9.090   6.460  70.324  1.00  0.00    -0.155 A  
HETATM   13  C   UNL     1      -8.581   6.722  69.052  1.00  0.00    -0.131 A  
HETATM   14  C   UNL     1      -9.147   7.739  68.292  1.00  0.00    -0.130 A  
ENDBRANCH   4   6
ENDBRANCH   3   4
ENDBRANCH   2   3
TORSDOF 3
ENDMDL
MODEL      268
REMARK 921   NORMALIZED FREE ENERGY PREDICTED BY IDOCK:   -1.68 KCAL/MOL
REMARK 922        TOTAL FREE ENERGY PREDICTED BY IDOCK:   -2.27 KCAL/MOL
REMARK 923 INTER-LIGAND FREE ENERGY PREDICTED BY IDOCK:   -1.97 KCAL/MOL
REMARK 924 INTRA-LIGAND FREE ENERGY PREDICTED BY IDOCK:   -0.30 KCAL/MOL
REMARK 927      BINDING AFFINITY PREDICTED BY RF-SCORE:    0.00 PKD
ROOT
HETATM    1  C   UNL     1      -8.986   3.744  63.745  1.00  0.00    -0.110 C  
HETATM    2  C   UNL     1      -8.221   4.646  63.965  1.00  0.00    -0.114 C  
ENDROOT
BRANCH   2   3
HETATM    3  C   UNL     1      -7.233   5.673  64.307  1.00  0.00    -0.055 C  
BRANCH   3   4
HETATM    4  N   UNL     1      -7.873   6.973  64.484  1.00  0.00    -0.116 NA 
HETATM    5  H   UNL     1      -8.853   6.938  64.207  1.00  0.00     0.000 HD 
BRANCH   4   6
HETATM    6  C   UNL     1      -7.729   7.494  65.849  1.00  0.00    -0.099 C  
HETATM    7  C   UNL     1      -6.414   6.961  66.475  1.00  0.00    -0.051 C  
HETATM    8  C   UNL     1      -6.750   5.924  67.558  1.00  0.00    -0.058 C  
HETATM    9  C   UNL     1      -8.228   6.055  67.712  1.00  0.00    -0.112 A  
HETATM   10  C   UNL     1      -9.037   5.364  68.601  1.00  0.00    -0.130 A  
HETATM   11  C   UNL     1     -10.411   5.612  68.591  1.00  0.00    -0.277 A  
HETATM   12  C   UNL     1     -10.948   6.574  67.731  1.00  0.00    -0.407 A  
HETATM   13  C   UNL     1     -10.121   7.280  66.857  1.00  0.00    -0.317 A  
HETATM   14  C   UNL     1      -8.766   6.975  66.812  1.00  0.00    -0.124 A  
ENDBRANCH   4   6
ENDBRANCH   3   4
ENDBRANCH   2   3
TORSDOF 3
ENDMDL
MODEL      269
REMARK 921   NORMALIZED FREE ENERGY PREDICTED BY IDOCK:   -1.64 KCAL/MOL
REMARK 922        TOTAL FREE ENERGY PREDICTED BY IDOCK:   -2.22 KCAL/MOL
REMARK 923 INTER-LIGAND FREE ENERGY PREDICTED BY IDOCK:   -2.03 KCAL/MOL
REMARK 924 INTRA-LIGAND FREE ENERGY PREDICTED BY IDOCK:   -0.19 KCAL/MOL
REMARK 927      BINDING AFFINITY PREDICTED BY RF-SCORE:    0.00 PKD
ROOT
HETATM    1  C   UNL     1     -10.080   4.783  71.852  1.00  0.00    -0.264 C  
HETATM    2  C   UNL     1     -10.233   5.118  70.707  1.00  0.00    -0.308 C  
ENDROOT
BRANCH   2   3
HETATM    3  C   UNL     1     -10.309   5.490  69.292  1.00  0.00    -0.265 C  
BRANCH   3   4
HETATM    4  N   UNL     1      -9.063   6.104  68.847  1.00  0.00    -0.123 NA 
HETATM    5  H   UNL     1      -8.267   5.498  69.044  1.00  0.00     0.000 HD 
BRANCH   4   6
HETATM    6  C   UNL     1      -9.093   6.489  67.430  1.00  0.00    -0.112 C  
HETATM    7  C   UNL     1     -10.392   5.953  66.772  1.00  0.00    -0.302 C  
HETATM    8  C   UNL     1     -10.040   4.797  65.823  1.00  0.00    -0.236 C  
HETATM    9  C   UNL     1      -8.551   4.847  65.757  1.00  0.00    -0.128 A  
HETATM   10  C   UNL     1      -7.724   4.034  64.997  1.00  0.00    -0.082 A  
HETATM   11  C   UNL     1      -6.342   4.222  65.076  1.00  0.00    -0.034 A  
HETATM   12  C   UNL     1      -5.812   5.243  65.871  1.00  0.00    -0.018 A  
HETATM   13  C   UNL     1      -6.657   6.069  66.613  1.00  0.00    -0.059 A  
HETATM   14  C   UNL     1      -8.026   5.830  66.596  1.00  0.00    -0.102 A  
ENDBRANCH   4   6
ENDBRANCH   3   4
ENDBRANCH   2   3
TORSDOF 3
ENDMDL
MODEL      270
REMARK 921   NORMALIZED FREE ENERGY PREDICTED BY IDOCK:   -1.60 KCAL/MOL
REMARK 922        TOTAL FREE ENERGY PREDICTED BY IDOCK:   -2.17 KCAL/MOL
REMARK 923 INTER-LIGAND FREE ENERGY PREDICTED BY IDOCK:   -1.84 KCAL/MOL
REMARK 924 INTRA-LIGAND FREE ENERGY PREDICTED BY IDOCK:   -0.33 KCAL/MOL
REMARK 927      BINDING AFFINITY PREDICTED BY RF-SCORE:    0.00 PKD
ROOT
HETATM    1  C   UNL     1     -11.044   6.121  68.362  1.00  0.00    -0.343 C  
HETATM    2  C   UNL     1     -10.347   5.228  68.768  1.00  0.00    -0.206 C  
ENDROOT
BRANCH   2   3
HETATM    3  C   UNL     1      -9.593   4.071  69.257  1.00  0.00    -0.177 C  
BRANCH   3   4
HETATM    4  N   UNL     1      -8.156   4.301  69.146  1.00  0.00    -0.067 NA 
HETATM    5  H   UNL     1      -7.946   4.932  68.373  1.00  0.00     0.000 HD 
BRANCH   4   6
HETATM    6  C   UNL     1      -7.561   4.784  70.398  1.00  0.00    -0.054 C  
HETATM    7  C   UNL     1      -8.414   4.303  71.601  1.00  0.00    -0.108 C  
HETATM    8  C   UNL     1      -9.161   5.502  72.204  1.00  0.00    -0.155 C  
HETATM    9  C   UNL     1      -8.547   6.673  71.514  1.00  0.00    -0.124 A  
HETATM   10  C   UNL     1      -8.839   8.012  71.725  1.00  0.00    -0.184 A  
HETATM   11  C   UNL     1      -8.166   8.974  70.968  1.00  0.00    -0.220 A  
HETATM   12  C   UNL     1      -7.184   8.589  70.051  1.00  0.00    -0.051 A  
HETATM   13  C   UNL     1      -6.883   7.240  69.863  1.00  0.00    -0.056 A  
HETATM   14  C   UNL     1      -7.609   6.281  70.558  1.00  0.00    -0.096 A  
ENDBRANCH   4   6
ENDBRANCH   3   4
ENDBRANCH   2   3
TORSDOF 3
ENDMDL
MODEL      271
REMARK 921   NORMALIZED FREE ENERGY PREDICTED BY IDOCK:   -1.60 KCAL/MOL
REMARK 922        TOTAL FREE ENERGY PREDICTED BY IDOCK:   -2.17 KCAL/MOL
REMARK 923 INTER-LIGAND FREE ENERGY PREDICTED BY IDOCK:   -2.01 KCAL/MOL
REMARK 924 INTRA-LIGAND FREE ENERGY PREDICTED BY IDOCK:   -0.17 KCAL/MOL
REMARK 927      BINDING AFFINITY PREDICTED BY RF-SCORE:    0.00 PKD
ROOT
HETATM    1  C   UNL     1      -8.885   5.897  73.778  1.00  0.00    -0.124 C  
HETATM    2  C   UNL     1      -8.594   5.711  72.626  1.00  0.00    -0.120 C  
ENDROOT
BRANCH   2   3
HETATM    3  C   UNL     1      -8.162   5.404  71.259  1.00  0.00    -0.120 C  
BRANCH   3   4
HETATM    4  N   UNL     1      -8.247   6.587  70.408  1.00  0.00    -0.123 NA 
HETATM    5  H   UNL     1      -7.318   6.905  70.132  1.00  0.00     0.000 HD 
BRANCH   4   6
HETATM    6  C   UNL     1      -9.104   6.380  69.234  1.00  0.00    -0.136 C  
HETATM    7  C   UNL     1      -8.310   5.626  68.136  1.00  0.00    -0.099 C  
HETATM    8  C   UNL     1      -7.999   6.591  66.981  1.00  0.00    -0.112 C  
HETATM    9  C   UNL     1      -8.816   7.795  67.309  1.00  0.00    -0.130 A  
HETATM   10  C   UNL     1      -8.927   8.955  66.559  1.00  0.00    -0.187 A  
HETATM   11  C   UNL     1      -9.735   9.989  67.037  1.00  0.00    -0.227 A  
HETATM   12  C   UNL     1     -10.453   9.832  68.227  1.00  0.00    -0.255 A  
HETATM   13  C   UNL     1     -10.350   8.651  68.961  1.00  0.00    -0.226 A  
HETATM   14  C   UNL     1      -9.484   7.654  68.526  1.00  0.00    -0.147 A  
ENDBRANCH   4   6
ENDBRANCH   3   4
ENDBRANCH   2   3
TORSDOF 3
ENDMDL
MODEL      272
REMARK 921   NORMALIZED FREE ENERGY PREDICTED BY IDOCK:   -1.60 KCAL/MOL
REMARK 922        TOTAL FREE ENERGY PREDICTED BY IDOCK:   -2.17 KCAL/MOL
REMARK 923 INTER-LIGAND FREE ENERGY PREDICTED BY IDOCK:   -1.88 KCAL/MOL
REMARK 924 INTRA-LIGAND FREE ENERGY PREDICTED BY IDOCK:   -0.29 KCAL/MOL
REMARK 927      BINDING AFFINITY PREDICTED BY RF-SCORE:    0.00 PKD
ROOT
HETATM    1  C   UNL     1      -6.245   4.897  73.290  1.00  0.00    -0.038 C  
HETATM    2  C   UNL     1      -6.958   5.783  72.899  1.00  0.00    -0.077 C  
ENDROOT
BRANCH   2   3
HETATM    3  C   UNL     1      -7.762   6.936  72.486  1.00  0.00    -0.095 C  
BRANCH   3   4
HETATM    4  N   UNL     1      -7.618   7.186  71.055  1.00  0.00    -0.084 NA 
HETATM    5  H   UNL     1      -7.007   6.493  70.623  1.00  0.00     0.000 HD 
BRANCH   4   6
HETATM    6  C   UNL     1      -8.909   7.256  70.359  1.00  0.00    -0.150 C  
HETATM    7  C   UNL     1      -9.996   6.540  71.203  1.00  0.00    -0.202 C  
HETATM    8  C   UNL     1     -10.386   5.223  70.515  1.00  0.00    -0.336 C  
HETATM    9  C   UNL     1      -9.716   5.317  69.186  1.00  0.00    -0.231 A  
HETATM   10  C   UNL     1      -9.781   4.393  68.154  1.00  0.00    -0.181 A  
HETATM   11  C   UNL     1      -9.070   4.649  66.979  1.00  0.00    -0.126 A  
HETATM   12  C   UNL     1      -8.347   5.837  66.835  1.00  0.00    -0.108 A  
HETATM   13  C   UNL     1      -8.308   6.768  67.873  1.00  0.00    -0.120 A  
HETATM   14  C   UNL     1      -8.950   6.477  69.071  1.00  0.00    -0.129 A  
ENDBRANCH   4   6
ENDBRANCH   3   4
ENDBRANCH   2   3
TORSDOF 3
ENDMDL
MODEL      273
REMARK 921   NORMALIZED FREE ENERGY PREDICTED BY IDOCK:   -1.59 KCAL/MOL
REMARK 922        TOTAL FREE ENERGY PREDICTED BY IDOCK:   -2.16 KCAL/MOL
REMARK 923 INTER-LIGAND FREE ENERGY PREDICTED BY IDOCK:   -2.12 KCAL/MOL
REMARK 924 INTRA-LIGAND FREE ENERGY PREDICTED BY IDOCK:   -0.04 KCAL/MOL
REMARK 927      BINDING AFFINITY PREDICTED BY RF-SCORE:    0.00 PKD
ROOT
HETATM    1  C   UNL     1     -10.743   6.837  67.057  1.00  0.00    -0.435 C  
HETATM    2  C   UNL     1     -10.390   6.148  67.978  1.00  0.00    -0.245 C  
ENDROOT
BRANCH   2   3
HETATM    3  C   UNL     1     -10.052   5.240  69.077  1.00  0.00    -0.202 C  
BRANCH   3   4
HETATM    4  N   UNL     1      -8.721   5.528  69.600  1.00  0.00    -0.107 NA 
HETATM    5  H   UNL     1      -8.743   6.322  70.239  1.00  0.00     0.000 HD 
BRANCH   4   6
HETATM    6  C   UNL     1      -8.095   4.360  70.233  1.00  0.00    -0.062 C  
HETATM    7  C   UNL     1      -8.702   3.060  69.644  1.00  0.00    -0.130 C  
HETATM    8  C   UNL     1      -9.596   2.393  70.701  1.00  0.00    -0.152 C  
HETATM    9  C   UNL     1      -9.299   3.167  71.941  1.00  0.00    -0.196 A  
HETATM   10  C   UNL     1      -9.818   2.943  73.207  1.00  0.00    -0.166 A  
HETATM   11  C   UNL     1      -9.431   3.787  74.250  1.00  0.00    -0.117 A  
HETATM   12  C   UNL     1      -8.500   4.806  74.026  1.00  0.00    -0.103 A  
HETATM   13  C   UNL     1      -7.967   5.007  72.752  1.00  0.00    -0.101 A  
HETATM   14  C   UNL     1      -8.413   4.218  71.698  1.00  0.00    -0.108 A  
ENDBRANCH   4   6
ENDBRANCH   3   4
ENDBRANCH   2   3
TORSDOF 3
ENDMDL
MODEL      274
REMARK 921   NORMALIZED FREE ENERGY PREDICTED BY IDOCK:   -1.56 KCAL/MOL
REMARK 922        TOTAL FREE ENERGY PREDICTED BY IDOCK:   -2.13 KCAL/MOL
REMARK 923 INTER-LIGAND FREE ENERGY PREDICTED BY IDOCK:   -1.81 KCAL/MOL
REMARK 924 INTRA-LIGAND FREE ENERGY PREDICTED BY IDOCK:   -0.32 KCAL/MOL
REMARK 927      BINDING AFFINITY PREDICTED BY RF-SCORE:    0.00 PKD
ROOT
HETATM    1  C   UNL     1      -6.320   3.715  73.455  1.00  0.00    -0.028 C  
HETATM    2  C   UNL     1      -7.255   4.422  73.182  1.00  0.00    -0.075 C  
ENDROOT
BRANCH   2   3
HETATM    3  C   UNL     1      -8.360   5.353  72.938  1.00  0.00    -0.112 C  
BRANCH   3   4
HETATM    4  N   UNL     1      -7.990   6.348  71.937  1.00  0.00    -0.104 NA 
HETATM    5  H   UNL     1      -7.158   6.863  72.223  1.00  0.00     0.000 HD 
BRANCH   4   6
HETATM    6  C   UNL     1      -7.817   5.769  70.599  1.00  0.00    -0.101 C  
HETATM    7  C   UNL     1      -6.634   6.468  69.878  1.00  0.00    -0.048 C  
HETATM    8  C   UNL     1      -7.182   7.363  68.755  1.00  0.00    -0.090 C  
HETATM    9  C   UNL     1      -8.622   6.983  68.684  1.00  0.00    -0.120 A  
HETATM   10  C   UNL     1      -9.570   7.473  67.798  1.00  0.00    -0.166 A  
HETATM   11  C   UNL     1     -10.883   7.005  67.892  1.00  0.00    -0.252 A  
HETATM   12  C   UNL     1     -11.217   6.026  68.832  1.00  0.00    -0.246 A  
HETATM   13  C   UNL     1     -10.250   5.524  69.703  1.00  0.00    -0.336 A  
HETATM   14  C   UNL     1      -8.963   6.048  69.662  1.00  0.00    -0.133 A  
ENDBRANCH   4   6
ENDBRANCH   3   4
ENDBRANCH   2   3
TORSDOF 3
ENDMDL
MODEL      275
REMARK 921   NORMALIZED FREE ENERGY PREDICTED BY IDOCK:   -1.56 KCAL/MOL
REMARK 922        TOTAL FREE ENERGY PREDICTED BY IDOCK:   -2.13 KCAL/MOL
REMARK 923 INTER-LIGAND FREE ENERGY PREDICTED BY IDOCK:   -1.76 KCAL/MOL
REMARK 924 INTRA-LIGAND FREE ENERGY PREDICTED BY IDOCK:   -0.37 KCAL/MOL
REMARK 927      BINDING AFFINITY PREDICTED BY RF-SCORE:    0.00 PKD
ROOT
HETATM    1  C   UNL     1      -8.165   8.853  71.058  1.00  0.00    -0.217 C  
HETATM    2  C   UNL     1      -8.322   8.321  69.990  1.00  0.00    -0.121 C  
ENDROOT
BRANCH   2   3
HETATM    3  C   UNL     1      -8.513   7.780  68.642  1.00  0.00    -0.129 C  
BRANCH   3   4
HETATM    4  N   UNL     1      -7.540   6.729  68.359  1.00  0.00    -0.102 NA 
HETATM    5  H   UNL     1      -6.744   6.789  68.993  1.00  0.00     0.000 HD 
BRANCH   4   6
HETATM    6  C   UNL     1      -8.133   5.386  68.383  1.00  0.00    -0.091 C  
HETATM    7  C   UNL     1      -9.639   5.474  68.021  1.00  0.00    -0.147 C  
HETATM    8  C   UNL     1     -10.479   5.205  69.278  1.00  0.00    -0.193 C  
HETATM    9  C   UNL     1      -9.473   4.728  70.270  1.00  0.00    -0.243 A  
HETATM   10  C   UNL     1      -9.717   4.309  71.569  1.00  0.00    -0.244 A  
HETATM   11  C   UNL     1      -8.637   3.908  72.359  1.00  0.00    -0.108 A  
HETATM   12  C   UNL     1      -7.343   3.887  71.829  1.00  0.00    -0.055 A  
HETATM   13  C   UNL     1      -7.114   4.288  70.513  1.00  0.00    -0.038 A  
HETATM   14  C   UNL     1      -8.177   4.763  69.754  1.00  0.00    -0.068 A  
ENDBRANCH   4   6
ENDBRANCH   3   4
ENDBRANCH   2   3
TORSDOF 3
ENDMDL
MODEL      276
REMARK 921   NORMALIZED FREE ENERGY PREDICTED BY IDOCK:   -1.54 KCAL/MOL
REMARK 922        TOTAL FREE ENERGY PREDICTED BY IDOCK:   -2.10 KCAL/MOL
REMARK 923 INTER-LIGAND FREE ENERGY PREDICTED BY IDOCK:   -1.89 KCAL/MOL
REMARK 924 INTRA-LIGAND FREE ENERGY PREDICTED BY IDOCK:   -0.21 KCAL/MOL
REMARK 927      BINDING AFFINITY PREDICTED BY RF-SCORE:    0.00 PKD
ROOT
HETATM    1  C   UNL     1     -10.299   9.952  70.078  1.00  0.00    -0.320 C  
HETATM    2  C   UNL     1     -10.051   9.001  69.384  1.00  0.00    -0.198 C  
ENDROOT
BRANCH   2   3
HETATM    3  C   UNL     1      -9.646   7.834  68.596  1.00  0.00    -0.154 C  
BRANCH   3   4
HETATM    4  N   UNL     1      -9.918   8.043  67.178  1.00  0.00    -0.209 NA 
HETATM    5  H   UNL     1      -9.969   9.037  66.959  1.00  0.00     0.000 HD 
BRANCH   4   6
HETATM    6  C   UNL     1      -8.953   7.360  66.308  1.00  0.00    -0.162 C  
HETATM    7  C   UNL     1      -7.932   6.577  67.175  1.00  0.00    -0.112 C  
HETATM    8  C   UNL     1      -6.568   7.282  67.113  1.00  0.00    -0.063 C  
HETATM    9  C   UNL     1      -6.754   8.296  66.035  1.00  0.00    -0.057 A  
HETATM   10  C   UNL     1      -5.801   9.179  65.550  1.00  0.00    -0.054 A  
HETATM   11  C   UNL     1      -6.166  10.071  64.539  1.00  0.00    -0.126 A  
HETATM   12  C   UNL     1      -7.455  10.037  63.998  1.00  0.00    -0.135 A  
HETATM   13  C   UNL     1      -8.397   9.127  64.478  1.00  0.00    -0.175 A  
HETATM   14  C   UNL     1      -8.058   8.295  65.539  1.00  0.00    -0.128 A  
ENDBRANCH   4   6
ENDBRANCH   3   4
ENDBRANCH   2   3
TORSDOF 3
ENDMDL
MODEL      277
REMARK 921   NORMALIZED FREE ENERGY PREDICTED BY IDOCK:   -1.54 KCAL/MOL
REMARK 922        TOTAL FREE ENERGY PREDICTED BY IDOCK:   -2.10 KCAL/MOL
REMARK 923 INTER-LIGAND FREE ENERGY PREDICTED BY IDOCK:   -1.93 KCAL/MOL
REMARK 924 INTRA-LIGAND FREE ENERGY PREDICTED BY IDOCK:   -0.17 KCAL/MOL
REMARK 927      BINDING AFFINITY PREDICTED BY RF-SCORE:    0.00 PKD
ROOT
HETATM    1  C   UNL     1      -9.981   6.516  67.585  1.00  0.00    -0.157 C  
HETATM    2  C   UNL     1      -9.453   7.592  67.685  1.00  0.00    -0.159 C  
ENDROOT
BRANCH   2   3
HETATM    3  C   UNL     1      -8.909   8.950  67.764  1.00  0.00    -0.135 C  
BRANCH   3   4
HETATM    4  N   UNL     1      -9.980   9.934  67.883  1.00  0.00    -0.154 NA 
HETATM    5  H   UNL     1     -10.043  10.291  68.836  1.00  0.00     0.000 HD 
BRANCH   4   6
HETATM    6  C   UNL     1      -9.852  11.032  66.916  1.00  0.00    -0.191 C  
HETATM    7  C   UNL     1      -8.571  10.830  66.065  1.00  0.00    -0.181 C  
HETATM    8  C   UNL     1      -7.522  11.876  66.472  1.00  0.00     0.158 C  
HETATM    9  C   UNL     1      -8.285  12.804  67.355  1.00  0.00    -0.186 A  
HETATM   10  C   UNL     1      -7.809  13.956  67.962  1.00  0.00    -0.154 A  
HETATM   11  C   UNL     1      -8.675  14.695  68.772  1.00  0.00    -0.166 A  
HETATM   12  C   UNL     1     -10.008  14.301  68.924  1.00  0.00    -0.160 A  
HETATM   13  C   UNL     1     -10.481  13.153  68.289  1.00  0.00    -0.258 A  
HETATM   14  C   UNL     1      -9.599  12.375  67.549  1.00  0.00    -0.185 A  
ENDBRANCH   4   6
ENDBRANCH   3   4
ENDBRANCH   2   3
TORSDOF 3
ENDMDL
MODEL      278
REMARK 921   NORMALIZED FREE ENERGY PREDICTED BY IDOCK:   -1.53 KCAL/MOL
REMARK 922        TOTAL FREE ENERGY PREDICTED BY IDOCK:   -2.09 KCAL/MOL
REMARK 923 INTER-LIGAND FREE ENERGY PREDICTED BY IDOCK:   -1.84 KCAL/MOL
REMARK 924 INTRA-LIGAND FREE ENERGY PREDICTED BY IDOCK:   -0.25 KCAL/MOL
REMARK 927      BINDING AFFINITY PREDICTED BY RF-SCORE:    0.00 PKD
ROOT
HETATM    1  C   UNL     1      -8.486   9.178  66.706  1.00  0.00    -0.125 C  
HETATM    2  C   UNL     1      -8.814   8.047  66.954  1.00  0.00    -0.146 C  
ENDROOT
BRANCH   2   3
HETATM    3  C   UNL     1      -9.102   6.637  67.232  1.00  0.00    -0.118 C  
BRANCH   3   4
HETATM    4  N   UNL     1      -9.215   6.402  68.667  1.00  0.00    -0.126 NA 
HETATM    5  H   UNL     1      -9.234   5.404  68.873  1.00  0.00     0.000 HD 
BRANCH   4   6
HETATM    6  C   UNL     1      -8.163   7.079  69.437  1.00  0.00    -0.132 C  
HETATM    7  C   UNL     1      -6.895   6.187  69.483  1.00  0.00    -0.065 C  
HETATM    8  C   UNL     1      -6.723   5.621  70.901  1.00  0.00    -0.049 C  
HETATM    9  C   UNL     1      -7.731   6.379  71.698  1.00  0.00    -0.100 A  
HETATM   10  C   UNL     1      -7.961   6.277  73.061  1.00  0.00    -0.107 A  
HETATM   11  C   UNL     1      -8.965   7.063  73.633  1.00  0.00    -0.188 A  
HETATM   12  C   UNL     1      -9.686   7.968  72.849  1.00  0.00    -0.353 A  
HETATM   13  C   UNL     1      -9.428   8.078  71.482  1.00  0.00    -0.204 A  
HETATM   14  C   UNL     1      -8.486   7.239  70.900  1.00  0.00    -0.128 A  
ENDBRANCH   4   6
ENDBRANCH   3   4
ENDBRANCH   2   3
TORSDOF 3
ENDMDL
MODEL      279
REMARK 921   NORMALIZED FREE ENERGY PREDICTED BY IDOCK:   -1.51 KCAL/MOL
REMARK 922        TOTAL FREE ENERGY PREDICTED BY IDOCK:   -2.07 KCAL/MOL
REMARK 923 INTER-LIGAND FREE ENERGY PREDICTED BY IDOCK:   -1.84 KCAL/MOL
REMARK 924 INTRA-LIGAND FREE ENERGY PREDICTED BY IDOCK:   -0.22 KCAL/MOL
REMARK 927      BINDING AFFINITY PREDICTED BY RF-SCORE:    0.00 PKD
ROOT
HETATM    1  C   UNL     1      -9.563   2.767  71.576  1.00  0.00    -0.221 C  
HETATM    2  C   UNL     1      -8.996   2.992  70.539  1.00  0.00    -0.169 C  
ENDROOT
BRANCH   2   3
HETATM    3  C   UNL     1      -8.231   3.179  69.304  1.00  0.00    -0.059 C  
BRANCH   3   4
HETATM    4  N   UNL     1      -8.402   4.532  68.785  1.00  0.00    -0.081 NA 
HETATM    5  H   UNL     1      -7.501   4.956  68.568  1.00  0.00     0.000 HD 
BRANCH   4   6
HETATM    6  C   UNL     1      -9.303   4.586  67.626  1.00  0.00    -0.147 C  
HETATM    7  C   UNL     1      -8.943   3.449  66.633  1.00  0.00    -0.162 C  
HETATM    8  C   UNL     1      -8.286   4.056  65.384  1.00  0.00    -0.109 C  
HETATM    9  C   UNL     1      -8.500   5.522  65.560  1.00  0.00    -0.144 A  
HETATM   10  C   UNL     1      -8.130   6.529  64.682  1.00  0.00    -0.092 A  
HETATM   11  C   UNL     1      -8.403   7.854  65.027  1.00  0.00    -0.111 A  
HETATM   12  C   UNL     1      -9.080   8.150  66.214  1.00  0.00    -0.231 A  
HETATM   13  C   UNL     1      -9.468   7.126  67.078  1.00  0.00    -0.192 A  
HETATM   14  C   UNL     1      -9.125   5.814  66.773  1.00  0.00    -0.126 A  
ENDBRANCH   4   6
ENDBRANCH   3   4
ENDBRANCH   2   3
TORSDOF 3
ENDMDL
MODEL      280
REMARK 921   NORMALIZED FREE ENERGY PREDICTED BY IDOCK:   -1.47 KCAL/MOL
REMARK 922        TOTAL FREE ENERGY PREDICTED BY IDOCK:   -2.02 KCAL/MOL
REMARK 923 INTER-LIGAND FREE ENERGY PREDICTED BY IDOCK:   -1.77 KCAL/MOL
REMARK 924 INTRA-LIGAND FREE ENERGY PREDICTED BY IDOCK:   -0.25 KCAL/MOL
REMARK 927      BINDING AFFINITY PREDICTED BY RF-SCORE:    0.00 PKD
ROOT
HETATM    1  C   UNL     1     -12.167   1.599  73.311  1.00  0.00    -0.100 C  
HETATM    2  C   UNL     1     -11.393   2.391  73.782  1.00  0.00    -0.275 C  
ENDROOT
BRANCH   2   3
HETATM    3  C   UNL     1     -10.393   3.353  74.254  1.00  0.00    -0.189 C  
BRANCH   3   4
HETATM    4  N   UNL     1     -10.427   4.573  73.455  1.00  0.00    -0.181 NA 
HETATM    5  H   UNL     1     -10.842   5.342  73.980  1.00  0.00     0.000 HD 
BRANCH   4   6
HETATM    6  C   UNL     1      -9.107   4.945  72.929  1.00  0.00    -0.121 C  
HETATM    7  C   UNL     1      -9.122   6.432  72.489  1.00  0.00    -0.136 C  
HETATM    8  C   UNL     1      -9.079   6.507  70.955  1.00  0.00    -0.154 C  
HETATM    9  C   UNL     1      -8.794   5.100  70.549  1.00  0.00    -0.142 A  
HETATM   10  C   UNL     1      -8.615   4.626  69.259  1.00  0.00    -0.101 A  
HETATM   11  C   UNL     1      -8.368   3.264  69.072  1.00  0.00    -0.083 A  
HETATM   12  C   UNL     1      -8.257   2.409  70.173  1.00  0.00    -0.064 A  
HETATM   13  C   UNL     1      -8.416   2.903  71.468  1.00  0.00    -0.090 A  
HETATM   14  C   UNL     1      -8.742   4.242  71.648  1.00  0.00    -0.136 A  
ENDBRANCH   4   6
ENDBRANCH   3   4
ENDBRANCH   2   3
TORSDOF 3
ENDMDL
MODEL      281
REMARK 921   NORMALIZED FREE ENERGY PREDICTED BY IDOCK:   -1.46 KCAL/MOL
REMARK 922        TOTAL FREE ENERGY PREDICTED BY IDOCK:   -2.01 KCAL/MOL
REMARK 923 INTER-LIGAND FREE ENERGY PREDICTED BY IDOCK:   -1.58 KCAL/MOL
REMARK 924 INTRA-LIGAND FREE ENERGY PREDICTED BY IDOCK:   -0.43 KCAL/MOL
REMARK 927      BINDING AFFINITY PREDICTED BY RF-SCORE:    0.00 PKD
ROOT
HETATM    1  C   UNL     1      -9.209   9.969  66.566  1.00  0.00    -0.182 C  
HETATM    2  C   UNL     1      -9.846   9.057  67.023  1.00  0.00    -0.270 C  
ENDROOT
BRANCH   2   3
HETATM    3  C   UNL     1     -10.541   7.872  67.534  1.00  0.00    -0.242 C  
BRANCH   3   4
HETATM    4  N   UNL     1      -9.961   7.434  68.799  1.00  0.00    -0.165 NA 
HETATM    5  H   UNL     1     -10.496   6.663  69.199  1.00  0.00     0.000 HD 
BRANCH   4   6
HETATM    6  C   UNL     1      -8.540   7.083  68.681  1.00  0.00    -0.120 C  
HETATM    7  C   UNL     1      -8.351   5.569  68.963  1.00  0.00    -0.102 C  
HETATM    8  C   UNL     1      -7.656   5.389  70.321  1.00  0.00    -0.076 C  
HETATM    9  C   UNL     1      -7.237   6.774  70.680  1.00  0.00    -0.070 A  
HETATM   10  C   UNL     1      -6.527   7.165  71.805  1.00  0.00    -0.047 A  
HETATM   11  C   UNL     1      -6.236   8.520  71.978  1.00  0.00    -0.069 A  
HETATM   12  C   UNL     1      -6.614   9.453  71.009  1.00  0.00    -0.081 A  
HETATM   13  C   UNL     1      -7.308   9.045  69.869  1.00  0.00    -0.060 A  
HETATM   14  C   UNL     1      -7.667   7.709  69.737  1.00  0.00    -0.098 A  
ENDBRANCH   4   6
ENDBRANCH   3   4
ENDBRANCH   2   3
TORSDOF 3
ENDMDL
MODEL      282
REMARK 921   NORMALIZED FREE ENERGY PREDICTED BY IDOCK:   -1.43 KCAL/MOL
REMARK 922        TOTAL FREE ENERGY PREDICTED BY IDOCK:   -1.98 KCAL/MOL
REMARK 923 INTER-LIGAND FREE ENERGY PREDICTED BY IDOCK:   -1.75 KCAL/MOL
REMARK 924 INTRA-LIGAND FREE ENERGY PREDICTED BY IDOCK:   -0.22 KCAL/MOL
REMARK 927      BINDING AFFINITY PREDICTED BY RF-SCORE:    0.00 PKD
ROOT
HETATM    1  C   UNL     1      -7.228  10.053  64.457  1.00  0.00    -0.139 C  
HETATM    2  C   UNL     1      -6.735   9.374  65.320  1.00  0.00    -0.079 C  
ENDROOT
BRANCH   2   3
HETATM    3  C   UNL     1      -6.191   8.616  66.449  1.00  0.00    -0.060 C  
BRANCH   3   4
HETATM    4  N   UNL     1      -7.237   8.297  67.415  1.00  0.00    -0.083 NA 
HETATM    5  H   UNL     1      -8.154   8.282  66.969  1.00  0.00     0.000 HD 
BRANCH   4   6
HETATM    6  C   UNL     1      -6.982   7.044  68.137  1.00  0.00    -0.080 C  
HETATM    7  C   UNL     1      -6.747   5.896  67.120  1.00  0.00    -0.061 C  
HETATM    8  C   UNL     1      -7.957   4.949  67.137  1.00  0.00    -0.099 C  
HETATM    9  C   UNL     1      -8.742   5.415  68.316  1.00  0.00    -0.101 A  
HETATM   10  C   UNL     1      -9.919   4.866  68.803  1.00  0.00    -0.206 A  
HETATM   11  C   UNL     1     -10.522   5.451  69.919  1.00  0.00    -0.378 A  
HETATM   12  C   UNL     1      -9.920   6.539  70.557  1.00  0.00    -0.206 A  
HETATM   13  C   UNL     1      -8.724   7.068  70.072  1.00  0.00    -0.142 A  
HETATM   14  C   UNL     1      -8.167   6.536  68.915  1.00  0.00    -0.119 A  
ENDBRANCH   4   6
ENDBRANCH   3   4
ENDBRANCH   2   3
TORSDOF 3
ENDMDL
MODEL      283
REMARK 921   NORMALIZED FREE ENERGY PREDICTED BY IDOCK:   -1.37 KCAL/MOL
REMARK 922        TOTAL FREE ENERGY PREDICTED BY IDOCK:   -1.91 KCAL/MOL
REMARK 923 INTER-LIGAND FREE ENERGY PREDICTED BY IDOCK:   -1.81 KCAL/MOL
REMARK 924 INTRA-LIGAND FREE ENERGY PREDICTED BY IDOCK:   -0.09 KCAL/MOL
REMARK 927      BINDING AFFINITY PREDICTED BY RF-SCORE:    0.00 PKD
ROOT
HETATM    1  C   UNL     1      -9.261   1.718  71.149  1.00  0.00    -0.166 C  
HETATM    2  C   UNL     1      -8.648   2.486  70.455  1.00  0.00    -0.102 C  
ENDROOT
BRANCH   2   3
HETATM    3  C   UNL     1      -7.910   3.343  69.522  1.00  0.00    -0.050 C  
BRANCH   3   4
HETATM    4  N   UNL     1      -7.375   4.516  70.205  1.00  0.00    -0.049 NA 
HETATM    5  H   UNL     1      -6.367   4.587  70.072  1.00  0.00     0.000 HD 
BRANCH   4   6
HETATM    6  C   UNL     1      -8.048   5.759  69.809  1.00  0.00    -0.104 C  
HETATM    7  C   UNL     1      -9.288   5.992  70.712  1.00  0.00    -0.169 C  
HETATM    8  C   UNL     1     -10.565   5.754  69.890  1.00  0.00    -0.388 C  
HETATM    9  C   UNL     1     -10.058   5.637  68.493  1.00  0.00    -0.236 A  
HETATM   10  C   UNL     1     -10.815   5.455  67.345  1.00  0.00    -0.024 A  
HETATM   11  C   UNL     1     -10.158   5.353  66.117  1.00  0.00    -0.173 A  
HETATM   12  C   UNL     1      -8.767   5.480  66.047  1.00  0.00    -0.141 A  
HETATM   13  C   UNL     1      -8.019   5.686  67.206  1.00  0.00    -0.102 A  
HETATM   14  C   UNL     1      -8.666   5.707  68.436  1.00  0.00    -0.109 A  
ENDBRANCH   4   6
ENDBRANCH   3   4
ENDBRANCH   2   3
TORSDOF 3
ENDMDL
MODEL      284
REMARK 921   NORMALIZED FREE ENERGY PREDICTED BY IDOCK:   -1.36 KCAL/MOL
REMARK 922        TOTAL FREE ENERGY PREDICTED BY IDOCK:   -1.89 KCAL/MOL
REMARK 923 INTER-LIGAND FREE ENERGY PREDICTED BY IDOCK:   -1.83 KCAL/MOL
REMARK 924 INTRA-LIGAND FREE ENERGY PREDICTED BY IDOCK:   -0.06 KCAL/MOL
REMARK 927      BINDING AFFINITY PREDICTED BY RF-SCORE:    0.00 PKD
ROOT
HETATM    1  C   UNL     1      -8.131   5.813  63.811  1.00  0.00    -0.108 C  
HETATM    2  C   UNL     1      -8.278   5.944  64.998  1.00  0.00    -0.138 C  
ENDROOT
BRANCH   2   3
HETATM    3  C   UNL     1      -8.416   6.213  66.432  1.00  0.00    -0.123 C  
BRANCH   3   4
HETATM    4  N   UNL     1      -7.546   7.310  66.842  1.00  0.00    -0.103 NA 
HETATM    5  H   UNL     1      -7.998   8.211  66.689  1.00  0.00     0.000 HD 
BRANCH   4   6
HETATM    6  C   UNL     1      -7.085   7.181  68.230  1.00  0.00    -0.082 C  
HETATM    7  C   UNL     1      -7.204   5.702  68.683  1.00  0.00    -0.078 C  
HETATM    8  C   UNL     1      -8.354   5.573  69.694  1.00  0.00    -0.102 C  
HETATM    9  C   UNL     1      -8.711   6.990  69.992  1.00  0.00    -0.142 A  
HETATM   10  C   UNL     1      -9.673   7.435  70.885  1.00  0.00    -0.169 A  
HETATM   11  C   UNL     1      -9.877   8.810  71.022  1.00  0.00    -0.293 A  
HETATM   12  C   UNL     1      -9.089   9.716  70.304  1.00  0.00    -0.272 A  
HETATM   13  C   UNL     1      -8.108   9.255  69.426  1.00  0.00    -0.108 A  
HETATM   14  C   UNL     1      -7.961   7.887  69.231  1.00  0.00    -0.117 A  
ENDBRANCH   4   6
ENDBRANCH   3   4
ENDBRANCH   2   3
TORSDOF 3
ENDMDL
MODEL      285
REMARK 921   NORMALIZED FREE ENERGY PREDICTED BY IDOCK:   -1.34 KCAL/MOL
REMARK 922        TOTAL FREE ENERGY PREDICTED BY IDOCK:   -1.87 KCAL/MOL
REMARK 923 INTER-LIGAND FREE ENERGY PREDICTED BY IDOCK:   -1.81 KCAL/MOL
REMARK 924 INTRA-LIGAND FREE ENERGY PREDICTED BY IDOCK:   -0.06 KCAL/MOL
REMARK 927      BINDING AFFINITY PREDICTED BY RF-SCORE:    0.00 PKD
ROOT
HETATM    1  C   UNL     1      -7.201   2.936  63.244  1.00  0.00    -0.049 C  
HETATM    2  C   UNL     1      -7.305   2.947  64.443  1.00  0.00    -0.069 C  
ENDROOT
BRANCH   2   3
HETATM    3  C   UNL     1      -7.393   3.071  65.900  1.00  0.00    -0.072 C  
BRANCH   3   4
HETATM    4  N   UNL     1      -6.563   4.171  66.380  1.00  0.00    -0.041 NA 
HETATM    5  H   UNL     1      -6.403   4.856  65.643  1.00  0.00     0.000 HD 
BRANCH   4   6
HETATM    6  C   UNL     1      -7.108   4.810  67.585  1.00  0.00    -0.062 C  
HETATM    7  C   UNL     1      -7.878   3.760  68.429  1.00  0.00    -0.068 C  
HETATM    8  C   UNL     1      -9.385   4.041  68.336  1.00  0.00    -0.218 C  
HETATM    9  C   UNL     1      -9.447   5.369  67.659  1.00  0.00    -0.132 A  
HETATM   10  C   UNL     1     -10.586   6.102  67.366  1.00  0.00    -0.352 A  
HETATM   11  C   UNL     1     -10.446   7.328  66.711  1.00  0.00    -0.311 A  
HETATM   12  C   UNL     1      -9.176   7.822  66.402  1.00  0.00    -0.229 A  
HETATM   13  C   UNL     1      -8.035   7.085  66.722  1.00  0.00    -0.108 A  
HETATM   14  C   UNL     1      -8.179   5.830  67.301  1.00  0.00    -0.102 A  
ENDBRANCH   4   6
ENDBRANCH   3   4
ENDBRANCH   2   3
TORSDOF 3
ENDMDL
MODEL      286
REMARK 921   NORMALIZED FREE ENERGY PREDICTED BY IDOCK:   -1.33 KCAL/MOL
REMARK 922        TOTAL FREE ENERGY PREDICTED BY IDOCK:   -1.85 KCAL/MOL
REMARK 923 INTER-LIGAND FREE ENERGY PREDICTED BY IDOCK:   -1.74 KCAL/MOL
REMARK 924 INTRA-LIGAND FREE ENERGY PREDICTED BY IDOCK:   -0.11 KCAL/MOL
REMARK 927      BINDING AFFINITY PREDICTED BY RF-SCORE:    0.00 PKD
ROOT
HETATM    1  C   UNL     1      -6.636   5.696  71.937  1.00  0.00    -0.057 C  
HETATM    2  C   UNL     1      -6.414   6.023  70.801  1.00  0.00    -0.040 C  
ENDROOT
BRANCH   2   3
HETATM    3  C   UNL     1      -6.030   6.418  69.443  1.00  0.00    -0.021 C  
BRANCH   3   4
HETATM    4  N   UNL     1      -6.287   5.339  68.495  1.00  0.00    -0.034 NA 
HETATM    5  H   UNL     1      -6.969   4.680  68.868  1.00  0.00     0.000 HD 
BRANCH   4   6
HETATM    6  C   UNL     1      -6.697   5.830  67.173  1.00  0.00    -0.062 C  
HETATM    7  C   UNL     1      -6.181   7.279  66.972  1.00  0.00    -0.046 C  
HETATM    8  C   UNL     1      -7.367   8.253  67.030  1.00  0.00    -0.084 C  
HETATM    9  C   UNL     1      -8.554   7.351  67.013  1.00  0.00    -0.119 A  
HETATM   10  C   UNL     1      -9.888   7.730  67.009  1.00  0.00    -0.286 A  
HETATM   11  C   UNL     1     -10.869   6.736  67.006  1.00  0.00    -0.453 A  
HETATM   12  C   UNL     1     -10.506   5.386  66.959  1.00  0.00    -0.319 A  
HETATM   13  C   UNL     1      -9.161   5.018  66.939  1.00  0.00    -0.117 A  
HETATM   14  C   UNL     1      -8.186   6.006  67.024  1.00  0.00    -0.105 A  
ENDBRANCH   4   6
ENDBRANCH   3   4
ENDBRANCH   2   3
TORSDOF 3
ENDMDL
MODEL      287
REMARK 921   NORMALIZED FREE ENERGY PREDICTED BY IDOCK:   -1.31 KCAL/MOL
REMARK 922        TOTAL FREE ENERGY PREDICTED BY IDOCK:   -1.83 KCAL/MOL
REMARK 923 INTER-LIGAND FREE ENERGY PREDICTED BY IDOCK:   -1.89 KCAL/MOL
REMARK 924 INTRA-LIGAND FREE ENERGY PREDICTED BY IDOCK:    0.06 KCAL/MOL
REMARK 927      BINDING AFFINITY PREDICTED BY RF-SCORE:    0.00 PKD
ROOT
HETATM    1  C   UNL     1      -8.925   3.630  65.303  1.00  0.00    -0.135 C  
HETATM    2  C   UNL     1      -9.231   4.276  66.271  1.00  0.00    -0.146 C  
ENDROOT
BRANCH   2   3
HETATM    3  C   UNL     1      -9.572   5.159  67.389  1.00  0.00    -0.139 C  
BRANCH   3   4
HETATM    4  N   UNL     1     -10.149   4.401  68.494  1.00  0.00     0.007 NA 
HETATM    5  H   UNL     1      -9.740   3.469  68.550  1.00  0.00     0.000 HD 
BRANCH   4   6
HETATM    6  C   UNL     1     -10.041   5.101  69.780  1.00  0.00    -0.266 C  
HETATM    7  C   UNL     1     -11.098   6.235  69.847  1.00  0.00    -0.469 C  
HETATM    8  C   UNL     1     -10.390   7.595  69.739  1.00  0.00    -0.223 C  
HETATM    9  C   UNL     1      -8.946   7.242  69.862  1.00  0.00    -0.142 A  
HETATM   10  C   UNL     1      -7.872   8.119  69.868  1.00  0.00    -0.104 A  
HETATM   11  C   UNL     1      -6.581   7.598  69.979  1.00  0.00    -0.038 A  
HETATM   12  C   UNL     1      -6.385   6.222  70.129  1.00  0.00    -0.039 A  
HETATM   13  C   UNL     1      -7.475   5.352  70.145  1.00  0.00    -0.069 A  
HETATM   14  C   UNL     1      -8.753   5.863  69.954  1.00  0.00    -0.129 A  
ENDBRANCH   4   6
ENDBRANCH   3   4
ENDBRANCH   2   3
TORSDOF 3
ENDMDL
MODEL      288
REMARK 921   NORMALIZED FREE ENERGY PREDICTED BY IDOCK:   -1.30 KCAL/MOL
REMARK 922        TOTAL FREE ENERGY PREDICTED BY IDOCK:   -1.81 KCAL/MOL
REMARK 923 INTER-LIGAND FREE ENERGY PREDICTED BY IDOCK:   -1.65 KCAL/MOL
REMARK 924 INTRA-LIGAND FREE ENERGY PREDICTED BY IDOCK:   -0.17 KCAL/MOL
REMARK 927      BINDING AFFINITY PREDICTED BY RF-SCORE:    0.00 PKD
ROOT
HETATM    1  C   UNL     1      -7.947   4.638  63.678  1.00  0.00    -0.091 C  
HETATM    2  C   UNL     1      -7.609   4.783  64.824  1.00  0.00    -0.077 C  
ENDROOT
BRANCH   2   3
HETATM    3  C   UNL     1      -7.088   4.936  66.185  1.00  0.00    -0.072 C  
BRANCH   3   4
HETATM    4  N   UNL     1      -7.140   6.331  66.609  1.00  0.00    -0.067 NA 
HETATM    5  H   UNL     1      -6.505   6.905  66.055  1.00  0.00     0.000 HD 
BRANCH   4   6
HETATM    6  C   UNL     1      -8.501   6.881  66.587  1.00  0.00    -0.121 C  
HETATM    7  C   UNL     1      -8.616   7.946  65.465  1.00  0.00    -0.139 C  
HETATM    8  C   UNL     1      -8.716   9.342  66.099  1.00  0.00    -0.169 C  
HETATM    9  C   UNL     1      -8.906   9.048  67.549  1.00  0.00    -0.128 A  
HETATM   10  C   UNL     1      -9.093   9.970  68.568  1.00  0.00    -0.127 A  
HETATM   11  C   UNL     1      -9.241   9.505  69.876  1.00  0.00    -0.242 A  
HETATM   12  C   UNL     1      -9.248   8.132  70.140  1.00  0.00    -0.155 A  
HETATM   13  C   UNL     1      -9.084   7.213  69.104  1.00  0.00    -0.137 A  
HETATM   14  C   UNL     1      -8.856   7.679  67.814  1.00  0.00    -0.125 A  
ENDBRANCH   4   6
ENDBRANCH   3   4
ENDBRANCH   2   3
TORSDOF 3
ENDMDL
MODEL      289
REMARK 921   NORMALIZED FREE ENERGY PREDICTED BY IDOCK:   -1.28 KCAL/MOL
REMARK 922        TOTAL FREE ENERGY PREDICTED BY IDOCK:   -1.80 KCAL/MOL
REMARK 923 INTER-LIGAND FREE ENERGY PREDICTED BY IDOCK:   -1.57 KCAL/MOL
REMARK 924 INTRA-LIGAND FREE ENERGY PREDICTED BY IDOCK:   -0.23 KCAL/MOL
REMARK 927      BINDING AFFINITY PREDICTED BY RF-SCORE:    0.00 PKD
ROOT
HETATM    1  C   UNL     1     -10.089   7.373  68.958  1.00  0.00    -0.193 C  
HETATM    2  C   UNL     1      -9.031   6.981  68.540  1.00  0.00    -0.122 C  
ENDROOT
BRANCH   2   3
HETATM    3  C   UNL     1      -7.793   6.397  68.018  1.00  0.00    -0.105 C  
BRANCH   3   4
HETATM    4  N   UNL     1      -7.760   6.463  66.561  1.00  0.00    -0.098 NA 
HETATM    5  H   UNL     1      -8.696   6.600  66.180  1.00  0.00     0.000 HD 
BRANCH   4   6
HETATM    6  C   UNL     1      -6.833   7.485  66.060  1.00  0.00    -0.057 C  
HETATM    7  C   UNL     1      -6.429   8.435  67.218  1.00  0.00    -0.058 C  
HETATM    8  C   UNL     1      -7.094   9.804  67.007  1.00  0.00    -0.086 C  
HETATM    9  C   UNL     1      -7.656   9.705  65.629  1.00  0.00    -0.107 A  
HETATM   10  C   UNL     1      -8.329  10.695  64.931  1.00  0.00    -0.085 A  
HETATM   11  C   UNL     1      -8.798  10.411  63.646  1.00  0.00    -0.222 A  
HETATM   12  C   UNL     1      -8.548   9.165  63.063  1.00  0.00    -0.196 A  
HETATM   13  C   UNL     1      -7.849   8.184  63.767  1.00  0.00    -0.147 A  
HETATM   14  C   UNL     1      -7.453   8.440  65.074  1.00  0.00    -0.089 A  
ENDBRANCH   4   6
ENDBRANCH   3   4
ENDBRANCH   2   3
TORSDOF 3
ENDMDL
MODEL      290
REMARK 921   NORMALIZED FREE ENERGY PREDICTED BY IDOCK:   -1.26 KCAL/MOL
REMARK 922        TOTAL FREE ENERGY PREDICTED BY IDOCK:   -1.77 KCAL/MOL
REMARK 923 INTER-LIGAND FREE ENERGY PREDICTED BY IDOCK:   -1.57 KCAL/MOL
REMARK 924 INTRA-LIGAND FREE ENERGY PREDICTED BY IDOCK:   -0.20 KCAL/MOL
REMARK 927      BINDING AFFINITY PREDICTED BY RF-SCORE:    0.00 PKD
ROOT
HETATM    1  C   UNL     1     -10.166   7.703  66.815  1.00  0.00    -0.333 C  
HETATM    2  C   UNL     1      -9.905   7.147  67.850  1.00  0.00    -0.170 C  
ENDROOT
BRANCH   2   3
HETATM    3  C   UNL     1      -9.681   6.403  69.092  1.00  0.00    -0.136 C  
BRANCH   3   4
HETATM    4  N   UNL     1      -9.206   5.052  68.812  1.00  0.00    -0.116 NA 
HETATM    5  H   UNL     1      -8.217   5.057  68.562  1.00  0.00     0.000 HD 
BRANCH   4   6
HETATM    6  C   UNL     1      -9.465   4.119  69.916  1.00  0.00    -0.195 C  
HETATM    7  C   UNL     1      -9.846   4.914  71.192  1.00  0.00    -0.261 C  
HETATM    8  C   UNL     1      -8.691   4.836  72.202  1.00  0.00    -0.131 C  
HETATM    9  C   UNL     1      -7.784   3.811  71.610  1.00  0.00    -0.061 A  
HETATM   10  C   UNL     1      -6.601   3.333  72.152  1.00  0.00    -0.015 A  
HETATM   11  C   UNL     1      -5.874   2.377  71.439  1.00  0.00    -0.013 A  
HETATM   12  C   UNL     1      -6.360   1.880  70.226  1.00  0.00    -0.024 A  
HETATM   13  C   UNL     1      -7.564   2.352  69.702  1.00  0.00    -0.043 A  
HETATM   14  C   UNL     1      -8.246   3.361  70.372  1.00  0.00    -0.072 A  
ENDBRANCH   4   6
ENDBRANCH   3   4
ENDBRANCH   2   3
TORSDOF 3
ENDMDL
MODEL      291
REMARK 921   NORMALIZED FREE ENERGY PREDICTED BY IDOCK:   -1.25 KCAL/MOL
REMARK 922        TOTAL FREE ENERGY PREDICTED BY IDOCK:   -1.76 KCAL/MOL
REMARK 923 INTER-LIGAND FREE ENERGY PREDICTED BY IDOCK:   -1.96 KCAL/MOL
REMARK 924 INTRA-LIGAND FREE ENERGY PREDICTED BY IDOCK:    0.20 KCAL/MOL
REMARK 927      BINDING AFFINITY PREDICTED BY RF-SCORE:    0.00 PKD
ROOT
HETATM    1  C   UNL     1     -10.403   8.555  68.805  1.00  0.00    -0.233 C  
HETATM    2  C   UNL     1     -10.427   7.362  68.654  1.00  0.00    -0.211 C  
ENDROOT
BRANCH   2   3
HETATM    3  C   UNL     1     -10.570   5.912  68.503  1.00  0.00    -0.252 C  
BRANCH   3   4
HETATM    4  N   UNL     1     -10.873   5.559  67.120  1.00  0.00    -0.369 NA 
HETATM    5  H   UNL     1     -11.446   6.278  66.677  1.00  0.00     0.000 HD 
BRANCH   4   6
HETATM    6  C   UNL     1      -9.669   5.283  66.327  1.00  0.00    -0.169 C  
HETATM    7  C   UNL     1     -10.037   4.392  65.112  1.00  0.00    -0.193 C  
HETATM    8  C   UNL     1      -9.478   2.978  65.332  1.00  0.00    -0.066 C  
HETATM    9  C   UNL     1      -8.600   3.137  66.527  1.00  0.00    -0.119 A  
HETATM   10  C   UNL     1      -7.819   2.159  67.123  1.00  0.00    -0.066 A  
HETATM   11  C   UNL     1      -7.068   2.494  68.252  1.00  0.00    -0.048 A  
HETATM   12  C   UNL     1      -7.070   3.805  68.738  1.00  0.00    -0.050 A  
HETATM   13  C   UNL     1      -7.842   4.787  68.115  1.00  0.00    -0.082 A  
HETATM   14  C   UNL     1      -8.651   4.433  67.041  1.00  0.00    -0.104 A  
ENDBRANCH   4   6
ENDBRANCH   3   4
ENDBRANCH   2   3
TORSDOF 3
ENDMDL
MODEL      292
REMARK 921   NORMALIZED FREE ENERGY PREDICTED BY IDOCK:   -1.25 KCAL/MOL
REMARK 922        TOTAL FREE ENERGY PREDICTED BY IDOCK:   -1.76 KCAL/MOL
REMARK 923 INTER-LIGAND FREE ENERGY PREDICTED BY IDOCK:   -1.86 KCAL/MOL
REMARK 924 INTRA-LIGAND FREE ENERGY PREDICTED BY IDOCK:    0.11 KCAL/MOL
REMARK 927      BINDING AFFINITY PREDICTED BY RF-SCORE:    0.00 PKD
ROOT
HETATM    1  C   UNL     1     -10.437   8.530  68.812  1.00  0.00    -0.208 C  
HETATM    2  C   UNL     1     -10.442   7.327  68.835  1.00  0.00    -0.216 C  
ENDROOT
BRANCH   2   3
HETATM    3  C   UNL     1     -10.565   5.867  68.860  1.00  0.00    -0.288 C  
BRANCH   3   4
HETATM    4  N   UNL     1     -10.087   5.282  67.612  1.00  0.00    -0.172 NA 
HETATM    5  H   UNL     1      -9.842   6.007  66.939  1.00  0.00     0.000 HD 
BRANCH   4   6
HETATM    6  C   UNL     1      -8.969   4.351  67.814  1.00  0.00    -0.118 C  
HETATM    7  C   UNL     1      -9.506   2.897  67.873  1.00  0.00    -0.203 C  
HETATM    8  C   UNL     1      -9.404   2.376  69.315  1.00  0.00    -0.177 C  
HETATM    9  C   UNL     1      -8.596   3.424  70.003  1.00  0.00    -0.109 A  
HETATM   10  C   UNL     1      -8.178   3.420  71.325  1.00  0.00    -0.074 A  
HETATM   11  C   UNL     1      -7.435   4.503  71.798  1.00  0.00    -0.074 A  
HETATM   12  C   UNL     1      -7.081   5.547  70.937  1.00  0.00    -0.069 A  
HETATM   13  C   UNL     1      -7.487   5.529  69.603  1.00  0.00    -0.070 A  
HETATM   14  C   UNL     1      -8.295   4.490  69.154  1.00  0.00    -0.086 A  
ENDBRANCH   4   6
ENDBRANCH   3   4
ENDBRANCH   2   3
TORSDOF 3
ENDMDL
MODEL      293
REMARK 921   NORMALIZED FREE ENERGY PREDICTED BY IDOCK:   -1.21 KCAL/MOL
REMARK 922        TOTAL FREE ENERGY PREDICTED BY IDOCK:   -1.72 KCAL/MOL
REMARK 923 INTER-LIGAND FREE ENERGY PREDICTED BY IDOCK:   -2.04 KCAL/MOL
REMARK 924 INTRA-LIGAND FREE ENERGY PREDICTED BY IDOCK:    0.32 KCAL/MOL
REMARK 927      BINDING AFFINITY PREDICTED BY RF-SCORE:    0.00 PKD
ROOT
HETATM    1  C   UNL     1     -10.221  13.226  66.679  1.00  0.00    -0.265 C  
HETATM    2  C   UNL     1      -9.967  12.433  67.548  1.00  0.00    -0.196 C  
ENDROOT
BRANCH   2   3
HETATM    3  C   UNL     1      -9.551  11.517  68.613  1.00  0.00    -0.152 C  
BRANCH   3   4
HETATM    4  N   UNL     1     -10.683  10.734  69.098  1.00  0.00    -0.213 NA 
HETATM    5  H   UNL     1     -11.565  11.126  68.770  1.00  0.00     0.000 HD 
BRANCH   4   6
HETATM    6  C   UNL     1     -10.578   9.311  68.752  1.00  0.00    -0.193 C  
HETATM    7  C   UNL     1     -10.783   8.448  70.026  1.00  0.00    -0.236 C  
HETATM    8  C   UNL     1      -9.441   7.823  70.436  1.00  0.00    -0.164 C  
HETATM    9  C   UNL     1      -8.553   8.123  69.276  1.00  0.00    -0.135 A  
HETATM   10  C   UNL     1      -7.229   7.740  69.120  1.00  0.00    -0.082 A  
HETATM   11  C   UNL     1      -6.550   8.129  67.963  1.00  0.00    -0.057 A  
HETATM   12  C   UNL     1      -7.211   8.849  66.964  1.00  0.00    -0.079 A  
HETATM   13  C   UNL     1      -8.550   9.209  67.123  1.00  0.00    -0.122 A  
HETATM   14  C   UNL     1      -9.201   8.891  68.309  1.00  0.00    -0.143 A  
ENDBRANCH   4   6
ENDBRANCH   3   4
ENDBRANCH   2   3
TORSDOF 3
ENDMDL
MODEL      294
REMARK 921   NORMALIZED FREE ENERGY PREDICTED BY IDOCK:   -1.21 KCAL/MOL
REMARK 922        TOTAL FREE ENERGY PREDICTED BY IDOCK:   -1.71 KCAL/MOL
REMARK 923 INTER-LIGAND FREE ENERGY PREDICTED BY IDOCK:   -1.43 KCAL/MOL
REMARK 924 INTRA-LIGAND FREE ENERGY PREDICTED BY IDOCK:   -0.28 KCAL/MOL
REMARK 927      BINDING AFFINITY PREDICTED BY RF-SCORE:    0.00 PKD
ROOT
HETATM    1  C   UNL     1      -9.448   4.432  65.937  1.00  0.00    -0.174 C  
HETATM    2  C   UNL     1      -9.519   5.064  66.958  1.00  0.00    -0.150 C  
ENDROOT
BRANCH   2   3
HETATM    3  C   UNL     1      -9.501   5.881  68.174  1.00  0.00    -0.115 C  
BRANCH   3   4
HETATM    4  N   UNL     1      -9.364   7.297  67.849  1.00  0.00    -0.130 NA 
HETATM    5  H   UNL     1      -9.688   7.882  68.618  1.00  0.00     0.000 HD 
BRANCH   4   6
HETATM    6  C   UNL     1      -7.997   7.658  67.452  1.00  0.00    -0.119 C  
HETATM    7  C   UNL     1      -7.010   7.292  68.592  1.00  0.00    -0.082 C  
HETATM    8  C   UNL     1      -6.506   8.580  69.260  1.00  0.00    -0.042 C  
HETATM    9  C   UNL     1      -7.003   9.655  68.354  1.00  0.00    -0.065 A  
HETATM   10  C   UNL     1      -6.786  11.019  68.481  1.00  0.00    -0.064 A  
HETATM   11  C   UNL     1      -7.348  11.879  67.535  1.00  0.00    -0.132 A  
HETATM   12  C   UNL     1      -8.074  11.366  66.456  1.00  0.00    -0.141 A  
HETATM   13  C   UNL     1      -8.265   9.990  66.326  1.00  0.00    -0.124 A  
HETATM   14  C   UNL     1      -7.775   9.141  67.311  1.00  0.00    -0.095 A  
ENDBRANCH   4   6
ENDBRANCH   3   4
ENDBRANCH   2   3
TORSDOF 3
ENDMDL
MODEL      295
REMARK 921   NORMALIZED FREE ENERGY PREDICTED BY IDOCK:   -1.19 KCAL/MOL
REMARK 922        TOTAL FREE ENERGY PREDICTED BY IDOCK:   -1.69 KCAL/MOL
REMARK 923 INTER-LIGAND FREE ENERGY PREDICTED BY IDOCK:   -1.34 KCAL/MOL
REMARK 924 INTRA-LIGAND FREE ENERGY PREDICTED BY IDOCK:   -0.35 KCAL/MOL
REMARK 927      BINDING AFFINITY PREDICTED BY RF-SCORE:    0.00 PKD
ROOT
HETATM    1  C   UNL     1      -7.946   9.165  70.922  1.00  0.00    -0.192 C  
HETATM    2  C   UNL     1      -7.406   9.729  70.007  1.00  0.00    -0.145 C  
ENDROOT
BRANCH   2   3
HETATM    3  C   UNL     1      -6.743  10.512  68.960  1.00  0.00    -0.063 C  
BRANCH   3   4
HETATM    4  N   UNL     1      -5.856   9.670  68.163  1.00  0.00    -0.040 NA 
HETATM    5  H   UNL     1      -5.581   8.837  68.682  1.00  0.00     0.000 HD 
BRANCH   4   6
HETATM    6  C   UNL     1      -6.432   9.313  66.860  1.00  0.00    -0.067 C  
HETATM    7  C   UNL     1      -7.687  10.183  66.589  1.00  0.00    -0.106 C  
HETATM    8  C   UNL     1      -8.945   9.307  66.701  1.00  0.00    -0.165 C  
HETATM    9  C   UNL     1      -8.394   7.924  66.786  1.00  0.00    -0.120 A  
HETATM   10  C   UNL     1      -9.117   6.743  66.862  1.00  0.00    -0.148 A  
HETATM   11  C   UNL     1      -8.423   5.535  66.949  1.00  0.00    -0.110 A  
HETATM   12  C   UNL     1      -7.025   5.520  66.912  1.00  0.00    -0.065 A  
HETATM   13  C   UNL     1      -6.309   6.713  66.812  1.00  0.00    -0.042 A  
HETATM   14  C   UNL     1      -6.999   7.919  66.806  1.00  0.00    -0.073 A  
ENDBRANCH   4   6
ENDBRANCH   3   4
ENDBRANCH   2   3
TORSDOF 3
ENDMDL
MODEL      296
REMARK 921   NORMALIZED FREE ENERGY PREDICTED BY IDOCK:   -1.18 KCAL/MOL
REMARK 922        TOTAL FREE ENERGY PREDICTED BY IDOCK:   -1.68 KCAL/MOL
REMARK 923 INTER-LIGAND FREE ENERGY PREDICTED BY IDOCK:   -1.69 KCAL/MOL
REMARK 924 INTRA-LIGAND FREE ENERGY PREDICTED BY IDOCK:    0.01 KCAL/MOL
REMARK 927      BINDING AFFINITY PREDICTED BY RF-SCORE:    0.00 PKD
ROOT
HETATM    1  C   UNL     1      -7.510   9.969  64.798  1.00  0.00    -0.143 C  
HETATM    2  C   UNL     1      -7.865  10.093  65.941  1.00  0.00    -0.132 C  
ENDROOT
BRANCH   2   3
HETATM    3  C   UNL     1      -8.363  10.335  67.298  1.00  0.00    -0.121 C  
BRANCH   3   4
HETATM    4  N   UNL     1      -9.571   9.558  67.556  1.00  0.00    -0.141 NA 
HETATM    5  H   UNL     1     -10.220   9.621  66.772  1.00  0.00     0.000 HD 
BRANCH   4   6
HETATM    6  C   UNL     1      -9.284   8.157  67.891  1.00  0.00    -0.131 C  
HETATM    7  C   UNL     1     -10.603   7.427  68.255  1.00  0.00    -0.204 C  
HETATM    8  C   UNL     1     -10.627   7.149  69.766  1.00  0.00    -0.250 C  
HETATM    9  C   UNL     1      -9.242   7.489  70.201  1.00  0.00    -0.154 A  
HETATM   10  C   UNL     1      -8.719   7.375  71.480  1.00  0.00    -0.122 A  
HETATM   11  C   UNL     1      -7.394   7.758  71.701  1.00  0.00    -0.067 A  
HETATM   12  C   UNL     1      -6.602   8.202  70.638  1.00  0.00    -0.037 A  
HETATM   13  C   UNL     1      -7.132   8.290  69.351  1.00  0.00    -0.055 A  
HETATM   14  C   UNL     1      -8.473   7.985  69.148  1.00  0.00    -0.136 A  
ENDBRANCH   4   6
ENDBRANCH   3   4
ENDBRANCH   2   3
TORSDOF 3
ENDMDL
MODEL      297
REMARK 921   NORMALIZED FREE ENERGY PREDICTED BY IDOCK:   -1.17 KCAL/MOL
REMARK 922        TOTAL FREE ENERGY PREDICTED BY IDOCK:   -1.67 KCAL/MOL
REMARK 923 INTER-LIGAND FREE ENERGY PREDICTED BY IDOCK:   -1.40 KCAL/MOL
REMARK 924 INTRA-LIGAND FREE ENERGY PREDICTED BY IDOCK:   -0.27 KCAL/MOL
REMARK 927      BINDING AFFINITY PREDICTED BY RF-SCORE:    0.00 PKD
ROOT
HETATM    1  C   UNL     1      -7.216  10.115  64.432  1.00  0.00    -0.115 C  
HETATM    2  C   UNL     1      -6.740   9.350  65.230  1.00  0.00    -0.079 C  
ENDROOT
BRANCH   2   3
HETATM    3  C   UNL     1      -6.214   8.480  66.285  1.00  0.00    -0.053 C  
BRANCH   3   4
HETATM    4  N   UNL     1      -7.277   8.063  67.194  1.00  0.00    -0.085 NA 
HETATM    5  H   UNL     1      -7.059   7.163  67.622  1.00  0.00     0.000 HD 
BRANCH   4   6
HETATM    6  C   UNL     1      -7.578   9.073  68.217  1.00  0.00    -0.091 C  
HETATM    7  C   UNL     1      -6.276   9.458  68.968  1.00  0.00    -0.042 C  
HETATM    8  C   UNL     1      -6.324   8.883  70.392  1.00  0.00    -0.041 C  
HETATM    9  C   UNL     1      -7.729   8.400  70.521  1.00  0.00    -0.080 A  
HETATM   10  C   UNL     1      -8.312   7.824  71.640  1.00  0.00    -0.125 A  
HETATM   11  C   UNL     1      -9.646   7.418  71.568  1.00  0.00    -0.163 A  
HETATM   12  C   UNL     1     -10.388   7.634  70.403  1.00  0.00    -0.214 A  
HETATM   13  C   UNL     1      -9.797   8.235  69.292  1.00  0.00    -0.186 A  
HETATM   14  C   UNL     1      -8.447   8.566  69.337  1.00  0.00    -0.127 A  
ENDBRANCH   4   6
ENDBRANCH   3   4
ENDBRANCH   2   3
TORSDOF 3
ENDMDL
MODEL      298
REMARK 921   NORMALIZED FREE ENERGY PREDICTED BY IDOCK:   -1.17 KCAL/MOL
REMARK 922        TOTAL FREE ENERGY PREDICTED BY IDOCK:   -1.66 KCAL/MOL
REMARK 923 INTER-LIGAND FREE ENERGY PREDICTED BY IDOCK:   -1.70 KCAL/MOL
REMARK 924 INTRA-LIGAND FREE ENERGY PREDICTED BY IDOCK:    0.04 KCAL/MOL
REMARK 927      BINDING AFFINITY PREDICTED BY RF-SCORE:    0.00 PKD
ROOT
HETATM    1  C   UNL     1     -10.985   6.866  66.885  1.00  0.00    -0.328 C  
HETATM    2  C   UNL     1     -10.472   6.570  67.933  1.00  0.00    -0.273 C  
ENDROOT
BRANCH   2   3
HETATM    3  C   UNL     1      -9.933   6.131  69.223  1.00  0.00    -0.158 C  
BRANCH   3   4
HETATM    4  N   UNL     1      -9.331   4.807  69.112  1.00  0.00    -0.123 NA 
HETATM    5  H   UNL     1      -8.472   4.840  68.564  1.00  0.00     0.000 HD 
BRANCH   4   6
HETATM    6  C   UNL     1      -9.099   4.178  70.418  1.00  0.00    -0.110 C  
HETATM    7  C   UNL     1     -10.293   4.479  71.362  1.00  0.00    -0.117 C  
HETATM    8  C   UNL     1      -9.846   5.476  72.443  1.00  0.00    -0.189 C  
HETATM    9  C   UNL     1      -8.367   5.540  72.262  1.00  0.00    -0.119 A  
HETATM   10  C   UNL     1      -7.466   6.273  73.019  1.00  0.00    -0.096 A  
HETATM   11  C   UNL     1      -6.110   6.219  72.688  1.00  0.00    -0.045 A  
HETATM   12  C   UNL     1      -5.671   5.401  71.643  1.00  0.00    -0.020 A  
HETATM   13  C   UNL     1      -6.584   4.650  70.903  1.00  0.00    -0.031 A  
HETATM   14  C   UNL     1      -7.941   4.767  71.181  1.00  0.00    -0.088 A  
ENDBRANCH   4   6
ENDBRANCH   3   4
ENDBRANCH   2   3
TORSDOF 3
ENDMDL
MODEL      299
REMARK 921   NORMALIZED FREE ENERGY PREDICTED BY IDOCK:   -1.11 KCAL/MOL
REMARK 922        TOTAL FREE ENERGY PREDICTED BY IDOCK:   -1.60 KCAL/MOL
REMARK 923 INTER-LIGAND FREE ENERGY PREDICTED BY IDOCK:   -1.54 KCAL/MOL
REMARK 924 INTRA-LIGAND FREE ENERGY PREDICTED BY IDOCK:   -0.06 KCAL/MOL
REMARK 927      BINDING AFFINITY PREDICTED BY RF-SCORE:    0.00 PKD
ROOT
HETATM    1  C   UNL     1     -10.409   8.480  68.990  1.00  0.00    -0.229 C  
HETATM    2  C   UNL     1      -9.449   7.764  68.881  1.00  0.00    -0.150 C  
ENDROOT
BRANCH   2   3
HETATM    3  C   UNL     1      -8.347   6.802  68.785  1.00  0.00    -0.121 C  
BRANCH   3   4
HETATM    4  N   UNL     1      -7.383   7.214  67.771  1.00  0.00    -0.094 NA 
HETATM    5  H   UNL     1      -6.463   7.366  68.182  1.00  0.00     0.000 HD 
BRANCH   4   6
HETATM    6  C   UNL     1      -7.308   6.274  66.645  1.00  0.00    -0.078 C  
HETATM    7  C   UNL     1      -8.527   6.484  65.708  1.00  0.00    -0.149 C  
HETATM    8  C   UNL     1      -9.486   5.292  65.850  1.00  0.00    -0.156 C  
HETATM    9  C   UNL     1      -8.703   4.314  66.658  1.00  0.00    -0.113 A  
HETATM   10  C   UNL     1      -9.099   3.041  67.039  1.00  0.00    -0.196 A  
HETATM   11  C   UNL     1      -8.229   2.270  67.813  1.00  0.00    -0.074 A  
HETATM   12  C   UNL     1      -6.965   2.760  68.154  1.00  0.00    -0.048 A  
HETATM   13  C   UNL     1      -6.569   4.033  67.746  1.00  0.00    -0.042 A  
HETATM   14  C   UNL     1      -7.465   4.830  67.044  1.00  0.00    -0.086 A  
ENDBRANCH   4   6
ENDBRANCH   3   4
ENDBRANCH   2   3
TORSDOF 3
ENDMDL
MODEL      300
REMARK 921   NORMALIZED FREE ENERGY PREDICTED BY IDOCK:   -1.11 KCAL/MOL
REMARK 922        TOTAL FREE ENERGY PREDICTED BY IDOCK:   -1.60 KCAL/MOL
REMARK 923 INTER-LIGAND FREE ENERGY PREDICTED BY IDOCK:   -1.41 KCAL/MOL
REMARK 924 INTRA-LIGAND FREE ENERGY PREDICTED BY IDOCK:   -0.18 KCAL/MOL
REMARK 927      BINDING AFFINITY PREDICTED BY RF-SCORE:    0.00 PKD
ROOT
HETATM    1  C   UNL     1      -7.527   9.657  66.540  1.00  0.00    -0.094 C  
HETATM    2  C   UNL     1      -8.558   9.153  66.901  1.00  0.00    -0.129 C  
ENDROOT
BRANCH   2   3
HETATM    3  C   UNL     1      -9.858   8.565  67.235  1.00  0.00    -0.199 C  
BRANCH   3   4
HETATM    4  N   UNL     1      -9.751   7.118  67.391  1.00  0.00    -0.141 NA 
HETATM    5  H   UNL     1     -10.240   6.633  66.640  1.00  0.00     0.000 HD 
BRANCH   4   6
HETATM    6  C   UNL     1      -8.359   6.661  67.497  1.00  0.00    -0.121 C  
HETATM    7  C   UNL     1      -8.110   5.512  66.484  1.00  0.00    -0.105 C  
HETATM    8  C   UNL     1      -7.965   4.186  67.246  1.00  0.00    -0.096 C  
HETATM    9  C   UNL     1      -7.884   4.616  68.672  1.00  0.00    -0.079 A  
HETATM   10  C   UNL     1      -7.705   3.800  69.779  1.00  0.00    -0.051 A  
HETATM   11  C   UNL     1      -7.668   4.387  71.046  1.00  0.00    -0.067 A  
HETATM   12  C   UNL     1      -7.760   5.775  71.185  1.00  0.00    -0.109 A  
HETATM   13  C   UNL     1      -7.916   6.587  70.061  1.00  0.00    -0.116 A  
HETATM   14  C   UNL     1      -8.034   5.996  68.809  1.00  0.00    -0.104 A  
ENDBRANCH   4   6
ENDBRANCH   3   4
ENDBRANCH   2   3
TORSDOF 3
ENDMDL
MODEL      301
REMARK 921   NORMALIZED FREE ENERGY PREDICTED BY IDOCK:   -1.03 KCAL/MOL
REMARK 922        TOTAL FREE ENERGY PREDICTED BY IDOCK:   -1.50 KCAL/MOL
REMARK 923 INTER-LIGAND FREE ENERGY PREDICTED BY IDOCK:   -1.28 KCAL/MOL
REMARK 924 INTRA-LIGAND FREE ENERGY PREDICTED BY IDOCK:   -0.22 KCAL/MOL
REMARK 927      BINDING AFFINITY PREDICTED BY RF-SCORE:    0.00 PKD
ROOT
HETATM    1  C   UNL     1      -7.236  10.052  64.458  1.00  0.00    -0.139 C  
HETATM    2  C   UNL     1      -6.791   9.367  65.341  1.00  0.00    -0.079 C  
ENDROOT
BRANCH   2   3
HETATM    3  C   UNL     1      -6.303   8.604  66.493  1.00  0.00    -0.058 C  
BRANCH   3   4
HETATM    4  N   UNL     1      -7.294   7.626  66.928  1.00  0.00    -0.088 NA 
HETATM    5  H   UNL     1      -7.919   7.373  66.163  1.00  0.00     0.000 HD 
BRANCH   4   6
HETATM    6  C   UNL     1      -6.688   6.431  67.529  1.00  0.00    -0.070 C  
HETATM    7  C   UNL     1      -5.663   5.814  66.541  1.00  0.00    -0.017 C  
HETATM    8  C   UNL     1      -6.228   4.500  65.980  1.00  0.00    -0.032 C  
HETATM    9  C   UNL     1      -7.434   4.256  66.822  1.00  0.00    -0.081 A  
HETATM   10  C   UNL     1      -8.291   3.168  66.753  1.00  0.00    -0.092 A  
HETATM   11  C   UNL     1      -9.384   3.119  67.622  1.00  0.00    -0.247 A  
HETATM   12  C   UNL     1      -9.577   4.126  68.572  1.00  0.00    -0.192 A  
HETATM   13  C   UNL     1      -8.694   5.204  68.647  1.00  0.00    -0.098 A  
HETATM   14  C   UNL     1      -7.654   5.292  67.730  1.00  0.00    -0.087 A  
ENDBRANCH   4   6
ENDBRANCH   3   4
ENDBRANCH   2   3
TORSDOF 3
ENDMDL
MODEL      302
REMARK 921   NORMALIZED FREE ENERGY PREDICTED BY IDOCK:   -1.02 KCAL/MOL
REMARK 922        TOTAL FREE ENERGY PREDICTED BY IDOCK:   -1.49 KCAL/MOL
REMARK 923 INTER-LIGAND FREE ENERGY PREDICTED BY IDOCK:   -1.34 KCAL/MOL
REMARK 924 INTRA-LIGAND FREE ENERGY PREDICTED BY IDOCK:   -0.16 KCAL/MOL
REMARK 927      BINDING AFFINITY PREDICTED BY RF-SCORE:    0.00 PKD
ROOT
HETATM    1  C   UNL     1     -10.350   8.530  68.804  1.00  0.00    -0.233 C  
HETATM    2  C   UNL     1     -10.164   7.342  68.770  1.00  0.00    -0.188 C  
ENDROOT
BRANCH   2   3
HETATM    3  C   UNL     1     -10.054   5.881  68.731  1.00  0.00    -0.172 C  
BRANCH   3   4
HETATM    4  N   UNL     1      -9.586   5.428  67.425  1.00  0.00    -0.123 NA 
HETATM    5  H   UNL     1      -9.878   6.071  66.690  1.00  0.00     0.000 HD 
BRANCH   4   6
HETATM    6  C   UNL     1      -8.135   5.208  67.387  1.00  0.00    -0.100 C  
HETATM    7  C   UNL     1      -7.428   6.481  66.851  1.00  0.00    -0.084 C  
HETATM    8  C   UNL     1      -6.895   6.207  65.437  1.00  0.00    -0.048 C  
HETATM    9  C   UNL     1      -7.076   4.736  65.279  1.00  0.00    -0.063 A  
HETATM   10  C   UNL     1      -6.713   3.964  64.186  1.00  0.00    -0.044 A  
HETATM   11  C   UNL     1      -6.977   2.593  64.214  1.00  0.00    -0.044 A  
HETATM   12  C   UNL     1      -7.553   2.008  65.346  1.00  0.00    -0.071 A  
HETATM   13  C   UNL     1      -7.892   2.791  66.450  1.00  0.00    -0.077 A  
HETATM   14  C   UNL     1      -7.703   4.167  66.389  1.00  0.00    -0.090 A  
ENDBRANCH   4   6
ENDBRANCH   3   4
ENDBRANCH   2   3
TORSDOF 3
ENDMDL
MODEL      303
REMARK 921   NORMALIZED FREE ENERGY PREDICTED BY IDOCK:   -1.00 KCAL/MOL
REMARK 922        TOTAL FREE ENERGY PREDICTED BY IDOCK:   -1.47 KCAL/MOL
REMARK 923 INTER-LIGAND FREE ENERGY PREDICTED BY IDOCK:   -1.15 KCAL/MOL
REMARK 924 INTRA-LIGAND FREE ENERGY PREDICTED BY IDOCK:   -0.32 KCAL/MOL
REMARK 927      BINDING AFFINITY PREDICTED BY RF-SCORE:    0.00 PKD
ROOT
HETATM    1  C   UNL     1      -9.773   8.282  65.958  1.00  0.00    -0.100 C  
HETATM    2  C   UNL     1      -9.568   7.982  67.105  1.00  0.00    -0.227 C  
ENDROOT
BRANCH   2   3
HETATM    3  C   UNL     1      -9.276   7.725  68.518  1.00  0.00    -0.137 C  
BRANCH   3   4
HETATM    4  N   UNL     1      -8.117   6.849  68.659  1.00  0.00    -0.119 NA 
HETATM    5  H   UNL     1      -7.918   6.364  67.785  1.00  0.00     0.000 HD 
BRANCH   4   6
HETATM    6  C   UNL     1      -6.928   7.556  69.153  1.00  0.00    -0.072 C  
HETATM    7  C   UNL     1      -7.325   8.483  70.332  1.00  0.00    -0.054 C  
HETATM    8  C   UNL     1      -7.255   9.947  69.872  1.00  0.00    -0.129 C  
HETATM    9  C   UNL     1      -6.592   9.857  68.539  1.00  0.00    -0.054 A  
HETATM   10  C   UNL     1      -6.252  10.912  67.706  1.00  0.00    -0.051 A  
HETATM   11  C   UNL     1      -5.645  10.630  66.480  1.00  0.00    -0.073 A  
HETATM   12  C   UNL     1      -5.345   9.311  66.127  1.00  0.00    -0.037 A  
HETATM   13  C   UNL     1      -5.671   8.260  66.984  1.00  0.00    -0.042 A  
HETATM   14  C   UNL     1      -6.348   8.535  68.167  1.00  0.00    -0.056 A  
ENDBRANCH   4   6
ENDBRANCH   3   4
ENDBRANCH   2   3
TORSDOF 3
ENDMDL
