MODEL        1
REMARK 921   NORMALIZED FREE ENERGY PREDICTED BY IDOCK:   -6.65 KCAL/MOL
REMARK 922        TOTAL FREE ENERGY PREDICTED BY IDOCK:  -10.11 KCAL/MOL
REMARK 923 INTER-LIGAND FREE ENERGY PREDICTED BY IDOCK:   -8.98 KCAL/MOL
REMARK 924 INTRA-LIGAND FREE ENERGY PREDICTED BY IDOCK:   -1.12 KCAL/MOL
REMARK 927      BINDING AFFINITY PREDICTED BY RF-SCORE:    0.00 PKD
ROOT
HETATM    1  C   UNL     1     -11.131  14.930  67.952  1.00  0.00    -0.298 C  
ENDROOT
BRANCH   1   2
HETATM    2  C   UNL     1     -11.416  13.812  66.958  1.00  0.00    -0.368 A  
HETATM    3  C   UNL     1     -10.794  11.691  65.942  1.00  0.00    -0.339 A  
HETATM    4  C   UNL     1     -12.414  13.955  65.978  1.00  0.00    -0.501 A  
HETATM    5  C   UNL     1     -12.578  12.996  64.980  1.00  0.00    -0.515 A  
HETATM    6  C   UNL     1     -11.761  11.867  64.954  1.00  0.00    -0.262 A  
HETATM    7  C   UNL     1     -10.625  12.654  66.940  1.00  0.00    -0.256 A  
ENDBRANCH   1   2
BRANCH   1   8
HETATM    8  O   UNL     1     -10.996  14.313  69.251  1.00  0.00    -0.252 OA 
BRANCH   8   9
HETATM    9  C   UNL     1     -11.985  14.384  70.190  1.00  0.00    -0.322 A  
HETATM   10  C   UNL     1     -13.515  15.566  71.670  1.00  0.00    -0.584 A  
HETATM   11  C   UNL     1     -13.310  13.178  71.838  1.00  0.00    -0.546 A  
HETATM   12  C   UNL     1     -13.864  14.371  72.290  1.00  0.00    -0.589 A  
HETATM   13  C   UNL     1     -12.583  15.572  70.626  1.00  0.00    -0.493 A  
HETATM   14  C   UNL     1     -12.399  13.171  70.774  1.00  0.00    -0.321 A  
BRANCH  14  15
HETATM   15  O   UNL     1     -11.963  11.913  70.437  1.00  0.00    -0.351 OA 
BRANCH  15  16
HETATM   16  C   UNL     1     -12.513  10.841  71.204  1.00  0.00    -0.414 C  
HETATM   17  C   UNL     1     -11.594   9.637  71.064  1.00  0.00    -0.436 C  
ENDBRANCH  15  16
ENDBRANCH  14  15
ENDBRANCH   8   9
ENDBRANCH   1   8
BRANCH   1  18
HETATM   18  C   UNL     1      -9.808  15.711  67.693  1.00  0.00    -0.227 C  
HETATM   19  N   UNL     1     -10.404  17.131  65.665  1.00  0.00    -0.601 NA 
HETATM   20  O   UNL     1      -9.735  16.919  68.489  1.00  0.00    -0.243 OA 
HETATM   21  H   UNL     1     -11.352  16.798  65.488  1.00  0.00     0.000 HD 
HETATM   22  C   UNL     1     -10.382  18.297  66.562  1.00  0.00    -0.392 C  
HETATM   23  C   UNL     1      -9.533  16.072  66.213  1.00  0.00    -0.315 C  
HETATM   24  C   UNL     1     -10.628  17.940  68.035  1.00  0.00    -0.356 C  
ENDBRANCH   1  18
TORSDOF 6
ENDMDL
MODEL        2
REMARK 921   NORMALIZED FREE ENERGY PREDICTED BY IDOCK:   -6.61 KCAL/MOL
REMARK 922        TOTAL FREE ENERGY PREDICTED BY IDOCK:  -10.05 KCAL/MOL
REMARK 923 INTER-LIGAND FREE ENERGY PREDICTED BY IDOCK:   -8.89 KCAL/MOL
REMARK 924 INTRA-LIGAND FREE ENERGY PREDICTED BY IDOCK:   -1.15 KCAL/MOL
REMARK 927      BINDING AFFINITY PREDICTED BY RF-SCORE:    0.00 PKD
ROOT
HETATM    1  C   UNL     1     -11.542  14.919  69.400  1.00  0.00    -0.309 C  
ENDROOT
BRANCH   1   2
HETATM    2  C   UNL     1     -12.257  15.347  70.674  1.00  0.00    -0.431 A  
HETATM    3  C   UNL     1     -12.167  16.161  72.965  1.00  0.00    -0.641 A  
HETATM    4  C   UNL     1     -13.634  15.116  70.841  1.00  0.00    -0.397 A  
HETATM    5  C   UNL     1     -14.259  15.375  72.060  1.00  0.00    -0.650 A  
HETATM    6  C   UNL     1     -13.524  15.887  73.128  1.00  0.00    -0.650 A  
HETATM    7  C   UNL     1     -11.538  15.896  71.746  1.00  0.00    -0.541 A  
ENDBRANCH   1   2
BRANCH   1   8
HETATM    8  O   UNL     1     -12.337  13.872  68.803  1.00  0.00    -0.288 OA 
BRANCH   8   9
HETATM    9  C   UNL     1     -11.910  12.575  68.761  1.00  0.00    -0.303 A  
HETATM   10  C   UNL     1     -11.069  10.517  69.752  1.00  0.00    -0.354 A  
HETATM   11  C   UNL     1     -11.182  10.722  67.360  1.00  0.00    -0.315 A  
HETATM   12  C   UNL     1     -10.840   9.984  68.488  1.00  0.00    -0.270 A  
HETATM   13  C   UNL     1     -11.602  11.804  69.886  1.00  0.00    -0.351 A  
HETATM   14  C   UNL     1     -11.744  11.999  67.487  1.00  0.00    -0.280 A  
BRANCH  14  15
HETATM   15  O   UNL     1     -12.044  12.585  66.281  1.00  0.00    -0.574 OA 
BRANCH  15  16
HETATM   16  C   UNL     1     -11.283  12.125  65.162  1.00  0.00    -0.329 C  
HETATM   17  C   UNL     1     -12.198  12.090  63.948  1.00  0.00    -0.555 C  
ENDBRANCH  15  16
ENDBRANCH  14  15
ENDBRANCH   8   9
ENDBRANCH   1   8
BRANCH   1  18
HETATM   18  C   UNL     1     -11.402  16.037  68.322  1.00  0.00    -0.326 C  
HETATM   19  N   UNL     1      -9.039  16.892  68.732  1.00  0.00    -0.263 NA 
HETATM   20  O   UNL     1     -10.964  15.502  67.049  1.00  0.00    -0.321 OA 
HETATM   21  H   UNL     1      -8.783  16.324  69.539  1.00  0.00     0.000 HD 
HETATM   22  C   UNL     1      -8.663  16.254  67.461  1.00  0.00    -0.181 C  
HETATM   23  C   UNL     1     -10.479  17.217  68.712  1.00  0.00    -0.340 C  
HETATM   24  C   UNL     1      -9.592  15.099  67.057  1.00  0.00    -0.226 C  
ENDBRANCH   1  18
TORSDOF 6
ENDMDL
MODEL        3
REMARK 921   NORMALIZED FREE ENERGY PREDICTED BY IDOCK:   -6.54 KCAL/MOL
REMARK 922        TOTAL FREE ENERGY PREDICTED BY IDOCK:   -9.96 KCAL/MOL
REMARK 923 INTER-LIGAND FREE ENERGY PREDICTED BY IDOCK:   -8.92 KCAL/MOL
REMARK 924 INTRA-LIGAND FREE ENERGY PREDICTED BY IDOCK:   -1.04 KCAL/MOL
REMARK 927      BINDING AFFINITY PREDICTED BY RF-SCORE:    0.00 PKD
ROOT
HETATM    1  C   UNL     1     -11.130  14.510  68.027  1.00  0.00    -0.276 C  
ENDROOT
BRANCH   1   2
HETATM    2  C   UNL     1     -10.232  15.738  68.083  1.00  0.00    -0.230 A  
HETATM    3  C   UNL     1      -8.031  16.723  68.409  1.00  0.00    -0.224 A  
HETATM    4  C   UNL     1     -10.781  17.033  68.097  1.00  0.00    -0.374 A  
HETATM    5  C   UNL     1      -9.970  18.151  68.294  1.00  0.00    -0.380 A  
HETATM    6  C   UNL     1      -8.596  17.996  68.462  1.00  0.00    -0.306 A  
HETATM    7  C   UNL     1      -8.843  15.602  68.219  1.00  0.00    -0.180 A  
ENDBRANCH   1   2
BRANCH   1   8
HETATM    8  O   UNL     1     -12.132  14.675  69.053  1.00  0.00    -0.295 OA 
BRANCH   8   9
HETATM    9  C   UNL     1     -12.357  13.719  70.004  1.00  0.00    -0.300 A  
HETATM   10  C   UNL     1     -12.296  11.448  70.879  1.00  0.00    -0.483 A  
HETATM   11  C   UNL     1     -13.479  13.154  72.089  1.00  0.00    -0.653 A  
HETATM   12  C   UNL     1     -13.086  11.826  71.959  1.00  0.00    -0.436 A  
HETATM   13  C   UNL     1     -11.932  12.390  69.909  1.00  0.00    -0.369 A  
HETATM   14  C   UNL     1     -13.094  14.109  71.138  1.00  0.00    -0.328 A  
BRANCH  14  15
HETATM   15  O   UNL     1     -13.545  15.375  71.424  1.00  0.00    -0.479 OA 
BRANCH  15  16
HETATM   16  C   UNL     1     -13.561  15.730  72.807  1.00  0.00    -0.580 C  
HETATM   17  C   UNL     1     -12.234  16.393  73.142  1.00  0.00    -0.558 C  
ENDBRANCH  15  16
ENDBRANCH  14  15
ENDBRANCH   8   9
ENDBRANCH   1   8
BRANCH   1  18
HETATM   18  C   UNL     1     -11.898  14.324  66.684  1.00  0.00    -0.421 C  
HETATM   19  N   UNL     1     -10.014  13.820  65.047  1.00  0.00    -0.600 NA 
HETATM   20  O   UNL     1     -12.373  12.965  66.522  1.00  0.00    -0.440 OA 
HETATM   21  H   UNL     1      -9.211  13.915  65.667  1.00  0.00     0.000 HD 
HETATM   22  C   UNL     1     -10.519  12.439  65.000  1.00  0.00    -0.294 C  
HETATM   23  C   UNL     1     -11.114  14.734  65.413  1.00  0.00    -0.357 C  
HETATM   24  C   UNL     1     -11.320  12.037  66.247  1.00  0.00    -0.357 C  
ENDBRANCH   1  18
TORSDOF 6
ENDMDL
MODEL        4
REMARK 921   NORMALIZED FREE ENERGY PREDICTED BY IDOCK:   -6.53 KCAL/MOL
REMARK 922        TOTAL FREE ENERGY PREDICTED BY IDOCK:   -9.94 KCAL/MOL
REMARK 923 INTER-LIGAND FREE ENERGY PREDICTED BY IDOCK:   -8.77 KCAL/MOL
REMARK 924 INTRA-LIGAND FREE ENERGY PREDICTED BY IDOCK:   -1.17 KCAL/MOL
REMARK 927      BINDING AFFINITY PREDICTED BY RF-SCORE:    0.00 PKD
ROOT
HETATM    1  C   UNL     1     -11.067  14.657  68.035  1.00  0.00    -0.281 C  
ENDROOT
BRANCH   1   2
HETATM    2  C   UNL     1     -10.186  15.871  68.297  1.00  0.00    -0.227 A  
HETATM    3  C   UNL     1      -9.918  18.284  68.446  1.00  0.00    -0.401 A  
HETATM    4  C   UNL     1      -8.789  15.739  68.403  1.00  0.00    -0.185 A  
HETATM    5  C   UNL     1      -7.971  16.864  68.498  1.00  0.00    -0.242 A  
HETATM    6  C   UNL     1      -8.534  18.139  68.509  1.00  0.00    -0.312 A  
HETATM    7  C   UNL     1     -10.739  17.158  68.344  1.00  0.00    -0.347 A  
ENDBRANCH   1   2
BRANCH   1   8
HETATM    8  O   UNL     1     -12.160  14.719  68.977  1.00  0.00    -0.287 OA 
BRANCH   8   9
HETATM    9  C   UNL     1     -12.367  13.742  69.908  1.00  0.00    -0.275 A  
HETATM   10  C   UNL     1     -12.233  11.462  70.752  1.00  0.00    -0.475 A  
HETATM   11  C   UNL     1     -13.515  13.100  71.956  1.00  0.00    -0.598 A  
HETATM   12  C   UNL     1     -13.065  11.791  71.817  1.00  0.00    -0.480 A  
HETATM   13  C   UNL     1     -11.886  12.432  69.805  1.00  0.00    -0.387 A  
HETATM   14  C   UNL     1     -13.148  14.083  71.029  1.00  0.00    -0.272 A  
BRANCH  14  15
HETATM   15  O   UNL     1     -13.657  15.326  71.321  1.00  0.00    -0.463 OA 
BRANCH  15  16
HETATM   16  C   UNL     1     -13.456  15.779  72.661  1.00  0.00    -0.539 C  
HETATM   17  C   UNL     1     -12.047  16.342  72.764  1.00  0.00    -0.637 C  
ENDBRANCH  15  16
ENDBRANCH  14  15
ENDBRANCH   8   9
ENDBRANCH   1   8
BRANCH   1  18
HETATM   18  C   UNL     1     -11.709  14.611  66.615  1.00  0.00    -0.333 C  
HETATM   19  N   UNL     1      -9.788  13.754  65.179  1.00  0.00    -0.587 NA 
HETATM   20  O   UNL     1     -12.409  13.364  66.384  1.00  0.00    -0.387 OA 
HETATM   21  H   UNL     1      -9.052  13.701  65.883  1.00  0.00     0.000 HD 
HETATM   22  C   UNL     1     -10.534  12.492  65.059  1.00  0.00    -0.297 C  
HETATM   23  C   UNL     1     -10.731  14.860  65.441  1.00  0.00    -0.377 C  
HETATM   24  C   UNL     1     -11.524  12.254  66.208  1.00  0.00    -0.380 C  
ENDBRANCH   1  18
TORSDOF 6
ENDMDL
MODEL        5
REMARK 921   NORMALIZED FREE ENERGY PREDICTED BY IDOCK:   -6.16 KCAL/MOL
REMARK 922        TOTAL FREE ENERGY PREDICTED BY IDOCK:   -9.45 KCAL/MOL
REMARK 923 INTER-LIGAND FREE ENERGY PREDICTED BY IDOCK:   -8.15 KCAL/MOL
REMARK 924 INTRA-LIGAND FREE ENERGY PREDICTED BY IDOCK:   -1.30 KCAL/MOL
REMARK 927      BINDING AFFINITY PREDICTED BY RF-SCORE:    0.00 PKD
ROOT
HETATM    1  C   UNL     1     -11.239  12.826  67.146  1.00  0.00    -0.292 C  
ENDROOT
BRANCH   1   2
HETATM    2  C   UNL     1     -10.987  14.014  68.064  1.00  0.00    -0.266 A  
HETATM    3  C   UNL     1      -9.456  15.359  69.393  1.00  0.00    -0.267 A  
HETATM    4  C   UNL     1     -12.058  14.731  68.626  1.00  0.00    -0.223 A  
HETATM    5  C   UNL     1     -11.832  15.725  69.578  1.00  0.00    -0.359 A  
HETATM    6  C   UNL     1     -10.531  16.033  69.971  1.00  0.00    -0.259 A  
HETATM    7  C   UNL     1      -9.682  14.359  68.444  1.00  0.00    -0.226 A  
ENDBRANCH   1   2
BRANCH   1   8
HETATM    8  O   UNL     1     -12.099  11.915  67.864  1.00  0.00    -0.558 OA 
BRANCH   8   9
HETATM    9  C   UNL     1     -11.607  11.019  68.771  1.00  0.00    -0.318 A  
HETATM   10  C   UNL     1     -10.346   9.044  69.431  1.00  0.00    -0.217 A  
HETATM   11  C   UNL     1     -11.704  10.182  71.055  1.00  0.00    -0.470 A  
HETATM   12  C   UNL     1     -10.855   9.132  70.722  1.00  0.00    -0.331 A  
HETATM   13  C   UNL     1     -10.719   9.983  68.463  1.00  0.00    -0.264 A  
HETATM   14  C   UNL     1     -12.058  11.143  70.099  1.00  0.00    -0.362 A  
BRANCH  14  15
HETATM   15  O   UNL     1     -12.884  12.124  70.592  1.00  0.00    -0.110 OA 
BRANCH  15  16
HETATM   16  C   UNL     1     -13.090  12.108  72.006  1.00  0.00    -0.357 C  
HETATM   17  C   UNL     1     -13.625  13.468  72.423  1.00  0.00    -0.709 C  
ENDBRANCH  15  16
ENDBRANCH  14  15
ENDBRANCH   8   9
ENDBRANCH   1   8
BRANCH   1  18
HETATM   18  C   UNL     1     -11.974  13.172  65.816  1.00  0.00    -0.423 C  
HETATM   19  N   UNL     1     -10.038  13.466  64.188  1.00  0.00    -0.779 NA 
HETATM   20  O   UNL     1     -12.369  11.979  65.096  1.00  0.00    -0.423 OA 
HETATM   21  H   UNL     1      -9.251  13.334  64.823  1.00  0.00     0.000 HD 
HETATM   22  C   UNL     1     -10.464  12.204  63.563  1.00  0.00    -0.454 C  
HETATM   23  C   UNL     1     -11.193  14.100  64.854  1.00  0.00    -0.373 C  
HETATM   24  C   UNL     1     -11.262  11.292  64.506  1.00  0.00    -0.106 C  
ENDBRANCH   1  18
TORSDOF 6
ENDMDL
MODEL        6
REMARK 921   NORMALIZED FREE ENERGY PREDICTED BY IDOCK:   -6.14 KCAL/MOL
REMARK 922        TOTAL FREE ENERGY PREDICTED BY IDOCK:   -9.42 KCAL/MOL
REMARK 923 INTER-LIGAND FREE ENERGY PREDICTED BY IDOCK:   -8.32 KCAL/MOL
REMARK 924 INTRA-LIGAND FREE ENERGY PREDICTED BY IDOCK:   -1.10 KCAL/MOL
REMARK 927      BINDING AFFINITY PREDICTED BY RF-SCORE:    0.00 PKD
ROOT
HETATM    1  C   UNL     1     -11.445  14.939  69.225  1.00  0.00    -0.303 C  
ENDROOT
BRANCH   1   2
HETATM    2  C   UNL     1     -12.099  15.117  70.588  1.00  0.00    -0.378 A  
HETATM    3  C   UNL     1     -14.105  15.346  71.946  1.00  0.00    -0.636 A  
HETATM    4  C   UNL     1     -11.332  15.447  71.720  1.00  0.00    -0.457 A  
HETATM    5  C   UNL     1     -11.944  15.751  72.935  1.00  0.00    -0.599 A  
HETATM    6  C   UNL     1     -13.332  15.712  73.047  1.00  0.00    -0.668 A  
HETATM    7  C   UNL     1     -13.493  15.048  70.725  1.00  0.00    -0.316 A  
ENDBRANCH   1   2
BRANCH   1   8
HETATM    8  O   UNL     1     -12.237  13.973  68.501  1.00  0.00    -0.333 OA 
BRANCH   8   9
HETATM    9  C   UNL     1     -11.704  12.804  68.038  1.00  0.00    -0.356 A  
HETATM   10  C   UNL     1     -10.918  11.298  66.293  1.00  0.00    -0.265 A  
HETATM   11  C   UNL     1     -11.110  10.500  68.552  1.00  0.00    -0.329 A  
HETATM   12  C   UNL     1     -10.812  10.261  67.214  1.00  0.00    -0.312 A  
HETATM   13  C   UNL     1     -11.359  12.561  66.704  1.00  0.00    -0.389 A  
HETATM   14  C   UNL     1     -11.524  11.769  68.976  1.00  0.00    -0.297 A  
BRANCH  14  15
HETATM   15  O   UNL     1     -11.757  11.843  70.328  1.00  0.00    -0.303 OA 
BRANCH  15  16
HETATM   16  C   UNL     1     -12.678  10.885  70.851  1.00  0.00    -0.370 C  
HETATM   17  C   UNL     1     -13.394  11.513  72.036  1.00  0.00    -0.397 C  
ENDBRANCH  15  16
ENDBRANCH  14  15
ENDBRANCH   8   9
ENDBRANCH   1   8
BRANCH   1  18
HETATM   18  C   UNL     1     -11.406  16.227  68.347  1.00  0.00    -0.312 C  
HETATM   19  N   UNL     1      -9.079  17.142  68.829  1.00  0.00    -0.266 NA 
HETATM   20  O   UNL     1     -10.987  15.938  66.991  1.00  0.00    -0.291 OA 
HETATM   21  H   UNL     1      -8.763  16.464  69.522  1.00  0.00     0.000 HD 
HETATM   22  C   UNL     1      -8.717  16.747  67.459  1.00  0.00    -0.199 C  
HETATM   23  C   UNL     1     -10.535  17.379  68.904  1.00  0.00    -0.312 C  
HETATM   24  C   UNL     1      -9.596  15.622  66.893  1.00  0.00    -0.230 C  
ENDBRANCH   1  18
TORSDOF 6
ENDMDL
MODEL        7
REMARK 921   NORMALIZED FREE ENERGY PREDICTED BY IDOCK:   -6.11 KCAL/MOL
REMARK 922        TOTAL FREE ENERGY PREDICTED BY IDOCK:   -9.38 KCAL/MOL
REMARK 923 INTER-LIGAND FREE ENERGY PREDICTED BY IDOCK:   -8.25 KCAL/MOL
REMARK 924 INTRA-LIGAND FREE ENERGY PREDICTED BY IDOCK:   -1.12 KCAL/MOL
REMARK 927      BINDING AFFINITY PREDICTED BY RF-SCORE:    0.00 PKD
ROOT
HETATM    1  C   UNL     1     -11.441  14.695  69.460  1.00  0.00    -0.297 C  
ENDROOT
BRANCH   1   2
HETATM    2  C   UNL     1     -12.148  15.147  70.730  1.00  0.00    -0.387 A  
HETATM    3  C   UNL     1     -12.059  15.753  73.084  1.00  0.00    -0.603 A  
HETATM    4  C   UNL     1     -13.551  15.157  70.811  1.00  0.00    -0.299 A  
HETATM    5  C   UNL     1     -14.196  15.432  72.016  1.00  0.00    -0.650 A  
HETATM    6  C   UNL     1     -13.451  15.719  73.158  1.00  0.00    -0.652 A  
HETATM    7  C   UNL     1     -11.411  15.472  71.879  1.00  0.00    -0.506 A  
ENDBRANCH   1   2
BRANCH   1   8
HETATM    8  O   UNL     1     -12.107  13.493  69.013  1.00  0.00    -0.341 OA 
BRANCH   8   9
HETATM    9  C   UNL     1     -11.791  12.263  69.516  1.00  0.00    -0.315 A  
HETATM   10  C   UNL     1     -11.892  10.490  71.182  1.00  0.00    -0.391 A  
HETATM   11  C   UNL     1     -10.339  10.316  69.356  1.00  0.00    -0.256 A  
HETATM   12  C   UNL     1     -10.873   9.801  70.533  1.00  0.00    -0.387 A  
HETATM   13  C   UNL     1     -12.349  11.712  70.675  1.00  0.00    -0.437 A  
HETATM   14  C   UNL     1     -10.811  11.523  68.826  1.00  0.00    -0.216 A  
BRANCH  14  15
HETATM   15  O   UNL     1     -10.196  11.881  67.651  1.00  0.00    -0.196 OA 
BRANCH  15  16
HETATM   16  C   UNL     1     -10.695  11.246  66.473  1.00  0.00    -0.271 C  
HETATM   17  C   UNL     1     -11.733  12.161  65.843  1.00  0.00    -0.393 C  
ENDBRANCH  15  16
ENDBRANCH  14  15
ENDBRANCH   8   9
ENDBRANCH   1   8
BRANCH   1  18
HETATM   18  C   UNL     1     -11.515  15.707  68.276  1.00  0.00    -0.350 C  
HETATM   19  N   UNL     1      -9.319  16.975  68.510  1.00  0.00    -0.258 NA 
HETATM   20  O   UNL     1     -11.022  15.126  67.044  1.00  0.00    -0.314 OA 
HETATM   21  H   UNL     1      -8.954  16.541  69.358  1.00  0.00     0.000 HD 
HETATM   22  C   UNL     1      -8.870  16.283  67.292  1.00  0.00    -0.188 C  
HETATM   23  C   UNL     1     -10.793  17.056  68.516  1.00  0.00    -0.310 C  
HETATM   24  C   UNL     1      -9.602  14.957  67.036  1.00  0.00    -0.238 C  
ENDBRANCH   1  18
TORSDOF 6
ENDMDL
MODEL        8
REMARK 921   NORMALIZED FREE ENERGY PREDICTED BY IDOCK:   -6.08 KCAL/MOL
REMARK 922        TOTAL FREE ENERGY PREDICTED BY IDOCK:   -9.34 KCAL/MOL
REMARK 923 INTER-LIGAND FREE ENERGY PREDICTED BY IDOCK:   -8.15 KCAL/MOL
REMARK 924 INTRA-LIGAND FREE ENERGY PREDICTED BY IDOCK:   -1.19 KCAL/MOL
REMARK 927      BINDING AFFINITY PREDICTED BY RF-SCORE:    0.00 PKD
ROOT
HETATM    1  C   UNL     1     -11.413  12.012  68.948  1.00  0.00    -0.301 C  
ENDROOT
BRANCH   1   2
HETATM    2  C   UNL     1     -11.620  11.033  70.096  1.00  0.00    -0.421 A  
HETATM    3  C   UNL     1     -10.855   9.126  71.399  1.00  0.00    -0.419 A  
HETATM    4  C   UNL     1     -12.852  10.962  70.771  1.00  0.00    -0.378 A  
HETATM    5  C   UNL     1     -13.090   9.971  71.722  1.00  0.00    -0.562 A  
HETATM    6  C   UNL     1     -12.095   9.044  72.029  1.00  0.00    -0.440 A  
HETATM    7  C   UNL     1     -10.617  10.115  70.441  1.00  0.00    -0.287 A  
ENDBRANCH   1   2
BRANCH   1   8
HETATM    8  O   UNL     1     -11.942  11.385  67.760  1.00  0.00    -0.637 OA 
BRANCH   8   9
HETATM    9  C   UNL     1     -11.138  11.020  66.717  1.00  0.00    -0.172 A  
HETATM   10  C   UNL     1      -9.224   9.891  65.722  1.00  0.00    -0.228 A  
HETATM   11  C   UNL     1     -10.542  11.392  64.387  1.00  0.00    -0.403 A  
HETATM   12  C   UNL     1      -9.452  10.538  64.513  1.00  0.00    -0.329 A  
HETATM   13  C   UNL     1     -10.063  10.130  66.817  1.00  0.00    -0.277 A  
HETATM   14  C   UNL     1     -11.404  11.613  65.468  1.00  0.00    -0.160 A  
BRANCH  14  15
HETATM   15  O   UNL     1     -12.442  12.464  65.174  1.00  0.00    -0.583 OA 
BRANCH  15  16
HETATM   16  C   UNL     1     -12.293  13.232  63.978  1.00  0.00    -0.346 C  
HETATM   17  C   UNL     1     -12.282  14.704  64.358  1.00  0.00    -0.473 C  
ENDBRANCH  15  16
ENDBRANCH  14  15
ENDBRANCH   8   9
ENDBRANCH   1   8
BRANCH   1  18
HETATM   18  C   UNL     1     -12.164  13.368  69.104  1.00  0.00    -0.165 C  
HETATM   19  N   UNL     1     -10.417  14.829  70.244  1.00  0.00    -0.468 NA 
HETATM   20  O   UNL     1     -12.042  14.188  67.916  1.00  0.00    -0.358 OA 
HETATM   21  H   UNL     1      -9.668  14.146  70.365  1.00  0.00     0.000 HD 
HETATM   22  C   UNL     1     -10.301  15.560  68.973  1.00  0.00    -0.235 C  
HETATM   23  C   UNL     1     -11.755  14.212  70.336  1.00  0.00    -0.243 C  
HETATM   24  C   UNL     1     -10.731  14.736  67.750  1.00  0.00    -0.268 C  
ENDBRANCH   1  18
TORSDOF 6
ENDMDL
MODEL        9
REMARK 921   NORMALIZED FREE ENERGY PREDICTED BY IDOCK:   -6.06 KCAL/MOL
REMARK 922        TOTAL FREE ENERGY PREDICTED BY IDOCK:   -9.31 KCAL/MOL
REMARK 923 INTER-LIGAND FREE ENERGY PREDICTED BY IDOCK:   -8.56 KCAL/MOL
REMARK 924 INTRA-LIGAND FREE ENERGY PREDICTED BY IDOCK:   -0.75 KCAL/MOL
REMARK 927      BINDING AFFINITY PREDICTED BY RF-SCORE:    0.00 PKD
ROOT
HETATM    1  C   UNL     1     -11.248  15.366  67.884  1.00  0.00    -0.329 C  
ENDROOT
BRANCH   1   2
HETATM    2  C   UNL     1     -11.804  14.913  69.226  1.00  0.00    -0.350 A  
HETATM    3  C   UNL     1     -12.419  13.121  70.752  1.00  0.00    -0.389 A  
HETATM    4  C   UNL     1     -12.433  15.826  70.092  1.00  0.00    -0.240 A  
HETATM    5  C   UNL     1     -13.070  15.388  71.252  1.00  0.00    -0.564 A  
HETATM    6  C   UNL     1     -13.073  14.033  71.579  1.00  0.00    -0.436 A  
HETATM    7  C   UNL     1     -11.786  13.557  69.586  1.00  0.00    -0.398 A  
ENDBRANCH   1   2
BRANCH   1   8
HETATM    8  O   UNL     1     -10.014  16.066  68.155  1.00  0.00    -0.223 OA 
BRANCH   8   9
HETATM    9  C   UNL     1      -9.887  17.411  67.955  1.00  0.00    -0.288 A  
HETATM   10  C   UNL     1     -10.658  19.591  67.191  1.00  0.00    -0.605 A  
HETATM   11  C   UNL     1      -8.387  19.328  67.931  1.00  0.00    -0.338 A  
HETATM   12  C   UNL     1      -9.394  20.130  67.404  1.00  0.00    -0.513 A  
HETATM   13  C   UNL     1     -10.903  18.240  67.467  1.00  0.00    -0.282 A  
HETATM   14  C   UNL     1      -8.632  17.983  68.237  1.00  0.00    -0.287 A  
BRANCH  14  15
HETATM   15  O   UNL     1      -7.542  17.337  68.768  1.00  0.00    -0.247 OA 
BRANCH  15  16
HETATM   16  C   UNL     1      -6.286  17.998  68.597  1.00  0.00    -0.211 C  
HETATM   17  C   UNL     1      -5.666  18.200  69.970  1.00  0.00    -0.239 C  
ENDBRANCH  15  16
ENDBRANCH  14  15
ENDBRANCH   8   9
ENDBRANCH   1   8
BRANCH   1  18
HETATM   18  C   UNL     1     -10.893  14.210  66.900  1.00  0.00    -0.296 C  
HETATM   19  N   UNL     1     -12.963  14.104  65.420  1.00  0.00    -0.709 NA 
HETATM   20  O   UNL     1     -10.132  14.687  65.764  1.00  0.00    -0.304 OA 
HETATM   21  H   UNL     1     -13.539  14.815  65.871  1.00  0.00     0.000 HD 
HETATM   22  C   UNL     1     -12.134  14.664  64.341  1.00  0.00    -0.462 C  
HETATM   23  C   UNL     1     -12.101  13.390  66.383  1.00  0.00    -0.409 C  
HETATM   24  C   UNL     1     -10.920  15.455  64.849  1.00  0.00    -0.437 C  
ENDBRANCH   1  18
TORSDOF 6
ENDMDL
MODEL       10
REMARK 921   NORMALIZED FREE ENERGY PREDICTED BY IDOCK:   -6.02 KCAL/MOL
REMARK 922        TOTAL FREE ENERGY PREDICTED BY IDOCK:   -9.25 KCAL/MOL
REMARK 923 INTER-LIGAND FREE ENERGY PREDICTED BY IDOCK:   -8.77 KCAL/MOL
REMARK 924 INTRA-LIGAND FREE ENERGY PREDICTED BY IDOCK:   -0.48 KCAL/MOL
REMARK 927      BINDING AFFINITY PREDICTED BY RF-SCORE:    0.00 PKD
ROOT
HETATM    1  C   UNL     1     -11.967  13.270  67.989  1.00  0.00    -0.313 C  
ENDROOT
BRANCH   1   2
HETATM    2  C   UNL     1     -11.637  12.500  66.717  1.00  0.00    -0.446 A  
HETATM    3  C   UNL     1     -10.182  10.979  65.497  1.00  0.00    -0.327 A  
HETATM    4  C   UNL     1     -12.323  12.760  65.518  1.00  0.00    -0.495 A  
HETATM    5  C   UNL     1     -11.925  12.161  64.323  1.00  0.00    -0.466 A  
HETATM    6  C   UNL     1     -10.847  11.279  64.308  1.00  0.00    -0.398 A  
HETATM    7  C   UNL     1     -10.576  11.583  66.693  1.00  0.00    -0.294 A  
ENDBRANCH   1   2
BRANCH   1   8
HETATM    8  O   UNL     1     -11.133  12.729  69.036  1.00  0.00    -0.251 OA 
BRANCH   8   9
HETATM    9  C   UNL     1     -11.596  11.794  69.918  1.00  0.00    -0.274 A  
HETATM   10  C   UNL     1     -11.908   9.521  70.732  1.00  0.00    -0.350 A  
HETATM   11  C   UNL     1     -13.069  11.334  71.801  1.00  0.00    -0.527 A  
HETATM   12  C   UNL     1     -12.805   9.972  71.695  1.00  0.00    -0.543 A  
HETATM   13  C   UNL     1     -11.307  10.427  69.851  1.00  0.00    -0.370 A  
HETATM   14  C   UNL     1     -12.448  12.250  70.943  1.00  0.00    -0.276 A  
BRANCH  14  15
HETATM   15  O   UNL     1     -12.799  13.555  71.192  1.00  0.00    -0.338 OA 
BRANCH  15  16
HETATM   16  C   UNL     1     -13.543  13.778  72.391  1.00  0.00    -0.588 C  
HETATM   17  C   UNL     1     -12.834  14.856  73.196  1.00  0.00    -0.619 C  
ENDBRANCH  15  16
ENDBRANCH  14  15
ENDBRANCH   8   9
ENDBRANCH   1   8
BRANCH   1  18
HETATM   18  C   UNL     1     -11.662  14.797  67.925  1.00  0.00    -0.341 C  
HETATM   19  N   UNL     1     -10.425  15.195  70.115  1.00  0.00    -0.485 NA 
HETATM   20  O   UNL     1     -10.434  15.069  67.207  1.00  0.00    -0.258 OA 
HETATM   21  H   UNL     1     -10.480  14.261  70.521  1.00  0.00     0.000 HD 
HETATM   22  C   UNL     1      -9.207  15.382  69.312  1.00  0.00    -0.259 C  
HETATM   23  C   UNL     1     -11.610  15.517  69.295  1.00  0.00    -0.357 C  
HETATM   24  C   UNL     1      -9.265  14.692  67.941  1.00  0.00    -0.197 C  
ENDBRANCH   1  18
TORSDOF 6
ENDMDL
MODEL       11
REMARK 921   NORMALIZED FREE ENERGY PREDICTED BY IDOCK:   -5.96 KCAL/MOL
REMARK 922        TOTAL FREE ENERGY PREDICTED BY IDOCK:   -9.17 KCAL/MOL
REMARK 923 INTER-LIGAND FREE ENERGY PREDICTED BY IDOCK:   -7.92 KCAL/MOL
REMARK 924 INTRA-LIGAND FREE ENERGY PREDICTED BY IDOCK:   -1.25 KCAL/MOL
REMARK 927      BINDING AFFINITY PREDICTED BY RF-SCORE:    0.00 PKD
ROOT
HETATM    1  C   UNL     1     -11.015  13.904  67.347  1.00  0.00    -0.288 C  
ENDROOT
BRANCH   1   2
HETATM    2  C   UNL     1     -11.337  13.049  66.128  1.00  0.00    -0.349 A  
HETATM    3  C   UNL     1     -10.784  11.195  64.654  1.00  0.00    -0.350 A  
HETATM    4  C   UNL     1     -12.331  13.441  65.214  1.00  0.00    -0.513 A  
HETATM    5  C   UNL     1     -12.527  12.738  64.026  1.00  0.00    -0.445 A  
HETATM    6  C   UNL     1     -11.746  11.620  63.739  1.00  0.00    -0.403 A  
HETATM    7  C   UNL     1     -10.582  11.902  65.842  1.00  0.00    -0.306 A  
ENDBRANCH   1   2
BRANCH   1   8
HETATM    8  O   UNL     1     -10.771  12.997  68.444  1.00  0.00    -0.241 OA 
BRANCH   8   9
HETATM    9  C   UNL     1     -11.608  12.926  69.521  1.00  0.00    -0.282 A  
HETATM   10  C   UNL     1     -12.824  13.861  71.412  1.00  0.00    -0.439 A  
HETATM   11  C   UNL     1     -12.763  11.479  71.101  1.00  0.00    -0.458 A  
HETATM   12  C   UNL     1     -13.162  12.584  71.846  1.00  0.00    -0.495 A  
HETATM   13  C   UNL     1     -12.053  14.030  70.256  1.00  0.00    -0.425 A  
HETATM   14  C   UNL     1     -12.017  11.641  69.927  1.00  0.00    -0.340 A  
BRANCH  14  15
HETATM   15  O   UNL     1     -11.722  10.454  69.300  1.00  0.00    -0.222 OA 
BRANCH  15  16
HETATM   16  C   UNL     1     -10.639   9.710  69.859  1.00  0.00    -0.249 C  
HETATM   17  C   UNL     1      -9.504   9.691  68.848  1.00  0.00    -0.157 C  
ENDBRANCH  15  16
ENDBRANCH  14  15
ENDBRANCH   8   9
ENDBRANCH   1   8
BRANCH   1  18
HETATM   18  C   UNL     1      -9.736  14.784  67.207  1.00  0.00    -0.230 C  
HETATM   19  N   UNL     1     -10.492  16.583  65.571  1.00  0.00    -0.546 NA 
HETATM   20  O   UNL     1      -9.664  15.791  68.246  1.00  0.00    -0.199 OA 
HETATM   21  H   UNL     1     -11.435  16.253  65.368  1.00  0.00     0.000 HD 
HETATM   22  C   UNL     1     -10.463  17.525  66.701  1.00  0.00    -0.270 C  
HETATM   23  C   UNL     1      -9.555  15.472  65.832  1.00  0.00    -0.348 C  
HETATM   24  C   UNL     1     -10.616  16.844  68.069  1.00  0.00    -0.367 C  
ENDBRANCH   1  18
TORSDOF 6
ENDMDL
MODEL       12
REMARK 921   NORMALIZED FREE ENERGY PREDICTED BY IDOCK:   -5.95 KCAL/MOL
REMARK 922        TOTAL FREE ENERGY PREDICTED BY IDOCK:   -9.16 KCAL/MOL
REMARK 923 INTER-LIGAND FREE ENERGY PREDICTED BY IDOCK:   -8.24 KCAL/MOL
REMARK 924 INTRA-LIGAND FREE ENERGY PREDICTED BY IDOCK:   -0.92 KCAL/MOL
REMARK 927      BINDING AFFINITY PREDICTED BY RF-SCORE:    0.00 PKD
ROOT
HETATM    1  C   UNL     1     -11.411  12.336  68.430  1.00  0.00    -0.292 C  
ENDROOT
BRANCH   1   2
HETATM    2  C   UNL     1     -11.437  11.327  69.570  1.00  0.00    -0.376 A  
HETATM    3  C   UNL     1     -10.376   9.519  70.804  1.00  0.00    -0.377 A  
HETATM    4  C   UNL     1     -12.615  11.095  70.301  1.00  0.00    -0.288 A  
HETATM    5  C   UNL     1     -12.680  10.072  71.246  1.00  0.00    -0.500 A  
HETATM    6  C   UNL     1     -11.564   9.275  71.491  1.00  0.00    -0.452 A  
HETATM    7  C   UNL     1     -10.311  10.539  69.852  1.00  0.00    -0.164 A  
ENDBRANCH   1   2
BRANCH   1   8
HETATM    8  O   UNL     1     -12.099  11.729  67.315  1.00  0.00    -0.595 OA 
BRANCH   8   9
HETATM    9  C   UNL     1     -11.654  11.864  66.031  1.00  0.00    -0.227 A  
HETATM   10  C   UNL     1     -11.842  12.595  63.716  1.00  0.00    -0.574 A  
HETATM   11  C   UNL     1     -10.020  11.169  64.365  1.00  0.00    -0.354 A  
HETATM   12  C   UNL     1     -10.708  11.866  63.377  1.00  0.00    -0.476 A  
HETATM   13  C   UNL     1     -12.310  12.595  65.035  1.00  0.00    -0.561 A  
HETATM   14  C   UNL     1     -10.465  11.189  65.693  1.00  0.00    -0.248 A  
BRANCH  14  15
HETATM   15  O   UNL     1      -9.664  10.470  66.547  1.00  0.00    -0.179 OA 
BRANCH  15  16
HETATM   16  C   UNL     1      -9.465   9.098  66.203  1.00  0.00    -0.245 C  
HETATM   17  C   UNL     1     -10.479   8.265  66.971  1.00  0.00    -0.384 C  
ENDBRANCH  15  16
ENDBRANCH  14  15
ENDBRANCH   8   9
ENDBRANCH   1   8
BRANCH   1  18
HETATM   18  C   UNL     1     -12.148  13.677  68.727  1.00  0.00    -0.297 C  
HETATM   19  N   UNL     1     -10.458  14.915  70.175  1.00  0.00    -0.485 NA 
HETATM   20  O   UNL     1     -11.931  14.652  67.678  1.00  0.00    -0.362 OA 
HETATM   21  H   UNL     1      -9.731  14.203  70.247  1.00  0.00     0.000 HD 
HETATM   22  C   UNL     1     -10.243  15.815  69.031  1.00  0.00    -0.224 C  
HETATM   23  C   UNL     1     -11.810  14.327  70.091  1.00  0.00    -0.312 C  
HETATM   24  C   UNL     1     -10.603  15.183  67.678  1.00  0.00    -0.263 C  
ENDBRANCH   1  18
TORSDOF 6
ENDMDL
MODEL       13
REMARK 921   NORMALIZED FREE ENERGY PREDICTED BY IDOCK:   -5.94 KCAL/MOL
REMARK 922        TOTAL FREE ENERGY PREDICTED BY IDOCK:   -9.15 KCAL/MOL
REMARK 923 INTER-LIGAND FREE ENERGY PREDICTED BY IDOCK:   -8.34 KCAL/MOL
REMARK 924 INTRA-LIGAND FREE ENERGY PREDICTED BY IDOCK:   -0.81 KCAL/MOL
REMARK 927      BINDING AFFINITY PREDICTED BY RF-SCORE:    0.00 PKD
ROOT
HETATM    1  C   UNL     1     -11.609  12.903  69.024  1.00  0.00    -0.322 C  
ENDROOT
BRANCH   1   2
HETATM    2  C   UNL     1     -11.966  13.943  70.077  1.00  0.00    -0.404 A  
HETATM    3  C   UNL     1     -11.487  16.044  71.206  1.00  0.00    -0.475 A  
HETATM    4  C   UNL     1     -12.947  13.678  71.049  1.00  0.00    -0.303 A  
HETATM    5  C   UNL     1     -13.172  14.569  72.098  1.00  0.00    -0.455 A  
HETATM    6  C   UNL     1     -12.435  15.748  72.184  1.00  0.00    -0.533 A  
HETATM    7  C   UNL     1     -11.256  15.150  70.158  1.00  0.00    -0.299 A  
ENDBRANCH   1   2
BRANCH   1   8
HETATM    8  O   UNL     1     -12.125  11.638  69.490  1.00  0.00    -0.304 OA 
BRANCH   8   9
HETATM    9  C   UNL     1     -11.322  10.706  70.085  1.00  0.00    -0.323 A  
HETATM   10  C   UNL     1      -9.340   9.299  70.230  1.00  0.00    -0.277 A  
HETATM   11  C   UNL     1     -11.129   8.995  71.806  1.00  0.00    -0.444 A  
HETATM   12  C   UNL     1      -9.887   8.613  71.309  1.00  0.00    -0.307 A  
HETATM   13  C   UNL     1     -10.053  10.340  69.624  1.00  0.00    -0.257 A  
HETATM   14  C   UNL     1     -11.836  10.055  71.224  1.00  0.00    -0.385 A  
BRANCH  14  15
HETATM   15  O   UNL     1     -13.032  10.319  71.844  1.00  0.00    -0.427 OA 
BRANCH  15  16
HETATM   16  C   UNL     1     -13.662   9.203  72.477  1.00  0.00    -0.435 C  
HETATM   17  C   UNL     1     -14.404   8.411  71.413  1.00  0.00    -0.425 C  
ENDBRANCH  15  16
ENDBRANCH  14  15
ENDBRANCH   8   9
ENDBRANCH   1   8
BRANCH   1  18
HETATM   18  C   UNL     1     -12.244  13.150  67.622  1.00  0.00    -0.099 C  
HETATM   19  N   UNL     1     -10.310  14.180  66.324  1.00  0.00    -0.285 NA 
HETATM   20  O   UNL     1     -12.154  11.975  66.779  1.00  0.00    -0.613 OA 
HETATM   21  H   UNL     1      -9.607  14.226  67.062  1.00  0.00     0.000 HD 
HETATM   22  C   UNL     1     -10.240  12.922  65.566  1.00  0.00    -0.287 C  
HETATM   23  C   UNL     1     -11.679  14.365  66.846  1.00  0.00    -0.402 C  
HETATM   24  C   UNL     1     -10.824  11.718  66.322  1.00  0.00    -0.281 C  
ENDBRANCH   1  18
TORSDOF 6
ENDMDL
MODEL       14
REMARK 921   NORMALIZED FREE ENERGY PREDICTED BY IDOCK:   -5.81 KCAL/MOL
REMARK 922        TOTAL FREE ENERGY PREDICTED BY IDOCK:   -8.98 KCAL/MOL
REMARK 923 INTER-LIGAND FREE ENERGY PREDICTED BY IDOCK:   -7.47 KCAL/MOL
REMARK 924 INTRA-LIGAND FREE ENERGY PREDICTED BY IDOCK:   -1.51 KCAL/MOL
REMARK 927      BINDING AFFINITY PREDICTED BY RF-SCORE:    0.00 PKD
ROOT
HETATM    1  C   UNL     1     -11.474  12.620  68.851  1.00  0.00    -0.306 C  
ENDROOT
BRANCH   1   2
HETATM    2  C   UNL     1     -11.001  13.312  67.580  1.00  0.00    -0.281 A  
HETATM    3  C   UNL     1      -9.269  14.496  66.350  1.00  0.00    -0.264 A  
HETATM    4  C   UNL     1     -11.905  13.622  66.548  1.00  0.00    -0.441 A  
HETATM    5  C   UNL     1     -11.503  14.382  65.451  1.00  0.00    -0.344 A  
HETATM    6  C   UNL     1     -10.187  14.830  65.355  1.00  0.00    -0.415 A  
HETATM    7  C   UNL     1      -9.672  13.740  67.453  1.00  0.00    -0.235 A  
ENDBRANCH   1   2
BRANCH   1   8
HETATM    8  O   UNL     1     -12.634  13.343  69.317  1.00  0.00    -0.006 OA 
BRANCH   8   9
HETATM    9  C   UNL     1     -12.634  14.021  70.503  1.00  0.00    -0.329 A  
HETATM   10  C   UNL     1     -13.048  14.249  72.892  1.00  0.00    -0.589 A  
HETATM   11  C   UNL     1     -12.410  16.178  71.608  1.00  0.00    -0.346 A  
HETATM   12  C   UNL     1     -12.787  15.614  72.822  1.00  0.00    -0.552 A  
HETATM   13  C   UNL     1     -12.970  13.459  71.740  1.00  0.00    -0.435 A  
HETATM   14  C   UNL     1     -12.300  15.388  70.457  1.00  0.00    -0.408 A  
BRANCH  14  15
HETATM   15  O   UNL     1     -11.897  16.092  69.348  1.00  0.00    -0.279 OA 
BRANCH  15  16
HETATM   16  C   UNL     1     -10.561  16.596  69.386  1.00  0.00    -0.333 C  
HETATM   17  C   UNL     1     -10.358  17.495  68.177  1.00  0.00    -0.375 C  
ENDBRANCH  15  16
ENDBRANCH  14  15
ENDBRANCH   8   9
ENDBRANCH   1   8
BRANCH   1  18
HETATM   18  C   UNL     1     -11.924  11.139  68.660  1.00  0.00    -0.219 C  
HETATM   19  N   UNL     1      -9.769   9.857  69.102  1.00  0.00    -0.187 NA 
HETATM   20  O   UNL     1     -12.477  10.586  69.879  1.00  0.00    -0.260 OA 
HETATM   21  H   UNL     1      -9.126  10.636  69.245  1.00  0.00     0.000 HD 
HETATM   22  C   UNL     1     -10.380   9.402  70.360  1.00  0.00    -0.262 C  
HETATM   23  C   UNL     1     -10.830  10.181  68.128  1.00  0.00    -0.262 C  
HETATM   24  C   UNL     1     -11.484  10.336  70.878  1.00  0.00    -0.339 C  
ENDBRANCH   1  18
TORSDOF 6
ENDMDL
MODEL       15
REMARK 921   NORMALIZED FREE ENERGY PREDICTED BY IDOCK:   -5.81 KCAL/MOL
REMARK 922        TOTAL FREE ENERGY PREDICTED BY IDOCK:   -8.97 KCAL/MOL
REMARK 923 INTER-LIGAND FREE ENERGY PREDICTED BY IDOCK:   -7.76 KCAL/MOL
REMARK 924 INTRA-LIGAND FREE ENERGY PREDICTED BY IDOCK:   -1.21 KCAL/MOL
REMARK 927      BINDING AFFINITY PREDICTED BY RF-SCORE:    0.00 PKD
ROOT
HETATM    1  C   UNL     1     -11.486  12.847  66.881  1.00  0.00    -0.341 C  
ENDROOT
BRANCH   1   2
HETATM    2  C   UNL     1     -11.100  13.749  68.046  1.00  0.00    -0.284 A  
HETATM    3  C   UNL     1     -11.718  14.967  70.059  1.00  0.00    -0.338 A  
HETATM    4  C   UNL     1      -9.849  14.390  68.077  1.00  0.00    -0.221 A  
HETATM    5  C   UNL     1      -9.550  15.327  69.066  1.00  0.00    -0.237 A  
HETATM    6  C   UNL     1     -10.489  15.625  70.052  1.00  0.00    -0.333 A  
HETATM    7  C   UNL     1     -12.021  14.033  69.065  1.00  0.00    -0.392 A  
ENDBRANCH   1   2
BRANCH   1   8
HETATM    8  O   UNL     1     -11.966  11.609  67.449  1.00  0.00    -0.621 OA 
BRANCH   8   9
HETATM    9  C   UNL     1     -11.130  10.561  67.709  1.00  0.00    -0.317 A  
HETATM   10  C   UNL     1      -9.666   8.722  67.073  1.00  0.00    -0.258 A  
HETATM   11  C   UNL     1     -10.276   9.011  69.380  1.00  0.00    -0.206 A  
HETATM   12  C   UNL     1      -9.610   8.290  68.394  1.00  0.00    -0.153 A  
HETATM   13  C   UNL     1     -10.420   9.851  66.734  1.00  0.00    -0.261 A  
HETATM   14  C   UNL     1     -11.007  10.159  69.053  1.00  0.00    -0.226 A  
BRANCH  14  15
HETATM   15  O   UNL     1     -11.585  10.766  70.142  1.00  0.00    -0.284 OA 
BRANCH  15  16
HETATM   16  C   UNL     1     -11.684   9.963  71.319  1.00  0.00    -0.392 C  
HETATM   17  C   UNL     1     -13.158   9.768  71.638  1.00  0.00    -0.516 C  
ENDBRANCH  15  16
ENDBRANCH  14  15
ENDBRANCH   8   9
ENDBRANCH   1   8
BRANCH   1  18
HETATM   18  C   UNL     1     -12.636  13.397  65.984  1.00  0.00    -0.296 C  
HETATM   19  N   UNL     1     -11.356  14.523  64.092  1.00  0.00    -0.606 NA 
HETATM   20  O   UNL     1     -13.105  12.400  65.043  1.00  0.00    -0.678 OA 
HETATM   21  H   UNL     1     -10.399  14.381  64.417  1.00  0.00     0.000 HD 
HETATM   22  C   UNL     1     -11.816  13.429  63.223  1.00  0.00    -0.141 C  
HETATM   23  C   UNL     1     -12.305  14.697  65.210  1.00  0.00    -0.215 C  
HETATM   24  C   UNL     1     -12.171  12.146  63.990  1.00  0.00    -0.446 C  
ENDBRANCH   1  18
TORSDOF 6
ENDMDL
MODEL       16
REMARK 921   NORMALIZED FREE ENERGY PREDICTED BY IDOCK:   -5.80 KCAL/MOL
REMARK 922        TOTAL FREE ENERGY PREDICTED BY IDOCK:   -8.96 KCAL/MOL
REMARK 923 INTER-LIGAND FREE ENERGY PREDICTED BY IDOCK:   -7.99 KCAL/MOL
REMARK 924 INTRA-LIGAND FREE ENERGY PREDICTED BY IDOCK:   -0.97 KCAL/MOL
REMARK 927      BINDING AFFINITY PREDICTED BY RF-SCORE:    0.00 PKD
ROOT
HETATM    1  C   UNL     1     -11.338  12.827  67.175  1.00  0.00    -0.314 C  
ENDROOT
BRANCH   1   2
HETATM    2  C   UNL     1     -11.153  13.883  68.256  1.00  0.00    -0.280 A  
HETATM    3  C   UNL     1     -12.106  15.497  69.806  1.00  0.00    -0.372 A  
HETATM    4  C   UNL     1      -9.878  14.400  68.549  1.00  0.00    -0.233 A  
HETATM    5  C   UNL     1      -9.725  15.467  69.433  1.00  0.00    -0.273 A  
HETATM    6  C   UNL     1     -10.840  16.024  70.055  1.00  0.00    -0.353 A  
HETATM    7  C   UNL     1     -12.262  14.432  68.915  1.00  0.00    -0.214 A  
ENDBRANCH   1   2
BRANCH   1   8
HETATM    8  O   UNL     1     -12.170  11.790  67.739  1.00  0.00    -0.536 OA 
BRANCH   8   9
HETATM    9  C   UNL     1     -11.727  10.974  68.741  1.00  0.00    -0.314 A  
HETATM   10  C   UNL     1     -11.633  10.192  71.045  1.00  0.00    -0.462 A  
HETATM   11  C   UNL     1     -10.086   9.313  69.430  1.00  0.00    -0.200 A  
HETATM   12  C   UNL     1     -10.555   9.369  70.738  1.00  0.00    -0.371 A  
HETATM   13  C   UNL     1     -12.216  10.988  70.052  1.00  0.00    -0.418 A  
HETATM   14  C   UNL     1     -10.683  10.083  68.424  1.00  0.00    -0.234 A  
BRANCH  14  15
HETATM   15  O   UNL     1     -10.117   9.896  67.186  1.00  0.00    -0.192 OA 
BRANCH  15  16
HETATM   16  C   UNL     1      -9.975   8.537  66.768  1.00  0.00    -0.281 C  
HETATM   17  C   UNL     1      -8.818   8.461  65.786  1.00  0.00    -0.204 C  
ENDBRANCH  15  16
ENDBRANCH  14  15
ENDBRANCH   8   9
ENDBRANCH   1   8
BRANCH   1  18
HETATM   18  C   UNL     1     -12.067  13.328  65.891  1.00  0.00    -0.441 C  
HETATM   19  N   UNL     1     -10.140  13.609  64.250  1.00  0.00    -0.763 NA 
HETATM   20  O   UNL     1     -12.559  12.226  65.090  1.00  0.00    -0.585 OA 
HETATM   21  H   UNL     1      -9.355  13.373  64.857  1.00  0.00     0.000 HD 
HETATM   22  C   UNL     1     -10.666  12.434  63.539  1.00  0.00    -0.430 C  
HETATM   23  C   UNL     1     -11.235  14.270  64.986  1.00  0.00    -0.364 C  
HETATM   24  C   UNL     1     -11.514  11.510  64.426  1.00  0.00    -0.159 C  
ENDBRANCH   1  18
TORSDOF 6
ENDMDL
MODEL       17
REMARK 921   NORMALIZED FREE ENERGY PREDICTED BY IDOCK:   -5.74 KCAL/MOL
REMARK 922        TOTAL FREE ENERGY PREDICTED BY IDOCK:   -8.88 KCAL/MOL
REMARK 923 INTER-LIGAND FREE ENERGY PREDICTED BY IDOCK:   -7.59 KCAL/MOL
REMARK 924 INTRA-LIGAND FREE ENERGY PREDICTED BY IDOCK:   -1.30 KCAL/MOL
REMARK 927      BINDING AFFINITY PREDICTED BY RF-SCORE:    0.00 PKD
ROOT
HETATM    1  C   UNL     1     -10.843  15.929  68.414  1.00  0.00    -0.316 C  
ENDROOT
BRANCH   1   2
HETATM    2  C   UNL     1     -10.191  17.287  68.196  1.00  0.00    -0.343 A  
HETATM    3  C   UNL     1     -10.250  19.518  67.225  1.00  0.00    -0.547 A  
HETATM    4  C   UNL     1      -8.848  17.508  68.548  1.00  0.00    -0.282 A  
HETATM    5  C   UNL     1      -8.209  18.703  68.217  1.00  0.00    -0.349 A  
HETATM    6  C   UNL     1      -8.906  19.705  67.545  1.00  0.00    -0.371 A  
HETATM    7  C   UNL     1     -10.889  18.319  67.550  1.00  0.00    -0.282 A  
ENDBRANCH   1   2
BRANCH   1   8
HETATM    8  O   UNL     1     -10.173  14.995  67.539  1.00  0.00    -0.232 OA 
BRANCH   8   9
HETATM    9  C   UNL     1     -10.807  14.423  66.473  1.00  0.00    -0.310 A  
HETATM   10  C   UNL     1     -12.124  14.477  64.425  1.00  0.00    -0.492 A  
HETATM   11  C   UNL     1     -11.635  12.367  65.468  1.00  0.00    -0.432 A  
HETATM   12  C   UNL     1     -12.257  13.093  64.457  1.00  0.00    -0.466 A  
HETATM   13  C   UNL     1     -11.401  15.137  65.426  1.00  0.00    -0.298 A  
HETATM   14  C   UNL     1     -10.886  13.018  66.456  1.00  0.00    -0.279 A  
BRANCH  14  15
HETATM   15  O   UNL     1     -10.320  12.158  67.366  1.00  0.00    -0.203 OA 
BRANCH  15  16
HETATM   16  C   UNL     1     -10.885  10.847  67.414  1.00  0.00    -0.279 C  
HETATM   17  C   UNL     1     -11.351  10.582  68.836  1.00  0.00    -0.313 C  
ENDBRANCH  15  16
ENDBRANCH  14  15
ENDBRANCH   8   9
ENDBRANCH   1   8
BRANCH   1  18
HETATM   18  C   UNL     1     -10.700  15.361  69.859  1.00  0.00    -0.303 C  
HETATM   19  N   UNL     1     -12.893  16.072  70.940  1.00  0.00    -0.544 NA 
HETATM   20  O   UNL     1     -11.134  13.981  69.938  1.00  0.00    -0.133 OA 
HETATM   21  H   UNL     1     -13.305  16.601  70.172  1.00  0.00     0.000 HD 
HETATM   22  C   UNL     1     -13.285  14.654  70.912  1.00  0.00    -0.337 C  
HETATM   23  C   UNL     1     -11.420  16.175  70.962  1.00  0.00    -0.382 C  
HETATM   24  C   UNL     1     -12.553  13.838  69.837  1.00  0.00    -0.092 C  
ENDBRANCH   1  18
TORSDOF 6
ENDMDL
MODEL       18
REMARK 921   NORMALIZED FREE ENERGY PREDICTED BY IDOCK:   -5.74 KCAL/MOL
REMARK 922        TOTAL FREE ENERGY PREDICTED BY IDOCK:   -8.88 KCAL/MOL
REMARK 923 INTER-LIGAND FREE ENERGY PREDICTED BY IDOCK:   -8.10 KCAL/MOL
REMARK 924 INTRA-LIGAND FREE ENERGY PREDICTED BY IDOCK:   -0.77 KCAL/MOL
REMARK 927      BINDING AFFINITY PREDICTED BY RF-SCORE:    0.00 PKD
ROOT
HETATM    1  C   UNL     1     -11.300  11.894  68.687  1.00  0.00    -0.276 C  
ENDROOT
BRANCH   1   2
HETATM    2  C   UNL     1     -11.979  12.337  69.975  1.00  0.00    -0.379 A  
HETATM    3  C   UNL     1     -13.276  11.801  71.962  1.00  0.00    -0.460 A  
HETATM    4  C   UNL     1     -12.150  13.702  70.268  1.00  0.00    -0.427 A  
HETATM    5  C   UNL     1     -12.897  14.108  71.373  1.00  0.00    -0.428 A  
HETATM    6  C   UNL     1     -13.471  13.158  72.216  1.00  0.00    -0.665 A  
HETATM    7  C   UNL     1     -12.533  11.393  70.852  1.00  0.00    -0.478 A  
ENDBRANCH   1   2
BRANCH   1   8
HETATM    8  O   UNL     1     -10.811  13.087  68.037  1.00  0.00    -0.229 OA 
BRANCH   8   9
HETATM    9  C   UNL     1     -11.290  13.497  66.825  1.00  0.00    -0.328 A  
HETATM   10  C   UNL     1     -12.506  13.193  64.737  1.00  0.00    -0.460 A  
HETATM   11  C   UNL     1     -11.198  15.181  65.070  1.00  0.00    -0.414 A  
HETATM   12  C   UNL     1     -12.015  14.403  64.258  1.00  0.00    -0.433 A  
HETATM   13  C   UNL     1     -12.146  12.745  66.014  1.00  0.00    -0.458 A  
HETATM   14  C   UNL     1     -10.858  14.754  66.360  1.00  0.00    -0.322 A  
BRANCH  14  15
HETATM   15  O   UNL     1     -10.063  15.646  67.038  1.00  0.00    -0.244 OA 
BRANCH  15  16
HETATM   16  C   UNL     1     -10.754  16.678  67.744  1.00  0.00    -0.327 C  
HETATM   17  C   UNL     1     -10.303  16.644  69.196  1.00  0.00    -0.326 C  
ENDBRANCH  15  16
ENDBRANCH  14  15
ENDBRANCH   8   9
ENDBRANCH   1   8
BRANCH   1  18
HETATM   18  C   UNL     1     -10.066  10.962  68.886  1.00  0.00    -0.198 C  
HETATM   19  N   UNL     1     -11.060   8.652  68.483  1.00  0.00    -0.382 NA 
HETATM   20  O   UNL     1      -9.299  10.821  67.666  1.00  0.00    -0.146 OA 
HETATM   21  H   UNL     1     -12.038   8.904  68.340  1.00  0.00     0.000 HD 
HETATM   22  C   UNL     1     -10.304   8.624  67.222  1.00  0.00    -0.296 C  
HETATM   23  C   UNL     1     -10.387   9.552  69.441  1.00  0.00    -0.214 C  
HETATM   24  C   UNL     1      -9.960  10.021  66.682  1.00  0.00    -0.216 C  
ENDBRANCH   1  18
TORSDOF 6
ENDMDL
MODEL       19
REMARK 921   NORMALIZED FREE ENERGY PREDICTED BY IDOCK:   -5.74 KCAL/MOL
REMARK 922        TOTAL FREE ENERGY PREDICTED BY IDOCK:   -8.88 KCAL/MOL
REMARK 923 INTER-LIGAND FREE ENERGY PREDICTED BY IDOCK:   -8.13 KCAL/MOL
REMARK 924 INTRA-LIGAND FREE ENERGY PREDICTED BY IDOCK:   -0.75 KCAL/MOL
REMARK 927      BINDING AFFINITY PREDICTED BY RF-SCORE:    0.00 PKD
ROOT
HETATM    1  C   UNL     1     -11.890  13.026  67.430  1.00  0.00    -0.357 C  
ENDROOT
BRANCH   1   2
HETATM    2  C   UNL     1     -11.629  12.429  66.054  1.00  0.00    -0.455 A  
HETATM    3  C   UNL     1     -10.178  11.207  64.531  1.00  0.00    -0.383 A  
HETATM    4  C   UNL     1     -12.467  12.731  64.966  1.00  0.00    -0.572 A  
HETATM    5  C   UNL     1     -12.149  12.303  63.678  1.00  0.00    -0.648 A  
HETATM    6  C   UNL     1     -10.998  11.549  63.457  1.00  0.00    -0.453 A  
HETATM    7  C   UNL     1     -10.493  11.641  65.821  1.00  0.00    -0.308 A  
ENDBRANCH   1   2
BRANCH   1   8
HETATM    8  O   UNL     1     -10.951  12.412  68.339  1.00  0.00    -0.217 OA 
BRANCH   8   9
HETATM    9  C   UNL     1     -11.352  11.540  69.312  1.00  0.00    -0.288 A  
HETATM   10  C   UNL     1     -12.673  10.881  71.248  1.00  0.00    -0.542 A  
HETATM   11  C   UNL     1     -10.901   9.451  70.477  1.00  0.00    -0.336 A  
HETATM   12  C   UNL     1     -11.913   9.725  71.392  1.00  0.00    -0.493 A  
HETATM   13  C   UNL     1     -12.395  11.781  70.213  1.00  0.00    -0.320 A  
HETATM   14  C   UNL     1     -10.636  10.332  69.421  1.00  0.00    -0.237 A  
BRANCH  14  15
HETATM   15  O   UNL     1      -9.624   9.907  68.596  1.00  0.00    -0.150 OA 
BRANCH  15  16
HETATM   16  C   UNL     1      -9.594   8.505  68.324  1.00  0.00    -0.144 C  
HETATM   17  C   UNL     1     -10.494   8.234  67.129  1.00  0.00    -0.386 C  
ENDBRANCH  15  16
ENDBRANCH  14  15
ENDBRANCH   8   9
ENDBRANCH   1   8
BRANCH   1  18
HETATM   18  C   UNL     1     -11.658  14.565  67.528  1.00  0.00    -0.381 C  
HETATM   19  N   UNL     1     -10.477  14.793  69.772  1.00  0.00    -0.436 NA 
HETATM   20  O   UNL     1     -10.433  14.965  66.867  1.00  0.00    -0.271 OA 
HETATM   21  H   UNL     1     -10.492  13.820  70.080  1.00  0.00     0.000 HD 
HETATM   22  C   UNL     1      -9.256  15.118  69.017  1.00  0.00    -0.221 C  
HETATM   23  C   UNL     1     -11.663  15.142  68.965  1.00  0.00    -0.335 C  
HETATM   24  C   UNL     1      -9.260  14.570  67.583  1.00  0.00    -0.195 C  
ENDBRANCH   1  18
TORSDOF 6
ENDMDL
MODEL       20
REMARK 921   NORMALIZED FREE ENERGY PREDICTED BY IDOCK:   -5.74 KCAL/MOL
REMARK 922        TOTAL FREE ENERGY PREDICTED BY IDOCK:   -8.87 KCAL/MOL
REMARK 923 INTER-LIGAND FREE ENERGY PREDICTED BY IDOCK:   -8.33 KCAL/MOL
REMARK 924 INTRA-LIGAND FREE ENERGY PREDICTED BY IDOCK:   -0.54 KCAL/MOL
REMARK 927      BINDING AFFINITY PREDICTED BY RF-SCORE:    0.00 PKD
ROOT
HETATM    1  C   UNL     1     -10.313  14.405  68.667  1.00  0.00    -0.245 C  
ENDROOT
BRANCH   1   2
HETATM    2  C   UNL     1      -9.943  15.877  68.556  1.00  0.00    -0.216 A  
HETATM    3  C   UNL     1     -10.528  18.151  67.919  1.00  0.00    -0.408 A  
HETATM    4  C   UNL     1      -8.619  16.306  68.758  1.00  0.00    -0.240 A  
HETATM    5  C   UNL     1      -8.251  17.629  68.516  1.00  0.00    -0.292 A  
HETATM    6  C   UNL     1      -9.203  18.551  68.085  1.00  0.00    -0.329 A  
HETATM    7  C   UNL     1     -10.897  16.825  68.155  1.00  0.00    -0.353 A  
ENDBRANCH   1   2
BRANCH   1   8
HETATM    8  O   UNL     1     -11.753  14.339  68.765  1.00  0.00    -0.303 OA 
BRANCH   8   9
HETATM    9  C   UNL     1     -12.393  14.288  69.971  1.00  0.00    -0.346 A  
HETATM   10  C   UNL     1     -13.467  15.275  71.921  1.00  0.00    -0.547 A  
HETATM   11  C   UNL     1     -13.014  12.915  71.882  1.00  0.00    -0.405 A  
HETATM   12  C   UNL     1     -13.496  14.035  72.551  1.00  0.00    -0.661 A  
HETATM   13  C   UNL     1     -12.920  15.399  70.638  1.00  0.00    -0.450 A  
HETATM   14  C   UNL     1     -12.493  13.025  70.587  1.00  0.00    -0.268 A  
BRANCH  14  15
HETATM   15  O   UNL     1     -12.081  11.825  70.061  1.00  0.00    -0.319 OA 
BRANCH  15  16
HETATM   16  C   UNL     1     -12.648  10.659  70.659  1.00  0.00    -0.365 C  
HETATM   17  C   UNL     1     -11.517   9.699  70.993  1.00  0.00    -0.444 C  
ENDBRANCH  15  16
ENDBRANCH  14  15
ENDBRANCH   8   9
ENDBRANCH   1   8
BRANCH   1  18
HETATM   18  C   UNL     1      -9.914  13.537  67.436  1.00  0.00    -0.234 C  
HETATM   19  N   UNL     1     -12.017  12.155  67.042  1.00  0.00    -0.598 NA 
HETATM   20  O   UNL     1     -10.163  14.230  66.188  1.00  0.00    -0.287 OA 
HETATM   21  H   UNL     1     -12.588  12.475  67.824  1.00  0.00     0.000 HD 
HETATM   22  C   UNL     1     -12.234  12.959  65.830  1.00  0.00    -0.439 C  
HETATM   23  C   UNL     1     -10.577  12.139  67.371  1.00  0.00    -0.226 C  
HETATM   24  C   UNL     1     -11.555  14.336  65.879  1.00  0.00    -0.358 C  
ENDBRANCH   1  18
TORSDOF 6
ENDMDL
MODEL       21
REMARK 921   NORMALIZED FREE ENERGY PREDICTED BY IDOCK:   -5.70 KCAL/MOL
REMARK 922        TOTAL FREE ENERGY PREDICTED BY IDOCK:   -8.82 KCAL/MOL
REMARK 923 INTER-LIGAND FREE ENERGY PREDICTED BY IDOCK:   -7.86 KCAL/MOL
REMARK 924 INTRA-LIGAND FREE ENERGY PREDICTED BY IDOCK:   -0.96 KCAL/MOL
REMARK 927      BINDING AFFINITY PREDICTED BY RF-SCORE:    0.00 PKD
ROOT
HETATM    1  C   UNL     1     -11.300  13.120  68.037  1.00  0.00    -0.292 C  
ENDROOT
BRANCH   1   2
HETATM    2  C   UNL     1     -10.568  11.786  68.072  1.00  0.00    -0.235 A  
HETATM    3  C   UNL     1     -10.614   9.357  67.945  1.00  0.00    -0.293 A  
HETATM    4  C   UNL     1      -9.227  11.709  68.490  1.00  0.00    -0.163 A  
HETATM    5  C   UNL     1      -8.602  10.475  68.661  1.00  0.00    -0.139 A  
HETATM    6  C   UNL     1      -9.298   9.296  68.399  1.00  0.00    -0.142 A  
HETATM    7  C   UNL     1     -11.244  10.593  67.779  1.00  0.00    -0.383 A  
ENDBRANCH   1   2
BRANCH   1   8
HETATM    8  O   UNL     1     -11.077  13.756  69.314  1.00  0.00    -0.251 OA 
BRANCH   8   9
HETATM    9  C   UNL     1     -12.098  13.993  70.190  1.00  0.00    -0.351 A  
HETATM   10  C   UNL     1     -13.673  15.420  71.379  1.00  0.00    -0.591 A  
HETATM   11  C   UNL     1     -13.484  13.101  71.981  1.00  0.00    -0.598 A  
HETATM   12  C   UNL     1     -14.048  14.355  72.191  1.00  0.00    -0.627 A  
HETATM   13  C   UNL     1     -12.705  15.239  70.384  1.00  0.00    -0.400 A  
HETATM   14  C   UNL     1     -12.537  12.904  70.968  1.00  0.00    -0.287 A  
BRANCH  14  15
HETATM   15  O   UNL     1     -12.095  11.607  70.878  1.00  0.00    -0.341 OA 
BRANCH  15  16
HETATM   16  C   UNL     1     -13.000  10.610  71.355  1.00  0.00    -0.443 C  
HETATM   17  C   UNL     1     -12.237   9.302  71.491  1.00  0.00    -0.439 C  
ENDBRANCH  15  16
ENDBRANCH  14  15
ENDBRANCH   8   9
ENDBRANCH   1   8
BRANCH   1  18
HETATM   18  C   UNL     1     -10.789  14.117  66.952  1.00  0.00    -0.296 C  
HETATM   19  N   UNL     1     -10.967  12.735  64.820  1.00  0.00    -0.292 NA 
HETATM   20  O   UNL     1     -11.854  14.968  66.462  1.00  0.00    -0.215 OA 
HETATM   21  H   UNL     1     -11.281  11.847  65.211  1.00  0.00     0.000 HD 
HETATM   22  C   UNL     1     -12.091  13.602  64.435  1.00  0.00    -0.427 C  
HETATM   23  C   UNL     1     -10.075  13.466  65.742  1.00  0.00    -0.288 C  
HETATM   24  C   UNL     1     -12.786  14.271  65.630  1.00  0.00    -0.373 C  
ENDBRANCH   1  18
TORSDOF 6
ENDMDL
MODEL       22
REMARK 921   NORMALIZED FREE ENERGY PREDICTED BY IDOCK:   -5.69 KCAL/MOL
REMARK 922        TOTAL FREE ENERGY PREDICTED BY IDOCK:   -8.81 KCAL/MOL
REMARK 923 INTER-LIGAND FREE ENERGY PREDICTED BY IDOCK:   -8.82 KCAL/MOL
REMARK 924 INTRA-LIGAND FREE ENERGY PREDICTED BY IDOCK:    0.01 KCAL/MOL
REMARK 927      BINDING AFFINITY PREDICTED BY RF-SCORE:    0.00 PKD
ROOT
HETATM    1  C   UNL     1     -12.196  13.526  70.315  1.00  0.00    -0.347 C  
ENDROOT
BRANCH   1   2
HETATM    2  C   UNL     1     -12.198  12.016  70.504  1.00  0.00    -0.414 A  
HETATM    3  C   UNL     1     -12.860  10.057  71.787  1.00  0.00    -0.546 A  
HETATM    4  C   UNL     1     -11.365  11.190  69.729  1.00  0.00    -0.354 A  
HETATM    5  C   UNL     1     -11.260   9.826  69.999  1.00  0.00    -0.297 A  
HETATM    6  C   UNL     1     -11.999   9.260  71.036  1.00  0.00    -0.369 A  
HETATM    7  C   UNL     1     -12.962  11.425  71.522  1.00  0.00    -0.505 A  
ENDBRANCH   1   2
BRANCH   1   8
HETATM    8  O   UNL     1     -12.344  13.773  68.899  1.00  0.00    -0.291 OA 
BRANCH   8   9
HETATM    9  C   UNL     1     -11.382  14.416  68.174  1.00  0.00    -0.294 A  
HETATM   10  C   UNL     1      -9.535  15.977  67.889  1.00  0.00    -0.210 A  
HETATM   11  C   UNL     1     -10.524  14.943  65.958  1.00  0.00    -0.326 A  
HETATM   12  C   UNL     1      -9.601  15.827  66.508  1.00  0.00    -0.288 A  
HETATM   13  C   UNL     1     -10.419  15.275  68.716  1.00  0.00    -0.237 A  
HETATM   14  C   UNL     1     -11.392  14.214  66.780  1.00  0.00    -0.343 A  
BRANCH  14  15
HETATM   15  O   UNL     1     -12.225  13.372  66.084  1.00  0.00    -0.416 OA 
BRANCH  15  16
HETATM   16  C   UNL     1     -12.328  13.624  64.681  1.00  0.00    -0.371 C  
HETATM   17  C   UNL     1     -12.076  12.317  63.945  1.00  0.00    -0.598 C  
ENDBRANCH  15  16
ENDBRANCH  14  15
ENDBRANCH   8   9
ENDBRANCH   1   8
BRANCH   1  18
HETATM   18  C   UNL     1     -13.368  14.275  71.019  1.00  0.00    -0.265 C  
HETATM   19  N   UNL     1     -12.621  14.282  73.454  1.00  0.00    -0.292 NA 
HETATM   20  O   UNL     1     -13.185  15.711  70.982  1.00  0.00    -0.508 OA 
HETATM   21  H   UNL     1     -11.758  13.744  73.375  1.00  0.00     0.000 HD 
HETATM   22  C   UNL     1     -12.391  15.727  73.306  1.00  0.00    -0.502 C  
HETATM   23  C   UNL     1     -13.642  13.844  72.481  1.00  0.00    -0.576 C  
HETATM   24  C   UNL     1     -12.145  16.163  71.854  1.00  0.00    -0.476 C  
ENDBRANCH   1  18
TORSDOF 6
ENDMDL
MODEL       23
REMARK 921   NORMALIZED FREE ENERGY PREDICTED BY IDOCK:   -5.69 KCAL/MOL
REMARK 922        TOTAL FREE ENERGY PREDICTED BY IDOCK:   -8.81 KCAL/MOL
REMARK 923 INTER-LIGAND FREE ENERGY PREDICTED BY IDOCK:   -7.53 KCAL/MOL
REMARK 924 INTRA-LIGAND FREE ENERGY PREDICTED BY IDOCK:   -1.28 KCAL/MOL
REMARK 927      BINDING AFFINITY PREDICTED BY RF-SCORE:    0.00 PKD
ROOT
HETATM    1  C   UNL     1     -10.748  12.807  67.610  1.00  0.00    -0.219 C  
ENDROOT
BRANCH   1   2
HETATM    2  C   UNL     1     -11.076  12.388  66.183  1.00  0.00    -0.340 A  
HETATM    3  C   UNL     1     -10.452  11.239  64.131  1.00  0.00    -0.431 A  
HETATM    4  C   UNL     1     -12.178  12.939  65.505  1.00  0.00    -0.527 A  
HETATM    5  C   UNL     1     -12.395  12.667  64.155  1.00  0.00    -0.518 A  
HETATM    6  C   UNL     1     -11.526  11.826  63.463  1.00  0.00    -0.489 A  
HETATM    7  C   UNL     1     -10.230  11.516  65.483  1.00  0.00    -0.303 A  
ENDBRANCH   1   2
BRANCH   1   8
HETATM    8  O   UNL     1     -10.301  11.622  68.303  1.00  0.00    -0.186 OA 
BRANCH   8   9
HETATM    9  C   UNL     1     -11.005  11.085  69.344  1.00  0.00    -0.248 A  
HETATM   10  C   UNL     1     -12.688  11.136  71.103  1.00  0.00    -0.510 A  
HETATM   11  C   UNL     1     -11.165   9.282  70.971  1.00  0.00    -0.392 A  
HETATM   12  C   UNL     1     -12.213   9.933  71.614  1.00  0.00    -0.482 A  
HETATM   13  C   UNL     1     -12.088  11.707  69.974  1.00  0.00    -0.395 A  
HETATM   14  C   UNL     1     -10.579   9.832  69.824  1.00  0.00    -0.257 A  
BRANCH  14  15
HETATM   15  O   UNL     1      -9.574   9.056  69.299  1.00  0.00    -0.158 OA 
BRANCH  15  16
HETATM   16  C   UNL     1      -9.994   7.860  68.641  1.00  0.00    -0.191 C  
HETATM   17  C   UNL     1     -10.393   8.216  67.218  1.00  0.00    -0.373 C  
ENDBRANCH  15  16
ENDBRANCH  14  15
ENDBRANCH   8   9
ENDBRANCH   1   8
BRANCH   1  18
HETATM   18  C   UNL     1      -9.599  13.853  67.735  1.00  0.00    -0.222 C  
HETATM   19  N   UNL     1     -10.743  16.006  66.999  1.00  0.00    -0.308 NA 
HETATM   20  O   UNL     1      -9.506  14.388  69.078  1.00  0.00    -0.154 OA 
HETATM   21  H   UNL     1     -11.663  15.641  66.752  1.00  0.00     0.000 HD 
HETATM   22  C   UNL     1     -10.675  16.439  68.403  1.00  0.00    -0.327 C  
HETATM   23  C   UNL     1      -9.666  15.030  66.733  1.00  0.00    -0.241 C  
HETATM   24  C   UNL     1     -10.581  15.275  69.400  1.00  0.00    -0.256 C  
ENDBRANCH   1  18
TORSDOF 6
ENDMDL
MODEL       24
REMARK 921   NORMALIZED FREE ENERGY PREDICTED BY IDOCK:   -5.67 KCAL/MOL
REMARK 922        TOTAL FREE ENERGY PREDICTED BY IDOCK:   -8.78 KCAL/MOL
REMARK 923 INTER-LIGAND FREE ENERGY PREDICTED BY IDOCK:   -8.17 KCAL/MOL
REMARK 924 INTRA-LIGAND FREE ENERGY PREDICTED BY IDOCK:   -0.61 KCAL/MOL
REMARK 927      BINDING AFFINITY PREDICTED BY RF-SCORE:    0.00 PKD
ROOT
HETATM    1  C   UNL     1     -11.412  14.260  68.450  1.00  0.00    -0.301 C  
ENDROOT
BRANCH   1   2
HETATM    2  C   UNL     1     -12.176  14.110  69.758  1.00  0.00    -0.397 A  
HETATM    3  C   UNL     1     -13.323  15.117  71.652  1.00  0.00    -0.521 A  
HETATM    4  C   UNL     1     -12.250  12.867  70.411  1.00  0.00    -0.381 A  
HETATM    5  C   UNL     1     -12.824  12.758  71.677  1.00  0.00    -0.363 A  
HETATM    6  C   UNL     1     -13.351  13.885  72.305  1.00  0.00    -0.599 A  
HETATM    7  C   UNL     1     -12.742  15.228  70.387  1.00  0.00    -0.400 A  
ENDBRANCH   1   2
BRANCH   1   8
HETATM    8  O   UNL     1     -12.393  14.282  67.390  1.00  0.00    -0.311 OA 
BRANCH   8   9
HETATM    9  C   UNL     1     -12.139  13.743  66.160  1.00  0.00    -0.441 A  
HETATM   10  C   UNL     1     -12.026  13.800  63.729  1.00  0.00    -0.365 A  
HETATM   11  C   UNL     1     -11.694  11.719  64.883  1.00  0.00    -0.187 A  
HETATM   12  C   UNL     1     -11.795  12.429  63.692  1.00  0.00    -0.610 A  
HETATM   13  C   UNL     1     -12.195  14.452  64.955  1.00  0.00    -0.418 A  
HETATM   14  C   UNL     1     -11.832  12.369  66.116  1.00  0.00    -0.376 A  
BRANCH  14  15
HETATM   15  O   UNL     1     -11.684  11.531  67.195  1.00  0.00    -0.567 OA 
BRANCH  15  16
HETATM   16  C   UNL     1     -10.569  10.640  67.138  1.00  0.00    -0.260 C  
HETATM   17  C   UNL     1      -9.456  11.217  67.998  1.00  0.00    -0.173 C  
ENDBRANCH  15  16
ENDBRANCH  14  15
ENDBRANCH   8   9
ENDBRANCH   1   8
BRANCH   1  18
HETATM   18  C   UNL     1     -10.592  15.580  68.320  1.00  0.00    -0.255 C  
HETATM   19  N   UNL     1      -8.462  15.022  69.600  1.00  0.00    -0.443 NA 
HETATM   20  O   UNL     1      -9.821  15.613  67.095  1.00  0.00    -0.225 OA 
HETATM   21  H   UNL     1      -8.693  14.084  69.927  1.00  0.00     0.000 HD 
HETATM   22  C   UNL     1      -7.771  15.002  68.301  1.00  0.00    -0.111 C  
HETATM   23  C   UNL     1      -9.652  15.891  69.510  1.00  0.00    -0.239 C  
HETATM   24  C   UNL     1      -8.705  14.719  67.115  1.00  0.00    -0.221 C  
ENDBRANCH   1  18
TORSDOF 6
ENDMDL
MODEL       25
REMARK 921   NORMALIZED FREE ENERGY PREDICTED BY IDOCK:   -5.58 KCAL/MOL
REMARK 922        TOTAL FREE ENERGY PREDICTED BY IDOCK:   -8.67 KCAL/MOL
REMARK 923 INTER-LIGAND FREE ENERGY PREDICTED BY IDOCK:   -7.72 KCAL/MOL
REMARK 924 INTRA-LIGAND FREE ENERGY PREDICTED BY IDOCK:   -0.95 KCAL/MOL
REMARK 927      BINDING AFFINITY PREDICTED BY RF-SCORE:    0.00 PKD
ROOT
HETATM    1  C   UNL     1      -9.781  15.792  67.768  1.00  0.00    -0.216 C  
ENDROOT
BRANCH   1   2
HETATM    2  C   UNL     1     -10.072  17.268  67.537  1.00  0.00    -0.315 A  
HETATM    3  C   UNL     1     -10.530  19.110  66.015  1.00  0.00    -0.546 A  
HETATM    4  C   UNL     1      -9.929  18.203  68.578  1.00  0.00    -0.408 A  
HETATM    5  C   UNL     1     -10.055  19.570  68.333  1.00  0.00    -0.546 A  
HETATM    6  C   UNL     1     -10.345  20.026  67.048  1.00  0.00    -0.555 A  
HETATM    7  C   UNL     1     -10.398  17.740  66.257  1.00  0.00    -0.358 A  
ENDBRANCH   1   2
BRANCH   1   8
HETATM    8  O   UNL     1     -10.946  15.059  67.331  1.00  0.00    -0.298 OA 
BRANCH   8   9
HETATM    9  C   UNL     1     -11.358  13.917  67.957  1.00  0.00    -0.288 A  
HETATM   10  C   UNL     1     -11.953  12.585  69.906  1.00  0.00    -0.371 A  
HETATM   11  C   UNL     1     -11.761  11.525  67.757  1.00  0.00    -0.299 A  
HETATM   12  C   UNL     1     -11.995  11.434  69.126  1.00  0.00    -0.395 A  
HETATM   13  C   UNL     1     -11.638  13.818  69.324  1.00  0.00    -0.362 A  
HETATM   14  C   UNL     1     -11.475  12.761  67.163  1.00  0.00    -0.337 A  
BRANCH  14  15
HETATM   15  O   UNL     1     -11.292  12.682  65.803  1.00  0.00    -0.305 OA 
BRANCH  15  16
HETATM   16  C   UNL     1     -12.463  12.877  65.008  1.00  0.00    -0.492 C  
HETATM   17  C   UNL     1     -12.098  12.616  63.555  1.00  0.00    -0.648 C  
ENDBRANCH  15  16
ENDBRANCH  14  15
ENDBRANCH   8   9
ENDBRANCH   1   8
BRANCH   1  18
HETATM   18  C   UNL     1      -8.575  15.230  66.955  1.00  0.00    -0.257 C  
HETATM   19  N   UNL     1      -6.581  16.253  68.165  1.00  0.00    -0.121 NA 
HETATM   20  O   UNL     1      -8.168  13.925  67.434  1.00  0.00    -0.171 OA 
HETATM   21  H   UNL     1      -7.068  16.824  68.856  1.00  0.00     0.000 HD 
HETATM   22  C   UNL     1      -6.284  14.903  68.669  1.00  0.00    -0.086 C  
HETATM   23  C   UNL     1      -7.332  16.151  66.897  1.00  0.00    -0.220 C  
HETATM   24  C   UNL     1      -7.509  13.978  68.703  1.00  0.00    -0.125 C  
ENDBRANCH   1  18
TORSDOF 6
ENDMDL
MODEL       26
REMARK 921   NORMALIZED FREE ENERGY PREDICTED BY IDOCK:   -5.56 KCAL/MOL
REMARK 922        TOTAL FREE ENERGY PREDICTED BY IDOCK:   -8.63 KCAL/MOL
REMARK 923 INTER-LIGAND FREE ENERGY PREDICTED BY IDOCK:   -7.69 KCAL/MOL
REMARK 924 INTRA-LIGAND FREE ENERGY PREDICTED BY IDOCK:   -0.94 KCAL/MOL
REMARK 927      BINDING AFFINITY PREDICTED BY RF-SCORE:    0.00 PKD
ROOT
HETATM    1  C   UNL     1     -11.083  14.496  67.854  1.00  0.00    -0.279 C  
ENDROOT
BRANCH   1   2
HETATM    2  C   UNL     1     -11.604  13.800  69.104  1.00  0.00    -0.363 A  
HETATM    3  C   UNL     1     -12.086  11.752  70.325  1.00  0.00    -0.426 A  
HETATM    4  C   UNL     1     -12.298  14.518  70.093  1.00  0.00    -0.398 A  
HETATM    5  C   UNL     1     -12.901  13.860  71.164  1.00  0.00    -0.423 A  
HETATM    6  C   UNL     1     -12.805  12.474  71.276  1.00  0.00    -0.337 A  
HETATM    7  C   UNL     1     -11.487  12.410  69.248  1.00  0.00    -0.349 A  
ENDBRANCH   1   2
BRANCH   1   8
HETATM    8  O   UNL     1      -9.767  15.000  68.172  1.00  0.00    -0.209 OA 
BRANCH   8   9
HETATM    9  C   UNL     1      -9.522  16.336  68.323  1.00  0.00    -0.214 A  
HETATM   10  C   UNL     1     -10.173  18.679  68.439  1.00  0.00    -0.415 A  
HETATM   11  C   UNL     1      -7.842  18.095  68.400  1.00  0.00    -0.306 A  
HETATM   12  C   UNL     1      -8.838  19.067  68.423  1.00  0.00    -0.379 A  
HETATM   13  C   UNL     1     -10.512  17.322  68.391  1.00  0.00    -0.381 A  
HETATM   14  C   UNL     1      -8.173  16.735  68.382  1.00  0.00    -0.224 A  
BRANCH  14  15
HETATM   15  O   UNL     1      -7.077  15.907  68.382  1.00  0.00    -0.113 OA 
BRANCH  15  16
HETATM   16  C   UNL     1      -6.537  15.593  69.668  1.00  0.00    -0.181 C  
HETATM   17  C   UNL     1      -5.584  14.420  69.509  1.00  0.00    -0.092 C  
ENDBRANCH  15  16
ENDBRANCH  14  15
ENDBRANCH   8   9
ENDBRANCH   1   8
BRANCH   1  18
HETATM   18  C   UNL     1     -10.913  13.569  66.613  1.00  0.00    -0.288 C  
HETATM   19  N   UNL     1     -13.020  14.066  65.272  1.00  0.00    -0.767 NA 
HETATM   20  O   UNL     1     -10.128  14.203  65.573  1.00  0.00    -0.329 OA 
HETATM   21  H   UNL     1     -13.484  14.716  65.907  1.00  0.00     0.000 HD 
HETATM   22  C   UNL     1     -12.156  14.758  64.303  1.00  0.00    -0.394 C  
HETATM   23  C   UNL     1     -12.232  13.047  65.994  1.00  0.00    -0.399 C  
HETATM   24  C   UNL     1     -10.834  15.254  64.907  1.00  0.00    -0.425 C  
ENDBRANCH   1  18
TORSDOF 6
ENDMDL
MODEL       27
REMARK 921   NORMALIZED FREE ENERGY PREDICTED BY IDOCK:   -5.55 KCAL/MOL
REMARK 922        TOTAL FREE ENERGY PREDICTED BY IDOCK:   -8.63 KCAL/MOL
REMARK 923 INTER-LIGAND FREE ENERGY PREDICTED BY IDOCK:   -8.00 KCAL/MOL
REMARK 924 INTRA-LIGAND FREE ENERGY PREDICTED BY IDOCK:   -0.63 KCAL/MOL
REMARK 927      BINDING AFFINITY PREDICTED BY RF-SCORE:    0.00 PKD
ROOT
HETATM    1  C   UNL     1     -10.328  12.613  68.305  1.00  0.00    -0.241 C  
ENDROOT
BRANCH   1   2
HETATM    2  C   UNL     1     -10.733  13.162  66.944  1.00  0.00    -0.270 A  
HETATM    3  C   UNL     1     -10.332  14.675  65.081  1.00  0.00    -0.431 A  
HETATM    4  C   UNL     1     -11.986  12.854  66.385  1.00  0.00    -0.462 A  
HETATM    5  C   UNL     1     -12.416  13.469  65.210  1.00  0.00    -0.525 A  
HETATM    6  C   UNL     1     -11.594  14.389  64.562  1.00  0.00    -0.393 A  
HETATM    7  C   UNL     1      -9.903  14.064  66.262  1.00  0.00    -0.318 A  
ENDBRANCH   1   2
BRANCH   1   8
HETATM    8  O   UNL     1     -11.518  12.059  68.906  1.00  0.00    -0.250 OA 
BRANCH   8   9
HETATM    9  C   UNL     1     -12.140  12.659  69.964  1.00  0.00    -0.269 A  
HETATM   10  C   UNL     1     -12.838  14.580  71.287  1.00  0.00    -0.402 A  
HETATM   11  C   UNL     1     -13.169  12.362  72.149  1.00  0.00    -0.491 A  
HETATM   12  C   UNL     1     -13.264  13.740  72.310  1.00  0.00    -0.563 A  
HETATM   13  C   UNL     1     -12.281  14.043  70.121  1.00  0.00    -0.425 A  
HETATM   14  C   UNL     1     -12.641  11.815  70.973  1.00  0.00    -0.310 A  
BRANCH  14  15
HETATM   15  O   UNL     1     -12.637  10.441  70.964  1.00  0.00    -0.329 OA 
BRANCH  15  16
HETATM   16  C   UNL     1     -13.067   9.812  72.172  1.00  0.00    -0.422 C  
HETATM   17  C   UNL     1     -13.993   8.664  71.806  1.00  0.00    -0.492 C  
ENDBRANCH  15  16
ENDBRANCH  14  15
ENDBRANCH   8   9
ENDBRANCH   1   8
BRANCH   1  18
HETATM   18  C   UNL     1      -9.278  11.462  68.258  1.00  0.00    -0.183 C  
HETATM   19  N   UNL     1     -10.716   9.401  68.675  1.00  0.00    -0.345 NA 
HETATM   20  O   UNL     1      -9.049  11.000  66.904  1.00  0.00    -0.153 OA 
HETATM   21  H   UNL     1     -11.622   9.845  68.822  1.00  0.00     0.000 HD 
HETATM   22  C   UNL     1     -10.493   9.047  67.265  1.00  0.00    -0.273 C  
HETATM   23  C   UNL     1      -9.599  10.240  69.154  1.00  0.00    -0.218 C  
HETATM   24  C   UNL     1     -10.148  10.252  66.377  1.00  0.00    -0.234 C  
ENDBRANCH   1  18
TORSDOF 6
ENDMDL
MODEL       28
REMARK 921   NORMALIZED FREE ENERGY PREDICTED BY IDOCK:   -5.55 KCAL/MOL
REMARK 922        TOTAL FREE ENERGY PREDICTED BY IDOCK:   -8.62 KCAL/MOL
REMARK 923 INTER-LIGAND FREE ENERGY PREDICTED BY IDOCK:   -7.90 KCAL/MOL
REMARK 924 INTRA-LIGAND FREE ENERGY PREDICTED BY IDOCK:   -0.72 KCAL/MOL
REMARK 927      BINDING AFFINITY PREDICTED BY RF-SCORE:    0.00 PKD
ROOT
HETATM    1  C   UNL     1      -9.409  15.695  68.859  1.00  0.00    -0.223 C  
ENDROOT
BRANCH   1   2
HETATM    2  C   UNL     1      -9.473  17.141  68.388  1.00  0.00    -0.276 A  
HETATM    3  C   UNL     1      -8.478  19.358  68.259  1.00  0.00    -0.376 A  
HETATM    4  C   UNL     1     -10.660  17.675  67.856  1.00  0.00    -0.390 A  
HETATM    5  C   UNL     1     -10.763  19.034  67.560  1.00  0.00    -0.532 A  
HETATM    6  C   UNL     1      -9.675  19.880  67.771  1.00  0.00    -0.516 A  
HETATM    7  C   UNL     1      -8.376  17.998  68.563  1.00  0.00    -0.313 A  
ENDBRANCH   1   2
BRANCH   1   8
HETATM    8  O   UNL     1     -10.767  15.205  68.898  1.00  0.00    -0.225 OA 
BRANCH   8   9
HETATM    9  C   UNL     1     -11.464  15.101  70.069  1.00  0.00    -0.286 A  
HETATM   10  C   UNL     1     -12.223  15.900  72.240  1.00  0.00    -0.585 A  
HETATM   11  C   UNL     1     -12.692  13.639  71.577  1.00  0.00    -0.420 A  
HETATM   12  C   UNL     1     -12.762  14.651  72.528  1.00  0.00    -0.448 A  
HETATM   13  C   UNL     1     -11.579  16.124  71.017  1.00  0.00    -0.434 A  
HETATM   14  C   UNL     1     -12.077  13.863  70.339  1.00  0.00    -0.351 A  
BRANCH  14  15
HETATM   15  O   UNL     1     -12.111  12.770  69.507  1.00  0.00    -0.280 OA 
BRANCH  15  16
HETATM   16  C   UNL     1     -12.156  11.498  70.155  1.00  0.00    -0.351 C  
HETATM   17  C   UNL     1     -11.067  10.622  69.558  1.00  0.00    -0.328 C  
ENDBRANCH  15  16
ENDBRANCH  14  15
ENDBRANCH   8   9
ENDBRANCH   1   8
BRANCH   1  18
HETATM   18  C   UNL     1      -8.620  14.736  67.916  1.00  0.00    -0.166 C  
HETATM   19  N   UNL     1     -10.466  13.244  66.994  1.00  0.00    -0.248 NA 
HETATM   20  O   UNL     1      -8.449  15.304  66.595  1.00  0.00    -0.259 OA 
HETATM   21  H   UNL     1     -11.265  13.610  67.511  1.00  0.00     0.000 HD 
HETATM   22  C   UNL     1     -10.277  13.927  65.704  1.00  0.00    -0.328 C  
HETATM   23  C   UNL     1      -9.215  13.313  67.775  1.00  0.00    -0.209 C  
HETATM   24  C   UNL     1      -9.663  15.328  65.838  1.00  0.00    -0.355 C  
ENDBRANCH   1  18
TORSDOF 6
ENDMDL
MODEL       29
REMARK 921   NORMALIZED FREE ENERGY PREDICTED BY IDOCK:   -5.54 KCAL/MOL
REMARK 922        TOTAL FREE ENERGY PREDICTED BY IDOCK:   -8.61 KCAL/MOL
REMARK 923 INTER-LIGAND FREE ENERGY PREDICTED BY IDOCK:   -7.75 KCAL/MOL
REMARK 924 INTRA-LIGAND FREE ENERGY PREDICTED BY IDOCK:   -0.86 KCAL/MOL
REMARK 927      BINDING AFFINITY PREDICTED BY RF-SCORE:    0.00 PKD
ROOT
HETATM    1  C   UNL     1     -10.777  13.720  66.569  1.00  0.00    -0.284 C  
ENDROOT
BRANCH   1   2
HETATM    2  C   UNL     1     -10.447  15.176  66.867  1.00  0.00    -0.282 A  
HETATM    3  C   UNL     1     -10.776  17.175  68.214  1.00  0.00    -0.363 A  
HETATM    4  C   UNL     1      -9.702  15.948  65.958  1.00  0.00    -0.375 A  
HETATM    5  C   UNL     1      -9.523  17.316  66.160  1.00  0.00    -0.204 A  
HETATM    6  C   UNL     1     -10.069  17.934  67.283  1.00  0.00    -0.344 A  
HETATM    7  C   UNL     1     -10.962  15.805  68.010  1.00  0.00    -0.330 A  
ENDBRANCH   1   2
BRANCH   1   8
HETATM    8  O   UNL     1     -10.630  12.994  67.808  1.00  0.00    -0.220 OA 
BRANCH   8   9
HETATM    9  C   UNL     1     -10.273  11.675  67.834  1.00  0.00    -0.189 A  
HETATM   10  C   UNL     1      -9.172   9.690  66.954  1.00  0.00    -0.172 A  
HETATM   11  C   UNL     1     -10.644   9.492  68.844  1.00  0.00    -0.239 A  
HETATM   12  C   UNL     1      -9.809   8.897  67.903  1.00  0.00    -0.205 A  
HETATM   13  C   UNL     1      -9.402  11.070  66.921  1.00  0.00    -0.189 A  
HETATM   14  C   UNL     1     -10.856  10.876  68.837  1.00  0.00    -0.219 A  
BRANCH  14  15
HETATM   15  O   UNL     1     -11.688  11.306  69.842  1.00  0.00    -0.293 OA 
BRANCH  15  16
HETATM   16  C   UNL     1     -11.997  10.338  70.846  1.00  0.00    -0.375 C  
HETATM   17  C   UNL     1     -13.073  10.919  71.750  1.00  0.00    -0.564 C  
ENDBRANCH  15  16
ENDBRANCH  14  15
ENDBRANCH   8   9
ENDBRANCH   1   8
BRANCH   1  18
HETATM   18  C   UNL     1     -12.236  13.468  66.079  1.00  0.00    -0.445 C  
HETATM   19  N   UNL     1     -12.189  14.427  63.720  1.00  0.00    -1.040 NA 
HETATM   20  O   UNL     1     -12.390  12.143  65.514  1.00  0.00    -0.548 OA 
HETATM   21  H   UNL     1     -11.236  14.789  63.695  1.00  0.00     0.000 HD 
HETATM   22  C   UNL     1     -12.271  13.042  63.231  1.00  0.00    -0.382 C  
HETATM   23  C   UNL     1     -12.782  14.508  65.070  1.00  0.00    -0.144 C  
HETATM   24  C   UNL     1     -11.755  12.005  64.239  1.00  0.00    -0.344 C  
ENDBRANCH   1  18
TORSDOF 6
ENDMDL
MODEL       30
REMARK 921   NORMALIZED FREE ENERGY PREDICTED BY IDOCK:   -5.53 KCAL/MOL
REMARK 922        TOTAL FREE ENERGY PREDICTED BY IDOCK:   -8.59 KCAL/MOL
REMARK 923 INTER-LIGAND FREE ENERGY PREDICTED BY IDOCK:   -7.12 KCAL/MOL
REMARK 924 INTRA-LIGAND FREE ENERGY PREDICTED BY IDOCK:   -1.47 KCAL/MOL
REMARK 927      BINDING AFFINITY PREDICTED BY RF-SCORE:    0.00 PKD
ROOT
HETATM    1  C   UNL     1     -10.537  14.126  66.272  1.00  0.00    -0.284 C  
ENDROOT
BRANCH   1   2
HETATM    2  C   UNL     1     -10.591  15.591  66.680  1.00  0.00    -0.307 A  
HETATM    3  C   UNL     1     -10.341  17.944  66.112  1.00  0.00    -0.352 A  
HETATM    4  C   UNL     1     -10.708  15.960  68.032  1.00  0.00    -0.301 A  
HETATM    5  C   UNL     1     -10.613  17.296  68.419  1.00  0.00    -0.368 A  
HETATM    6  C   UNL     1     -10.418  18.289  67.460  1.00  0.00    -0.431 A  
HETATM    7  C   UNL     1     -10.430  16.605  65.723  1.00  0.00    -0.324 A  
ENDBRANCH   1   2
BRANCH   1   8
HETATM    8  O   UNL     1      -9.862  13.418  67.334  1.00  0.00    -0.220 OA 
BRANCH   8   9
HETATM    9  C   UNL     1      -8.670  12.781  67.134  1.00  0.00    -0.202 A  
HETATM   10  C   UNL     1      -7.285  10.889  66.479  1.00  0.00    -0.142 A  
HETATM   11  C   UNL     1      -6.269  12.794  67.533  1.00  0.00    -0.159 A  
HETATM   12  C   UNL     1      -6.155  11.519  66.989  1.00  0.00    -0.131 A  
HETATM   13  C   UNL     1      -8.534  11.517  66.550  1.00  0.00    -0.160 A  
HETATM   14  C   UNL     1      -7.510  13.442  67.581  1.00  0.00    -0.178 A  
BRANCH  14  15
HETATM   15  O   UNL     1      -7.447  14.701  68.128  1.00  0.00    -0.106 OA 
BRANCH  15  16
HETATM   16  C   UNL     1      -6.375  15.524  67.666  1.00  0.00    -0.155 C  
HETATM   17  C   UNL     1      -6.972  16.778  67.048  1.00  0.00    -0.242 C  
ENDBRANCH  15  16
ENDBRANCH  14  15
ENDBRANCH   8   9
ENDBRANCH   1   8
BRANCH   1  18
HETATM   18  C   UNL     1     -11.928  13.443  66.101  1.00  0.00    -0.413 C  
HETATM   19  N   UNL     1     -12.495  13.970  63.674  1.00  0.00    -1.042 NA 
HETATM   20  O   UNL     1     -11.798  12.045  65.744  1.00  0.00    -0.466 OA 
HETATM   21  H   UNL     1     -11.690  14.545  63.426  1.00  0.00     0.000 HD 
HETATM   22  C   UNL     1     -12.269  12.545  63.386  1.00  0.00    -0.517 C  
HETATM   23  C   UNL     1     -12.880  14.130  65.091  1.00  0.00    -0.294 C  
HETATM   24  C   UNL     1     -11.347  11.853  64.400  1.00  0.00    -0.326 C  
ENDBRANCH   1  18
TORSDOF 6
ENDMDL
MODEL       31
REMARK 921   NORMALIZED FREE ENERGY PREDICTED BY IDOCK:   -5.49 KCAL/MOL
REMARK 922        TOTAL FREE ENERGY PREDICTED BY IDOCK:   -8.54 KCAL/MOL
REMARK 923 INTER-LIGAND FREE ENERGY PREDICTED BY IDOCK:   -7.26 KCAL/MOL
REMARK 924 INTRA-LIGAND FREE ENERGY PREDICTED BY IDOCK:   -1.28 KCAL/MOL
REMARK 927      BINDING AFFINITY PREDICTED BY RF-SCORE:    0.00 PKD
ROOT
HETATM    1  C   UNL     1     -10.661  13.999  66.387  1.00  0.00    -0.278 C  
ENDROOT
BRANCH   1   2
HETATM    2  C   UNL     1     -10.622  15.432  66.901  1.00  0.00    -0.309 A  
HETATM    3  C   UNL     1     -10.019  17.767  66.580  1.00  0.00    -0.338 A  
HETATM    4  C   UNL     1     -10.928  15.726  68.242  1.00  0.00    -0.325 A  
HETATM    5  C   UNL     1     -10.753  17.012  68.750  1.00  0.00    -0.313 A  
HETATM    6  C   UNL     1     -10.288  18.033  67.922  1.00  0.00    -0.402 A  
HETATM    7  C   UNL     1     -10.188  16.476  66.072  1.00  0.00    -0.372 A  
ENDBRANCH   1   2
BRANCH   1   8
HETATM    8  O   UNL     1     -10.180  13.155  67.456  1.00  0.00    -0.222 OA 
BRANCH   8   9
HETATM    9  C   UNL     1      -8.943  12.576  67.418  1.00  0.00    -0.188 A  
HETATM   10  C   UNL     1      -6.510  12.619  67.340  1.00  0.00    -0.150 A  
HETATM   11  C   UNL     1      -7.670  10.530  67.076  1.00  0.00    -0.110 A  
HETATM   12  C   UNL     1      -6.478  11.247  67.111  1.00  0.00    -0.099 A  
HETATM   13  C   UNL     1      -7.735  13.278  67.494  1.00  0.00    -0.175 A  
HETATM   14  C   UNL     1      -8.898  11.178  67.259  1.00  0.00    -0.144 A  
BRANCH  14  15
HETATM   15  O   UNL     1      -9.975  10.326  67.217  1.00  0.00    -0.175 OA 
BRANCH  15  16
HETATM   16  C   UNL     1      -9.801   9.144  66.434  1.00  0.00    -0.280 C  
HETATM   17  C   UNL     1     -10.573   8.016  67.098  1.00  0.00    -0.367 C  
ENDBRANCH  15  16
ENDBRANCH  14  15
ENDBRANCH   8   9
ENDBRANCH   1   8
BRANCH   1  18
HETATM   18  C   UNL     1     -12.083  13.477  66.017  1.00  0.00    -0.445 C  
HETATM   19  N   UNL     1     -12.306  14.191  63.583  1.00  0.00    -1.092 NA 
HETATM   20  O   UNL     1     -12.050  12.094  65.586  1.00  0.00    -0.545 OA 
HETATM   21  H   UNL     1     -11.425  14.692  63.464  1.00  0.00     0.000 HD 
HETATM   22  C   UNL     1     -12.189  12.768  63.228  1.00  0.00    -0.410 C  
HETATM   23  C   UNL     1     -12.837  14.314  64.955  1.00  0.00    -0.176 C  
HETATM   24  C   UNL     1     -11.464  11.929  64.291  1.00  0.00    -0.346 C  
ENDBRANCH   1  18
TORSDOF 6
ENDMDL
MODEL       32
REMARK 921   NORMALIZED FREE ENERGY PREDICTED BY IDOCK:   -5.46 KCAL/MOL
REMARK 922        TOTAL FREE ENERGY PREDICTED BY IDOCK:   -8.51 KCAL/MOL
REMARK 923 INTER-LIGAND FREE ENERGY PREDICTED BY IDOCK:   -7.47 KCAL/MOL
REMARK 924 INTRA-LIGAND FREE ENERGY PREDICTED BY IDOCK:   -1.04 KCAL/MOL
REMARK 927      BINDING AFFINITY PREDICTED BY RF-SCORE:    0.00 PKD
ROOT
HETATM    1  C   UNL     1     -10.733  14.293  67.378  1.00  0.00    -0.282 C  
ENDROOT
BRANCH   1   2
HETATM    2  C   UNL     1     -10.962  13.408  66.161  1.00  0.00    -0.285 A  
HETATM    3  C   UNL     1     -12.379  12.692  64.318  1.00  0.00    -0.517 A  
HETATM    4  C   UNL     1     -10.099  12.335  65.876  1.00  0.00    -0.272 A  
HETATM    5  C   UNL     1     -10.389  11.439  64.849  1.00  0.00    -0.347 A  
HETATM    6  C   UNL     1     -11.535  11.609  64.075  1.00  0.00    -0.404 A  
HETATM    7  C   UNL     1     -12.094  13.587  65.352  1.00  0.00    -0.447 A  
ENDBRANCH   1   2
BRANCH   1   8
HETATM    8  O   UNL     1     -10.227  15.555  66.892  1.00  0.00    -0.267 OA 
BRANCH   8   9
HETATM    9  C   UNL     1      -8.891  15.841  66.878  1.00  0.00    -0.245 A  
HETATM   10  C   UNL     1      -6.555  15.401  67.406  1.00  0.00    -0.150 A  
HETATM   11  C   UNL     1      -7.177  17.515  66.445  1.00  0.00    -0.326 A  
HETATM   12  C   UNL     1      -6.201  16.673  66.967  1.00  0.00    -0.212 A  
HETATM   13  C   UNL     1      -7.892  14.988  67.359  1.00  0.00    -0.226 A  
HETATM   14  C   UNL     1      -8.512  17.098  66.368  1.00  0.00    -0.272 A  
BRANCH  14  15
HETATM   15  O   UNL     1      -9.345  18.036  65.809  1.00  0.00    -0.489 OA 
BRANCH  15  16
HETATM   16  C   UNL     1      -9.447  19.274  66.516  1.00  0.00    -0.357 C  
HETATM   17  C   UNL     1     -10.417  19.082  67.671  1.00  0.00    -0.523 C  
ENDBRANCH  15  16
ENDBRANCH  14  15
ENDBRANCH   8   9
ENDBRANCH   1   8
BRANCH   1  18
HETATM   18  C   UNL     1     -12.017  14.619  68.200  1.00  0.00    -0.246 C  
HETATM   19  N   UNL     1     -11.453  13.660  70.490  1.00  0.00    -0.491 NA 
HETATM   20  O   UNL     1     -11.965  15.950  68.769  1.00  0.00    -0.368 OA 
HETATM   21  H   UNL     1     -10.541  13.250  70.290  1.00  0.00     0.000 HD 
HETATM   22  C   UNL     1     -11.347  15.047  70.968  1.00  0.00    -0.273 C  
HETATM   23  C   UNL     1     -12.356  13.609  69.323  1.00  0.00    -0.116 C  
HETATM   24  C   UNL     1     -11.037  16.056  69.853  1.00  0.00    -0.352 C  
ENDBRANCH   1  18
TORSDOF 6
ENDMDL
MODEL       33
REMARK 921   NORMALIZED FREE ENERGY PREDICTED BY IDOCK:   -5.45 KCAL/MOL
REMARK 922        TOTAL FREE ENERGY PREDICTED BY IDOCK:   -8.49 KCAL/MOL
REMARK 923 INTER-LIGAND FREE ENERGY PREDICTED BY IDOCK:   -8.28 KCAL/MOL
REMARK 924 INTRA-LIGAND FREE ENERGY PREDICTED BY IDOCK:   -0.21 KCAL/MOL
REMARK 927      BINDING AFFINITY PREDICTED BY RF-SCORE:    0.00 PKD
ROOT
HETATM    1  C   UNL     1     -12.018  11.111  69.313  1.00  0.00    -0.351 C  
ENDROOT
BRANCH   1   2
HETATM    2  C   UNL     1     -11.724  10.028  70.342  1.00  0.00    -0.365 A  
HETATM    3  C   UNL     1     -12.486   8.555  72.122  1.00  0.00    -0.437 A  
HETATM    4  C   UNL     1     -10.401   9.656  70.640  1.00  0.00    -0.365 A  
HETATM    5  C   UNL     1     -10.125   8.771  71.681  1.00  0.00    -0.390 A  
HETATM    6  C   UNL     1     -11.167   8.228  72.431  1.00  0.00    -0.451 A  
HETATM    7  C   UNL     1     -12.764   9.447  71.083  1.00  0.00    -0.342 A  
ENDBRANCH   1   2
BRANCH   1   8
HETATM    8  O   UNL     1     -11.560  12.360  69.874  1.00  0.00    -0.266 OA 
BRANCH   8   9
HETATM    9  C   UNL     1     -12.373  13.152  70.634  1.00  0.00    -0.326 A  
HETATM   10  C   UNL     1     -13.984  13.562  72.413  1.00  0.00    -0.638 A  
HETATM   11  C   UNL     1     -13.430  15.330  70.883  1.00  0.00    -0.441 A  
HETATM   12  C   UNL     1     -14.169  14.866  71.966  1.00  0.00    -0.638 A  
HETATM   13  C   UNL     1     -13.090  12.712  71.752  1.00  0.00    -0.461 A  
HETATM   14  C   UNL     1     -12.512  14.495  70.234  1.00  0.00    -0.348 A  
BRANCH  14  15
HETATM   15  O   UNL     1     -11.849  15.111  69.200  1.00  0.00    -0.308 OA 
BRANCH  15  16
HETATM   16  C   UNL     1     -11.149  16.309  69.539  1.00  0.00    -0.330 C  
HETATM   17  C   UNL     1     -10.764  17.015  68.249  1.00  0.00    -0.372 C  
ENDBRANCH  15  16
ENDBRANCH  14  15
ENDBRANCH   8   9
ENDBRANCH   1   8
BRANCH   1  18
HETATM   18  C   UNL     1     -11.276  10.938  67.953  1.00  0.00    -0.321 C  
HETATM   19  N   UNL     1     -11.429  13.274  66.951  1.00  0.00    -0.322 NA 
HETATM   20  O   UNL     1      -9.845  11.118  68.097  1.00  0.00    -0.169 OA 
HETATM   21  H   UNL     1     -11.988  13.738  67.668  1.00  0.00     0.000 HD 
HETATM   22  C   UNL     1      -9.985  13.401  67.202  1.00  0.00    -0.242 C  
HETATM   23  C   UNL     1     -11.780  11.847  66.806  1.00  0.00    -0.202 C  
HETATM   24  C   UNL     1      -9.476  12.482  68.322  1.00  0.00    -0.201 C  
ENDBRANCH   1  18
TORSDOF 6
ENDMDL
MODEL       34
REMARK 921   NORMALIZED FREE ENERGY PREDICTED BY IDOCK:   -5.44 KCAL/MOL
REMARK 922        TOTAL FREE ENERGY PREDICTED BY IDOCK:   -8.48 KCAL/MOL
REMARK 923 INTER-LIGAND FREE ENERGY PREDICTED BY IDOCK:   -7.21 KCAL/MOL
REMARK 924 INTRA-LIGAND FREE ENERGY PREDICTED BY IDOCK:   -1.27 KCAL/MOL
REMARK 927      BINDING AFFINITY PREDICTED BY RF-SCORE:    0.00 PKD
ROOT
HETATM    1  C   UNL     1     -10.480  12.068  66.287  1.00  0.00    -0.238 C  
ENDROOT
BRANCH   1   2
HETATM    2  C   UNL     1      -9.923  10.681  66.574  1.00  0.00    -0.265 A  
HETATM    3  C   UNL     1     -10.290   8.338  67.117  1.00  0.00    -0.387 A  
HETATM    4  C   UNL     1      -8.548  10.486  66.793  1.00  0.00    -0.126 A  
HETATM    5  C   UNL     1      -8.058   9.245  67.197  1.00  0.00    -0.109 A  
HETATM    6  C   UNL     1      -8.929   8.172  67.371  1.00  0.00    -0.145 A  
HETATM    7  C   UNL     1     -10.784   9.583  66.719  1.00  0.00    -0.136 A  
ENDBRANCH   1   2
BRANCH   1   8
HETATM    8  O   UNL     1      -9.957  12.950  67.305  1.00  0.00    -0.219 OA 
BRANCH   8   9
HETATM    9  C   UNL     1     -10.776  13.655  68.140  1.00  0.00    -0.248 A  
HETATM   10  C   UNL     1     -11.871  15.680  68.933  1.00  0.00    -0.368 A  
HETATM   11  C   UNL     1     -12.023  13.662  70.230  1.00  0.00    -0.397 A  
HETATM   12  C   UNL     1     -12.311  15.014  70.072  1.00  0.00    -0.353 A  
HETATM   13  C   UNL     1     -11.110  15.003  67.973  1.00  0.00    -0.304 A  
HETATM   14  C   UNL     1     -11.288  12.971  69.259  1.00  0.00    -0.251 A  
BRANCH  14  15
HETATM   15  O   UNL     1     -11.109  11.641  69.555  1.00  0.00    -0.233 OA 
BRANCH  15  16
HETATM   16  C   UNL     1     -12.285  10.929  69.945  1.00  0.00    -0.336 C  
HETATM   17  C   UNL     1     -11.875   9.825  70.905  1.00  0.00    -0.420 C  
ENDBRANCH  15  16
ENDBRANCH  14  15
ENDBRANCH   8   9
ENDBRANCH   1   8
BRANCH   1  18
HETATM   18  C   UNL     1     -10.051  12.673  64.916  1.00  0.00    -0.222 C  
HETATM   19  N   UNL     1     -11.751  11.653  63.318  1.00  0.00    -0.854 NA 
HETATM   20  O   UNL     1     -10.653  13.972  64.692  1.00  0.00    -0.419 OA 
HETATM   21  H   UNL     1     -12.265  11.055  63.965  1.00  0.00     0.000 HD 
HETATM   22  C   UNL     1     -12.346  12.993  63.206  1.00  0.00    -0.306 C  
HETATM   23  C   UNL     1     -10.326  11.776  63.684  1.00  0.00    -0.434 C  
HETATM   24  C   UNL     1     -12.054  13.896  64.414  1.00  0.00    -0.443 C  
ENDBRANCH   1  18
TORSDOF 6
ENDMDL
MODEL       35
REMARK 921   NORMALIZED FREE ENERGY PREDICTED BY IDOCK:   -5.44 KCAL/MOL
REMARK 922        TOTAL FREE ENERGY PREDICTED BY IDOCK:   -8.47 KCAL/MOL
REMARK 923 INTER-LIGAND FREE ENERGY PREDICTED BY IDOCK:   -7.39 KCAL/MOL
REMARK 924 INTRA-LIGAND FREE ENERGY PREDICTED BY IDOCK:   -1.09 KCAL/MOL
REMARK 927      BINDING AFFINITY PREDICTED BY RF-SCORE:    0.00 PKD
ROOT
HETATM    1  C   UNL     1     -10.478  12.150  67.980  1.00  0.00    -0.212 C  
ENDROOT
BRANCH   1   2
HETATM    2  C   UNL     1     -10.943  12.926  66.755  1.00  0.00    -0.300 A  
HETATM    3  C   UNL     1     -10.965  14.978  65.447  1.00  0.00    -0.380 A  
HETATM    4  C   UNL     1     -11.952  12.417  65.919  1.00  0.00    -0.434 A  
HETATM    5  C   UNL     1     -12.479  13.188  64.884  1.00  0.00    -0.490 A  
HETATM    6  C   UNL     1     -11.994  14.474  64.653  1.00  0.00    -0.478 A  
HETATM    7  C   UNL     1     -10.441  14.209  66.489  1.00  0.00    -0.280 A  
ENDBRANCH   1   2
BRANCH   1   8
HETATM    8  O   UNL     1     -11.664  11.706  68.672  1.00  0.00    -0.284 OA 
BRANCH   8   9
HETATM    9  C   UNL     1     -12.156  12.368  69.761  1.00  0.00    -0.223 A  
HETATM   10  C   UNL     1     -12.502  14.337  71.151  1.00  0.00    -0.433 A  
HETATM   11  C   UNL     1     -13.173  12.177  71.964  1.00  0.00    -0.496 A  
HETATM   12  C   UNL     1     -13.037  13.548  72.163  1.00  0.00    -0.487 A  
HETATM   13  C   UNL     1     -12.066  13.750  69.957  1.00  0.00    -0.416 A  
HETATM   14  C   UNL     1     -12.767  11.587  70.761  1.00  0.00    -0.227 A  
BRANCH  14  15
HETATM   15  O   UNL     1     -12.988  10.232  70.716  1.00  0.00    -0.370 OA 
BRANCH  15  16
HETATM   16  C   UNL     1     -12.324   9.462  71.720  1.00  0.00    -0.394 C  
HETATM   17  C   UNL     1     -10.878   9.273  71.293  1.00  0.00    -0.417 C  
ENDBRANCH  15  16
ENDBRANCH  14  15
ENDBRANCH   8   9
ENDBRANCH   1   8
BRANCH   1  18
HETATM   18  C   UNL     1      -9.644  10.871  67.664  1.00  0.00    -0.163 C  
HETATM   19  N   UNL     1      -7.672  11.817  66.361  1.00  0.00    -0.383 NA 
HETATM   20  O   UNL     1      -8.741  10.540  68.747  1.00  0.00    -0.137 OA 
HETATM   21  H   UNL     1      -7.941  12.800  66.321  1.00  0.00     0.000 HD 
HETATM   22  C   UNL     1      -6.840  11.515  67.537  1.00  0.00    -0.098 C  
HETATM   23  C   UNL     1      -8.842  10.916  66.341  1.00  0.00    -0.171 C  
HETATM   24  C   UNL     1      -7.637  11.443  68.848  1.00  0.00    -0.114 C  
ENDBRANCH   1  18
TORSDOF 6
ENDMDL
MODEL       36
REMARK 921   NORMALIZED FREE ENERGY PREDICTED BY IDOCK:   -5.40 KCAL/MOL
REMARK 922        TOTAL FREE ENERGY PREDICTED BY IDOCK:   -8.42 KCAL/MOL
REMARK 923 INTER-LIGAND FREE ENERGY PREDICTED BY IDOCK:   -7.73 KCAL/MOL
REMARK 924 INTRA-LIGAND FREE ENERGY PREDICTED BY IDOCK:   -0.69 KCAL/MOL
REMARK 927      BINDING AFFINITY PREDICTED BY RF-SCORE:    0.00 PKD
ROOT
HETATM    1  C   UNL     1     -10.711  13.900  67.288  1.00  0.00    -0.284 C  
ENDROOT
BRANCH   1   2
HETATM    2  C   UNL     1     -11.101  13.186  66.001  1.00  0.00    -0.299 A  
HETATM    3  C   UNL     1     -12.754  12.698  64.284  1.00  0.00    -0.394 A  
HETATM    4  C   UNL     1     -10.281  12.183  65.456  1.00  0.00    -0.294 A  
HETATM    5  C   UNL     1     -10.705  11.430  64.361  1.00  0.00    -0.405 A  
HETATM    6  C   UNL     1     -11.947  11.679  63.781  1.00  0.00    -0.357 A  
HETATM    7  C   UNL     1     -12.333  13.449  65.385  1.00  0.00    -0.522 A  
ENDBRANCH   1   2
BRANCH   1   8
HETATM    8  O   UNL     1     -10.271  12.884  68.216  1.00  0.00    -0.234 OA 
BRANCH   8   9
HETATM    9  C   UNL     1     -11.100  12.371  69.172  1.00  0.00    -0.203 A  
HETATM   10  C   UNL     1     -12.411  10.601  70.210  1.00  0.00    -0.406 A  
HETATM   11  C   UNL     1     -12.597  12.852  71.031  1.00  0.00    -0.376 A  
HETATM   12  C   UNL     1     -12.989  11.518  71.081  1.00  0.00    -0.329 A  
HETATM   13  C   UNL     1     -11.472  11.025  69.263  1.00  0.00    -0.370 A  
HETATM   14  C   UNL     1     -11.635  13.279  70.107  1.00  0.00    -0.084 A  
BRANCH  14  15
HETATM   15  O   UNL     1     -11.345  14.619  70.202  1.00  0.00    -0.257 OA 
BRANCH  15  16
HETATM   16  C   UNL     1     -12.377  15.439  70.751  1.00  0.00    -0.396 C  
HETATM   17  C   UNL     1     -11.818  16.153  71.970  1.00  0.00    -0.615 C  
ENDBRANCH  15  16
ENDBRANCH  14  15
ENDBRANCH   8   9
ENDBRANCH   1   8
BRANCH   1  18
HETATM   18  C   UNL     1      -9.530  14.908  67.144  1.00  0.00    -0.225 C  
HETATM   19  N   UNL     1     -10.409  16.523  65.382  1.00  0.00    -0.607 NA 
HETATM   20  O   UNL     1      -9.610  15.970  68.126  1.00  0.00    -0.206 OA 
HETATM   21  H   UNL     1     -11.302  16.080  65.166  1.00  0.00     0.000 HD 
HETATM   22  C   UNL     1     -10.529  17.520  66.457  1.00  0.00    -0.270 C  
HETATM   23  C   UNL     1      -9.369  15.538  65.739  1.00  0.00    -0.257 C  
HETATM   24  C   UNL     1     -10.663  16.900  67.856  1.00  0.00    -0.344 C  
ENDBRANCH   1  18
TORSDOF 6
ENDMDL
MODEL       37
REMARK 921   NORMALIZED FREE ENERGY PREDICTED BY IDOCK:   -5.40 KCAL/MOL
REMARK 922        TOTAL FREE ENERGY PREDICTED BY IDOCK:   -8.42 KCAL/MOL
REMARK 923 INTER-LIGAND FREE ENERGY PREDICTED BY IDOCK:   -7.42 KCAL/MOL
REMARK 924 INTRA-LIGAND FREE ENERGY PREDICTED BY IDOCK:   -1.01 KCAL/MOL
REMARK 927      BINDING AFFINITY PREDICTED BY RF-SCORE:    0.00 PKD
ROOT
HETATM    1  C   UNL     1     -10.685  13.667  66.973  1.00  0.00    -0.278 C  
ENDROOT
BRANCH   1   2
HETATM    2  C   UNL     1     -10.671  12.600  68.059  1.00  0.00    -0.243 A  
HETATM    3  C   UNL     1      -9.582  10.712  69.140  1.00  0.00    -0.193 A  
HETATM    4  C   UNL     1     -11.814  12.349  68.838  1.00  0.00    -0.350 A  
HETATM    5  C   UNL     1     -11.849  11.279  69.731  1.00  0.00    -0.437 A  
HETATM    6  C   UNL     1     -10.737  10.452  69.875  1.00  0.00    -0.331 A  
HETATM    7  C   UNL     1      -9.547  11.780  68.240  1.00  0.00    -0.199 A  
ENDBRANCH   1   2
BRANCH   1   8
HETATM    8  O   UNL     1      -9.682  14.643  67.329  1.00  0.00    -0.225 OA 
BRANCH   8   9
HETATM    9  C   UNL     1      -9.956  15.981  67.361  1.00  0.00    -0.241 A  
HETATM   10  C   UNL     1     -10.126  18.202  66.378  1.00  0.00    -0.392 A  
HETATM   11  C   UNL     1     -10.403  17.930  68.749  1.00  0.00    -0.311 A  
HETATM   12  C   UNL     1     -10.339  18.759  67.634  1.00  0.00    -0.476 A  
HETATM   13  C   UNL     1      -9.938  16.822  66.242  1.00  0.00    -0.336 A  
HETATM   14  C   UNL     1     -10.245  16.544  68.618  1.00  0.00    -0.264 A  
BRANCH  14  15
HETATM   15  O   UNL     1     -10.357  15.867  69.809  1.00  0.00    -0.269 OA 
BRANCH  15  16
HETATM   16  C   UNL     1     -11.677  15.775  70.347  1.00  0.00    -0.370 C  
HETATM   17  C   UNL     1     -11.564  15.599  71.853  1.00  0.00    -0.547 C  
ENDBRANCH  15  16
ENDBRANCH  14  15
ENDBRANCH   8   9
ENDBRANCH   1   8
BRANCH   1  18
HETATM   18  C   UNL     1     -10.315  13.153  65.548  1.00  0.00    -0.290 C  
HETATM   19  N   UNL     1     -12.466  12.007  64.810  1.00  0.00    -0.366 NA 
HETATM   20  O   UNL     1     -10.535  14.168  64.539  1.00  0.00    -0.408 OA 
HETATM   21  H   UNL     1     -13.026  12.122  65.654  1.00  0.00     0.000 HD 
HETATM   22  C   UNL     1     -12.651  13.119  63.864  1.00  0.00    -0.167 C  
HETATM   23  C   UNL     1     -11.029  11.851  65.111  1.00  0.00    -0.312 C  
HETATM   24  C   UNL     1     -11.922  14.405  64.280  1.00  0.00    -0.410 C  
ENDBRANCH   1  18
TORSDOF 6
ENDMDL
MODEL       38
REMARK 921   NORMALIZED FREE ENERGY PREDICTED BY IDOCK:   -5.39 KCAL/MOL
REMARK 922        TOTAL FREE ENERGY PREDICTED BY IDOCK:   -8.40 KCAL/MOL
REMARK 923 INTER-LIGAND FREE ENERGY PREDICTED BY IDOCK:   -7.74 KCAL/MOL
REMARK 924 INTRA-LIGAND FREE ENERGY PREDICTED BY IDOCK:   -0.67 KCAL/MOL
REMARK 927      BINDING AFFINITY PREDICTED BY RF-SCORE:    0.00 PKD
ROOT
HETATM    1  C   UNL     1     -11.481  13.139  67.580  1.00  0.00    -0.328 C  
ENDROOT
BRANCH   1   2
HETATM    2  C   UNL     1     -11.543  14.196  68.673  1.00  0.00    -0.352 A  
HETATM    3  C   UNL     1     -10.466  15.956  69.962  1.00  0.00    -0.295 A  
HETATM    4  C   UNL     1     -12.631  14.251  69.562  1.00  0.00    -0.026 A  
HETATM    5  C   UNL     1     -12.622  15.123  70.650  1.00  0.00    -0.450 A  
HETATM    6  C   UNL     1     -11.534  15.969  70.858  1.00  0.00    -0.451 A  
HETATM    7  C   UNL     1     -10.472  15.078  68.875  1.00  0.00    -0.241 A  
ENDBRANCH   1   2
BRANCH   1   8
HETATM    8  O   UNL     1     -12.211  11.991  68.063  1.00  0.00    -0.454 OA 
BRANCH   8   9
HETATM    9  C   UNL     1     -11.669  11.115  68.961  1.00  0.00    -0.339 A  
HETATM   10  C   UNL     1     -11.603   9.916  71.079  1.00  0.00    -0.470 A  
HETATM   11  C   UNL     1      -9.722   9.795  69.587  1.00  0.00    -0.242 A  
HETATM   12  C   UNL     1     -10.318   9.462  70.799  1.00  0.00    -0.366 A  
HETATM   13  C   UNL     1     -12.274  10.736  70.164  1.00  0.00    -0.425 A  
HETATM   14  C   UNL     1     -10.399  10.591  68.654  1.00  0.00    -0.185 A  
BRANCH  14  15
HETATM   15  O   UNL     1      -9.682  10.809  67.502  1.00  0.00    -0.164 OA 
BRANCH  15  16
HETATM   16  C   UNL     1      -8.291  11.082  67.680  1.00  0.00    -0.117 C  
HETATM   17  C   UNL     1      -8.117  12.585  67.828  1.00  0.00    -0.164 C  
ENDBRANCH  15  16
ENDBRANCH  14  15
ENDBRANCH   8   9
ENDBRANCH   1   8
BRANCH   1  18
HETATM   18  C   UNL     1     -12.148  13.552  66.233  1.00  0.00    -0.428 C  
HETATM   19  N   UNL     1     -10.131  14.063  64.763  1.00  0.00    -0.589 NA 
HETATM   20  O   UNL     1     -12.434  12.401  65.401  1.00  0.00    -0.637 OA 
HETATM   21  H   UNL     1      -9.380  13.920  65.439  1.00  0.00     0.000 HD 
HETATM   22  C   UNL     1     -10.451  12.835  64.019  1.00  0.00    -0.406 C  
HETATM   23  C   UNL     1     -11.358  14.588  65.396  1.00  0.00    -0.341 C  
HETATM   24  C   UNL     1     -11.257  11.815  64.837  1.00  0.00    -0.266 C  
ENDBRANCH   1  18
TORSDOF 6
ENDMDL
MODEL       39
REMARK 921   NORMALIZED FREE ENERGY PREDICTED BY IDOCK:   -5.38 KCAL/MOL
REMARK 922        TOTAL FREE ENERGY PREDICTED BY IDOCK:   -8.40 KCAL/MOL
REMARK 923 INTER-LIGAND FREE ENERGY PREDICTED BY IDOCK:   -6.75 KCAL/MOL
REMARK 924 INTRA-LIGAND FREE ENERGY PREDICTED BY IDOCK:   -1.65 KCAL/MOL
REMARK 927      BINDING AFFINITY PREDICTED BY RF-SCORE:    0.00 PKD
ROOT
HETATM    1  C   UNL     1     -10.428  10.255  68.075  1.00  0.00    -0.196 C  
ENDROOT
BRANCH   1   2
HETATM    2  C   UNL     1      -9.662   9.030  67.594  1.00  0.00    -0.196 A  
HETATM    3  C   UNL     1      -9.644   6.852  66.510  1.00  0.00    -0.197 A  
HETATM    4  C   UNL     1      -8.327   8.817  67.979  1.00  0.00    -0.119 A  
HETATM    5  C   UNL     1      -7.672   7.629  67.660  1.00  0.00    -0.122 A  
HETATM    6  C   UNL     1      -8.333   6.639  66.934  1.00  0.00    -0.114 A  
HETATM    7  C   UNL     1     -10.303   8.040  66.835  1.00  0.00    -0.408 A  
ENDBRANCH   1   2
BRANCH   1   8
HETATM    8  O   UNL     1     -10.259  10.322  69.507  1.00  0.00    -0.216 OA 
BRANCH   8   9
HETATM    9  C   UNL     1     -11.291  10.080  70.369  1.00  0.00    -0.320 A  
HETATM   10  C   UNL     1     -13.176  10.738  71.763  1.00  0.00    -0.523 A  
HETATM   11  C   UNL     1     -12.354   8.482  71.866  1.00  0.00    -0.407 A  
HETATM   12  C   UNL     1     -13.234   9.462  72.313  1.00  0.00    -0.528 A  
HETATM   13  C   UNL     1     -12.211  11.044  70.796  1.00  0.00    -0.480 A  
HETATM   14  C   UNL     1     -11.406   8.772  70.877  1.00  0.00    -0.275 A  
BRANCH  14  15
HETATM   15  O   UNL     1     -10.629   7.692  70.532  1.00  0.00    -0.218 OA 
BRANCH  15  16
HETATM   16  C   UNL     1     -11.341   6.507  70.171  1.00  0.00    -0.402 C  
HETATM   17  C   UNL     1     -10.325   5.424  69.846  1.00  0.00    -0.377 C  
ENDBRANCH  15  16
ENDBRANCH  14  15
ENDBRANCH   8   9
ENDBRANCH   1   8
BRANCH   1  18
HETATM   18  C   UNL     1      -9.913  11.612  67.505  1.00  0.00    -0.187 C  
HETATM   19  N   UNL     1     -11.083  11.732  65.247  1.00  0.00    -0.297 NA 
HETATM   20  O   UNL     1     -10.722  12.725  67.959  1.00  0.00    -0.218 OA 
HETATM   21  H   UNL     1     -11.563  10.832  65.249  1.00  0.00     0.000 HD 
HETATM   22  C   UNL     1     -11.914  12.806  65.813  1.00  0.00    -0.449 C  
HETATM   23  C   UNL     1      -9.793  11.678  65.963  1.00  0.00    -0.230 C  
HETATM   24  C   UNL     1     -12.013  12.761  67.345  1.00  0.00    -0.272 C  
ENDBRANCH   1  18
TORSDOF 6
ENDMDL
MODEL       40
REMARK 921   NORMALIZED FREE ENERGY PREDICTED BY IDOCK:   -5.38 KCAL/MOL
REMARK 922        TOTAL FREE ENERGY PREDICTED BY IDOCK:   -8.38 KCAL/MOL
REMARK 923 INTER-LIGAND FREE ENERGY PREDICTED BY IDOCK:   -7.32 KCAL/MOL
REMARK 924 INTRA-LIGAND FREE ENERGY PREDICTED BY IDOCK:   -1.06 KCAL/MOL
REMARK 927      BINDING AFFINITY PREDICTED BY RF-SCORE:    0.00 PKD
ROOT
HETATM    1  C   UNL     1      -9.518  16.332  68.525  1.00  0.00    -0.219 C  
ENDROOT
BRANCH   1   2
HETATM    2  C   UNL     1      -9.699  17.668  67.819  1.00  0.00    -0.280 A  
HETATM    3  C   UNL     1      -9.637  20.100  67.869  1.00  0.00    -0.468 A  
HETATM    4  C   UNL     1     -10.311  17.739  66.554  1.00  0.00    -0.345 A  
HETATM    5  C   UNL     1     -10.607  18.971  65.972  1.00  0.00    -0.499 A  
HETATM    6  C   UNL     1     -10.280  20.153  66.634  1.00  0.00    -0.556 A  
HETATM    7  C   UNL     1      -9.345  18.866  68.456  1.00  0.00    -0.412 A  
ENDBRANCH   1   2
BRANCH   1   8
HETATM    8  O   UNL     1     -10.817  15.703  68.575  1.00  0.00    -0.257 OA 
BRANCH   8   9
HETATM    9  C   UNL     1     -11.445  15.438  69.759  1.00  0.00    -0.324 A  
HETATM   10  C   UNL     1     -12.026  15.898  72.078  1.00  0.00    -0.602 A  
HETATM   11  C   UNL     1     -12.658  13.800  71.090  1.00  0.00    -0.452 A  
HETATM   12  C   UNL     1     -12.614  14.643  72.196  1.00  0.00    -0.404 A  
HETATM   13  C   UNL     1     -11.447  16.293  70.866  1.00  0.00    -0.336 A  
HETATM   14  C   UNL     1     -12.108  14.200  69.866  1.00  0.00    -0.347 A  
BRANCH  14  15
HETATM   15  O   UNL     1     -12.253  13.263  68.871  1.00  0.00    -0.275 OA 
BRANCH  15  16
HETATM   16  C   UNL     1     -11.218  12.282  68.789  1.00  0.00    -0.265 C  
HETATM   17  C   UNL     1     -11.842  10.914  69.011  1.00  0.00    -0.370 C  
ENDBRANCH  15  16
ENDBRANCH  14  15
ENDBRANCH   8   9
ENDBRANCH   1   8
BRANCH   1  18
HETATM   18  C   UNL     1      -8.571  15.331  67.796  1.00  0.00    -0.158 C  
HETATM   19  N   UNL     1      -6.305  16.473  68.012  1.00  0.00    -0.126 NA 
HETATM   20  O   UNL     1      -8.105  14.288  68.687  1.00  0.00    -0.142 OA 
HETATM   21  H   UNL     1      -6.586  17.335  68.480  1.00  0.00     0.000 HD 
HETATM   22  C   UNL     1      -5.941  15.415  68.966  1.00  0.00    -0.103 C  
HETATM   23  C   UNL     1      -7.348  15.971  67.095  1.00  0.00    -0.222 C  
HETATM   24  C   UNL     1      -7.152  14.759  69.645  1.00  0.00    -0.158 C  
ENDBRANCH   1  18
TORSDOF 6
ENDMDL
MODEL       41
REMARK 921   NORMALIZED FREE ENERGY PREDICTED BY IDOCK:   -5.36 KCAL/MOL
REMARK 922        TOTAL FREE ENERGY PREDICTED BY IDOCK:   -8.36 KCAL/MOL
REMARK 923 INTER-LIGAND FREE ENERGY PREDICTED BY IDOCK:   -7.00 KCAL/MOL
REMARK 924 INTRA-LIGAND FREE ENERGY PREDICTED BY IDOCK:   -1.37 KCAL/MOL
REMARK 927      BINDING AFFINITY PREDICTED BY RF-SCORE:    0.00 PKD
ROOT
HETATM    1  C   UNL     1     -10.475  11.693  66.935  1.00  0.00    -0.227 C  
ENDROOT
BRANCH   1   2
HETATM    2  C   UNL     1     -10.637  12.980  66.139  1.00  0.00    -0.289 A  
HETATM    3  C   UNL     1      -9.977  15.281  65.702  1.00  0.00    -0.397 A  
HETATM    4  C   UNL     1     -11.729  13.160  65.272  1.00  0.00    -0.375 A  
HETATM    5  C   UNL     1     -11.957  14.389  64.655  1.00  0.00    -0.475 A  
HETATM    6  C   UNL     1     -11.088  15.455  64.878  1.00  0.00    -0.435 A  
HETATM    7  C   UNL     1      -9.751  14.052  66.327  1.00  0.00    -0.311 A  
ENDBRANCH   1   2
BRANCH   1   8
HETATM    8  O   UNL     1     -11.752  11.414  67.549  1.00  0.00    -0.568 OA 
BRANCH   8   9
HETATM    9  C   UNL     1     -11.918  11.414  68.905  1.00  0.00    -0.304 A  
HETATM   10  C   UNL     1     -12.188  10.345  71.075  1.00  0.00    -0.498 A  
HETATM   11  C   UNL     1     -12.460  12.724  70.883  1.00  0.00    -0.373 A  
HETATM   12  C   UNL     1     -12.486  11.571  71.660  1.00  0.00    -0.181 A  
HETATM   13  C   UNL     1     -11.904  10.268  69.707  1.00  0.00    -0.217 A  
HETATM   14  C   UNL     1     -12.148  12.660  69.519  1.00  0.00    -0.192 A  
BRANCH  14  15
HETATM   15  O   UNL     1     -12.145  13.888  68.902  1.00  0.00    -0.351 OA 
BRANCH  15  16
HETATM   16  C   UNL     1     -11.871  15.006  69.748  1.00  0.00    -0.321 C  
HETATM   17  C   UNL     1     -11.532  16.196  68.866  1.00  0.00    -0.331 C  
ENDBRANCH  15  16
ENDBRANCH  14  15
ENDBRANCH   8   9
ENDBRANCH   1   8
BRANCH   1  18
HETATM   18  C   UNL     1     -10.111  10.440  66.083  1.00  0.00    -0.237 C  
HETATM   19  N   UNL     1      -7.645  10.823  65.580  1.00  0.00    -0.333 NA 
HETATM   20  O   UNL     1      -9.743   9.313  66.916  1.00  0.00    -0.164 OA 
HETATM   21  H   UNL     1      -7.514  11.735  66.019  1.00  0.00     0.000 HD 
HETATM   22  C   UNL     1      -7.356   9.715  66.503  1.00  0.00    -0.090 C  
HETATM   23  C   UNL     1      -9.003  10.661  65.024  1.00  0.00    -0.199 C  
HETATM   24  C   UNL     1      -8.465   9.475  67.537  1.00  0.00    -0.126 C  
ENDBRANCH   1  18
TORSDOF 6
ENDMDL
MODEL       42
REMARK 921   NORMALIZED FREE ENERGY PREDICTED BY IDOCK:   -5.31 KCAL/MOL
REMARK 922        TOTAL FREE ENERGY PREDICTED BY IDOCK:   -8.29 KCAL/MOL
REMARK 923 INTER-LIGAND FREE ENERGY PREDICTED BY IDOCK:   -7.59 KCAL/MOL
REMARK 924 INTRA-LIGAND FREE ENERGY PREDICTED BY IDOCK:   -0.70 KCAL/MOL
REMARK 927      BINDING AFFINITY PREDICTED BY RF-SCORE:    0.00 PKD
ROOT
HETATM    1  C   UNL     1     -10.825  12.403  67.337  1.00  0.00    -0.238 C  
ENDROOT
BRANCH   1   2
HETATM    2  C   UNL     1      -9.839  11.493  66.618  1.00  0.00    -0.228 A  
HETATM    3  C   UNL     1      -7.546  10.830  66.147  1.00  0.00    -0.139 A  
HETATM    4  C   UNL     1     -10.267  10.632  65.592  1.00  0.00    -0.319 A  
HETATM    5  C   UNL     1      -9.347   9.907  64.836  1.00  0.00    -0.329 A  
HETATM    6  C   UNL     1      -7.984  10.013  65.106  1.00  0.00    -0.145 A  
HETATM    7  C   UNL     1      -8.467  11.562  66.900  1.00  0.00    -0.165 A  
ENDBRANCH   1   2
BRANCH   1   8
HETATM    8  O   UNL     1     -10.435  12.431  68.727  1.00  0.00    -0.218 OA 
BRANCH   8   9
HETATM    9  C   UNL     1     -11.068  11.672  69.671  1.00  0.00    -0.108 A  
HETATM   10  C   UNL     1     -11.539   9.596  70.852  1.00  0.00    -0.420 A  
HETATM   11  C   UNL     1     -12.894  11.535  71.275  1.00  0.00    -0.463 A  
HETATM   12  C   UNL     1     -12.614  10.192  71.503  1.00  0.00    -0.537 A  
HETATM   13  C   UNL     1     -10.771  10.332  69.943  1.00  0.00    -0.344 A  
HETATM   14  C   UNL     1     -12.111  12.287  70.389  1.00  0.00    -0.300 A  
BRANCH  14  15
HETATM   15  O   UNL     1     -12.506  13.600  70.293  1.00  0.00    -0.316 OA 
BRANCH  15  16
HETATM   16  C   UNL     1     -12.796  14.252  71.530  1.00  0.00    -0.346 C  
HETATM   17  C   UNL     1     -11.614  15.137  71.889  1.00  0.00    -0.490 C  
ENDBRANCH  15  16
ENDBRANCH  14  15
ENDBRANCH   8   9
ENDBRANCH   1   8
BRANCH   1  18
HETATM   18  C   UNL     1     -10.824  13.883  66.848  1.00  0.00    -0.286 C  
HETATM   19  N   UNL     1     -10.738  13.617  64.317  1.00  0.00    -0.577 NA 
HETATM   20  O   UNL     1     -12.168  14.408  66.725  1.00  0.00    -0.420 OA 
HETATM   21  H   UNL     1     -10.673  12.601  64.248  1.00  0.00     0.000 HD 
HETATM   22  C   UNL     1     -12.132  14.088  64.290  1.00  0.00    -0.445 C  
HETATM   23  C   UNL     1     -10.065  14.139  65.523  1.00  0.00    -0.336 C  
HETATM   24  C   UNL     1     -12.880  13.860  65.612  1.00  0.00    -0.424 C  
ENDBRANCH   1  18
TORSDOF 6
ENDMDL
MODEL       43
REMARK 921   NORMALIZED FREE ENERGY PREDICTED BY IDOCK:   -5.31 KCAL/MOL
REMARK 922        TOTAL FREE ENERGY PREDICTED BY IDOCK:   -8.29 KCAL/MOL
REMARK 923 INTER-LIGAND FREE ENERGY PREDICTED BY IDOCK:   -7.11 KCAL/MOL
REMARK 924 INTRA-LIGAND FREE ENERGY PREDICTED BY IDOCK:   -1.18 KCAL/MOL
REMARK 927      BINDING AFFINITY PREDICTED BY RF-SCORE:    0.00 PKD
ROOT
HETATM    1  C   UNL     1     -10.645  11.092  67.498  1.00  0.00    -0.227 C  
ENDROOT
BRANCH   1   2
HETATM    2  C   UNL     1      -9.861   9.822  67.194  1.00  0.00    -0.238 A  
HETATM    3  C   UNL     1      -9.826   7.456  66.628  1.00  0.00    -0.263 A  
HETATM    4  C   UNL     1      -8.475   9.759  67.418  1.00  0.00    -0.121 A  
HETATM    5  C   UNL     1      -7.782   8.557  67.278  1.00  0.00    -0.097 A  
HETATM    6  C   UNL     1      -8.459   7.401  66.894  1.00  0.00    -0.123 A  
HETATM    7  C   UNL     1     -10.523   8.659  66.774  1.00  0.00    -0.298 A  
ENDBRANCH   1   2
BRANCH   1   8
HETATM    8  O   UNL     1     -10.382  11.428  68.877  1.00  0.00    -0.206 OA 
BRANCH   8   9
HETATM    9  C   UNL     1     -11.191  11.001  69.892  1.00  0.00    -0.252 A  
HETATM   10  C   UNL     1     -12.176   9.307  71.337  1.00  0.00    -0.426 A  
HETATM   11  C   UNL     1     -13.001  11.563  71.419  1.00  0.00    -0.450 A  
HETATM   12  C   UNL     1     -13.069  10.242  71.849  1.00  0.00    -0.568 A  
HETATM   13  C   UNL     1     -11.243   9.685  70.366  1.00  0.00    -0.342 A  
HETATM   14  C   UNL     1     -12.049  11.956  70.469  1.00  0.00    -0.331 A  
BRANCH  14  15
HETATM   15  O   UNL     1     -12.100  13.295  70.169  1.00  0.00    -0.336 OA 
BRANCH  15  16
HETATM   16  C   UNL     1     -12.887  14.099  71.049  1.00  0.00    -0.351 C  
HETATM   17  C   UNL     1     -12.702  15.556  70.655  1.00  0.00    -0.487 C  
ENDBRANCH  15  16
ENDBRANCH  14  15
ENDBRANCH   8   9
ENDBRANCH   1   8
BRANCH   1  18
HETATM   18  C   UNL     1     -10.228  12.334  66.653  1.00  0.00    -0.216 C  
HETATM   19  N   UNL     1     -11.943  12.309  64.771  1.00  0.00    -0.378 NA 
HETATM   20  O   UNL     1     -10.831  13.551  67.156  1.00  0.00    -0.279 OA 
HETATM   21  H   UNL     1     -12.452  11.457  65.006  1.00  0.00     0.000 HD 
HETATM   22  C   UNL     1     -12.539  13.502  65.392  1.00  0.00    -0.483 C  
HETATM   23  C   UNL     1     -10.515  12.226  65.135  1.00  0.00    -0.288 C  
HETATM   24  C   UNL     1     -12.235  13.627  66.892  1.00  0.00    -0.352 C  
ENDBRANCH   1  18
TORSDOF 6
ENDMDL
MODEL       44
REMARK 921   NORMALIZED FREE ENERGY PREDICTED BY IDOCK:   -5.30 KCAL/MOL
REMARK 922        TOTAL FREE ENERGY PREDICTED BY IDOCK:   -8.28 KCAL/MOL
REMARK 923 INTER-LIGAND FREE ENERGY PREDICTED BY IDOCK:   -6.60 KCAL/MOL
REMARK 924 INTRA-LIGAND FREE ENERGY PREDICTED BY IDOCK:   -1.68 KCAL/MOL
REMARK 927      BINDING AFFINITY PREDICTED BY RF-SCORE:    0.00 PKD
ROOT
HETATM    1  C   UNL     1     -10.200   9.346  67.577  1.00  0.00    -0.231 C  
ENDROOT
BRANCH   1   2
HETATM    2  C   UNL     1      -9.936   7.853  67.447  1.00  0.00    -0.261 A  
HETATM    3  C   UNL     1      -8.381   5.982  67.464  1.00  0.00    -0.108 A  
HETATM    4  C   UNL     1     -10.931   6.983  66.965  1.00  0.00    -0.357 A  
HETATM    5  C   UNL     1     -10.645   5.643  66.709  1.00  0.00    -0.372 A  
HETATM    6  C   UNL     1      -9.367   5.142  66.948  1.00  0.00    -0.129 A  
HETATM    7  C   UNL     1      -8.664   7.327  67.715  1.00  0.00    -0.126 A  
ENDBRANCH   1   2
BRANCH   1   8
HETATM    8  O   UNL     1      -9.968   9.696  68.959  1.00  0.00    -0.172 OA 
BRANCH   8   9
HETATM    9  C   UNL     1     -10.996   9.940  69.825  1.00  0.00    -0.268 A  
HETATM   10  C   UNL     1     -12.725  11.328  70.831  1.00  0.00    -0.412 A  
HETATM   11  C   UNL     1     -12.222   9.181  71.785  1.00  0.00    -0.442 A  
HETATM   12  C   UNL     1     -12.943  10.370  71.815  1.00  0.00    -0.580 A  
HETATM   13  C   UNL     1     -11.759  11.113  69.841  1.00  0.00    -0.433 A  
HETATM   14  C   UNL     1     -11.275   8.945  70.781  1.00  0.00    -0.272 A  
BRANCH  14  15
HETATM   15  O   UNL     1     -10.667   7.717  70.882  1.00  0.00    -0.229 OA 
BRANCH  15  16
HETATM   16  C   UNL     1     -11.513   6.587  70.658  1.00  0.00    -0.374 C  
HETATM   17  C   UNL     1     -10.630   5.369  70.443  1.00  0.00    -0.322 C  
ENDBRANCH  15  16
ENDBRANCH  14  15
ENDBRANCH   8   9
ENDBRANCH   1   8
BRANCH   1  18
HETATM   18  C   UNL     1      -9.258  10.252  66.727  1.00  0.00    -0.157 C  
HETATM   19  N   UNL     1     -10.353  10.168  64.429  1.00  0.00    -0.347 NA 
HETATM   20  O   UNL     1      -9.626  11.650  66.827  1.00  0.00    -0.186 OA 
HETATM   21  H   UNL     1     -11.114   9.516  64.620  1.00  0.00     0.000 HD 
HETATM   22  C   UNL     1     -10.752  11.568  64.646  1.00  0.00    -0.319 C  
HETATM   23  C   UNL     1      -9.149   9.871  65.231  1.00  0.00    -0.211 C  
HETATM   24  C   UNL     1     -10.836  11.958  66.129  1.00  0.00    -0.292 C  
ENDBRANCH   1  18
TORSDOF 6
ENDMDL
MODEL       45
REMARK 921   NORMALIZED FREE ENERGY PREDICTED BY IDOCK:   -5.30 KCAL/MOL
REMARK 922        TOTAL FREE ENERGY PREDICTED BY IDOCK:   -8.28 KCAL/MOL
REMARK 923 INTER-LIGAND FREE ENERGY PREDICTED BY IDOCK:   -7.01 KCAL/MOL
REMARK 924 INTRA-LIGAND FREE ENERGY PREDICTED BY IDOCK:   -1.26 KCAL/MOL
REMARK 927      BINDING AFFINITY PREDICTED BY RF-SCORE:    0.00 PKD
ROOT
HETATM    1  C   UNL     1     -10.549  11.997  66.237  1.00  0.00    -0.252 C  
ENDROOT
BRANCH   1   2
HETATM    2  C   UNL     1     -10.007  10.622  66.601  1.00  0.00    -0.259 A  
HETATM    3  C   UNL     1     -10.393   8.340  67.351  1.00  0.00    -0.350 A  
HETATM    4  C   UNL     1      -8.626  10.408  66.757  1.00  0.00    -0.125 A  
HETATM    5  C   UNL     1      -8.140   9.190  67.230  1.00  0.00    -0.106 A  
HETATM    6  C   UNL     1      -9.024   8.158  67.539  1.00  0.00    -0.143 A  
HETATM    7  C   UNL     1     -10.882   9.562  66.883  1.00  0.00    -0.085 A  
ENDBRANCH   1   2
BRANCH   1   8
HETATM    8  O   UNL     1     -10.029  12.926  67.212  1.00  0.00    -0.219 OA 
BRANCH   8   9
HETATM    9  C   UNL     1     -10.786  13.375  68.257  1.00  0.00    -0.258 A  
HETATM   10  C   UNL     1     -12.142  13.086  70.258  1.00  0.00    -0.388 A  
HETATM   11  C   UNL     1     -11.984  15.255  69.236  1.00  0.00    -0.327 A  
HETATM   12  C   UNL     1     -12.507  14.427  70.223  1.00  0.00    -0.413 A  
HETATM   13  C   UNL     1     -11.285  12.564  69.282  1.00  0.00    -0.256 A  
HETATM   14  C   UNL     1     -11.102  14.747  68.273  1.00  0.00    -0.274 A  
BRANCH  14  15
HETATM   15  O   UNL     1     -10.660  15.697  67.383  1.00  0.00    -0.289 OA 
BRANCH  15  16
HETATM   16  C   UNL     1      -9.315  16.140  67.569  1.00  0.00    -0.217 C  
HETATM   17  C   UNL     1      -8.785  16.622  66.228  1.00  0.00    -0.359 C  
ENDBRANCH  15  16
ENDBRANCH  14  15
ENDBRANCH   8   9
ENDBRANCH   1   8
BRANCH   1  18
HETATM   18  C   UNL     1     -10.102  12.525  64.840  1.00  0.00    -0.226 C  
HETATM   19  N   UNL     1     -11.993  11.735  63.329  1.00  0.00    -0.872 NA 
HETATM   20  O   UNL     1     -10.529  13.892  64.622  1.00  0.00    -0.425 OA 
HETATM   21  H   UNL     1     -12.556  11.219  64.006  1.00  0.00     0.000 HD 
HETATM   22  C   UNL     1     -12.404  13.143  63.224  1.00  0.00    -0.283 C  
HETATM   23  C   UNL     1     -10.550  11.664  63.634  1.00  0.00    -0.433 C  
HETATM   24  C   UNL     1     -11.938  14.007  64.406  1.00  0.00    -0.454 C  
ENDBRANCH   1  18
TORSDOF 6
ENDMDL
MODEL       46
REMARK 921   NORMALIZED FREE ENERGY PREDICTED BY IDOCK:   -5.29 KCAL/MOL
REMARK 922        TOTAL FREE ENERGY PREDICTED BY IDOCK:   -8.27 KCAL/MOL
REMARK 923 INTER-LIGAND FREE ENERGY PREDICTED BY IDOCK:   -7.07 KCAL/MOL
REMARK 924 INTRA-LIGAND FREE ENERGY PREDICTED BY IDOCK:   -1.21 KCAL/MOL
REMARK 927      BINDING AFFINITY PREDICTED BY RF-SCORE:    0.00 PKD
ROOT
HETATM    1  C   UNL     1     -10.337  11.565  66.289  1.00  0.00    -0.239 C  
ENDROOT
BRANCH   1   2
HETATM    2  C   UNL     1      -9.256  10.501  66.160  1.00  0.00    -0.197 A  
HETATM    3  C   UNL     1      -8.620   8.170  65.875  1.00  0.00    -0.171 A  
HETATM    4  C   UNL     1      -7.910  10.804  66.434  1.00  0.00    -0.148 A  
HETATM    5  C   UNL     1      -6.942   9.800  66.457  1.00  0.00    -0.085 A  
HETATM    6  C   UNL     1      -7.298   8.480  66.189  1.00  0.00    -0.081 A  
HETATM    7  C   UNL     1      -9.592   9.174  65.858  1.00  0.00    -0.343 A  
ENDBRANCH   1   2
BRANCH   1   8
HETATM    8  O   UNL     1     -10.127  12.228  67.555  1.00  0.00    -0.198 OA 
BRANCH   8   9
HETATM    9  C   UNL     1     -10.807  11.864  68.682  1.00  0.00    -0.235 A  
HETATM   10  C   UNL     1     -11.556  10.275  70.368  1.00  0.00    -0.411 A  
HETATM   11  C   UNL     1     -12.478  12.494  70.336  1.00  0.00    -0.215 A  
HETATM   12  C   UNL     1     -12.438  11.217  70.886  1.00  0.00    -0.509 A  
HETATM   13  C   UNL     1     -10.745  10.598  69.274  1.00  0.00    -0.275 A  
HETATM   14  C   UNL     1     -11.648  12.834  69.260  1.00  0.00    -0.314 A  
BRANCH  14  15
HETATM   15  O   UNL     1     -11.795  14.137  68.849  1.00  0.00    -0.311 OA 
BRANCH  15  16
HETATM   16  C   UNL     1     -11.796  15.118  69.888  1.00  0.00    -0.330 C  
HETATM   17  C   UNL     1     -10.657  16.090  69.623  1.00  0.00    -0.311 C  
ENDBRANCH  15  16
ENDBRANCH  14  15
ENDBRANCH   8   9
ENDBRANCH   1   8
BRANCH   1  18
HETATM   18  C   UNL     1     -10.294  12.675  65.196  1.00  0.00    -0.292 C  
HETATM   19  N   UNL     1     -11.542  11.582  63.264  1.00  0.00    -0.863 NA 
HETATM   20  O   UNL     1     -11.388  13.614  65.343  1.00  0.00    -0.298 OA 
HETATM   21  H   UNL     1     -11.719  10.661  63.666  1.00  0.00     0.000 HD 
HETATM   22  C   UNL     1     -12.640  12.525  63.531  1.00  0.00    -0.367 C  
HETATM   23  C   UNL     1     -10.269  12.162  63.735  1.00  0.00    -0.424 C  
HETATM   24  C   UNL     1     -12.653  13.057  64.972  1.00  0.00    -0.454 C  
ENDBRANCH   1  18
TORSDOF 6
ENDMDL
MODEL       47
REMARK 921   NORMALIZED FREE ENERGY PREDICTED BY IDOCK:   -5.29 KCAL/MOL
REMARK 922        TOTAL FREE ENERGY PREDICTED BY IDOCK:   -8.26 KCAL/MOL
REMARK 923 INTER-LIGAND FREE ENERGY PREDICTED BY IDOCK:   -7.69 KCAL/MOL
REMARK 924 INTRA-LIGAND FREE ENERGY PREDICTED BY IDOCK:   -0.58 KCAL/MOL
REMARK 927      BINDING AFFINITY PREDICTED BY RF-SCORE:    0.00 PKD
ROOT
HETATM    1  C   UNL     1     -11.241  14.751  68.829  1.00  0.00    -0.270 C  
ENDROOT
BRANCH   1   2
HETATM    2  C   UNL     1     -11.953  15.151  70.113  1.00  0.00    -0.374 A  
HETATM    3  C   UNL     1     -11.865  15.746  72.471  1.00  0.00    -0.605 A  
HETATM    4  C   UNL     1     -13.354  15.076  70.216  1.00  0.00     0.085 A  
HETATM    5  C   UNL     1     -13.995  15.303  71.433  1.00  0.00    -0.601 A  
HETATM    6  C   UNL     1     -13.250  15.628  72.565  1.00  0.00    -0.583 A  
HETATM    7  C   UNL     1     -11.220  15.513  71.253  1.00  0.00    -0.414 A  
ENDBRANCH   1   2
BRANCH   1   8
HETATM    8  O   UNL     1     -10.072  15.591  68.717  1.00  0.00    -0.199 OA 
BRANCH   8   9
HETATM    9  C   UNL     1     -10.146  16.874  68.255  1.00  0.00    -0.302 A  
HETATM   10  C   UNL     1     -10.117  19.296  68.509  1.00  0.00    -0.513 A  
HETATM   11  C   UNL     1     -10.741  18.332  66.398  1.00  0.00    -0.189 A  
HETATM   12  C   UNL     1     -10.549  19.454  67.197  1.00  0.00    -0.596 A  
HETATM   13  C   UNL     1      -9.915  18.014  69.033  1.00  0.00    -0.292 A  
HETATM   14  C   UNL     1     -10.513  17.047  66.906  1.00  0.00    -0.268 A  
BRANCH  14  15
HETATM   15  O   UNL     1     -10.727  16.050  65.985  1.00  0.00    -0.319 OA 
BRANCH  15  16
HETATM   16  C   UNL     1     -11.409  16.444  64.793  1.00  0.00    -0.150 C  
HETATM   17  C   UNL     1     -12.190  15.247  64.275  1.00  0.00    -0.205 C  
ENDBRANCH  15  16
ENDBRANCH  14  15
ENDBRANCH   8   9
ENDBRANCH   1   8
BRANCH   1  18
HETATM   18  C   UNL     1     -10.731  13.278  68.797  1.00  0.00    -0.227 C  
HETATM   19  N   UNL     1     -11.908  12.341  66.742  1.00  0.00    -0.591 NA 
HETATM   20  O   UNL     1      -9.467  13.163  68.098  1.00  0.00    -0.213 OA 
HETATM   21  H   UNL     1     -12.467  13.151  66.474  1.00  0.00     0.000 HD 
HETATM   22  C   UNL     1     -10.593  12.330  66.081  1.00  0.00    -0.249 C  
HETATM   23  C   UNL     1     -11.724  12.249  68.204  1.00  0.00    -0.349 C  
HETATM   24  C   UNL     1      -9.596  13.331  66.684  1.00  0.00    -0.262 C  
ENDBRANCH   1  18
TORSDOF 6
ENDMDL
MODEL       48
REMARK 921   NORMALIZED FREE ENERGY PREDICTED BY IDOCK:   -5.27 KCAL/MOL
REMARK 922        TOTAL FREE ENERGY PREDICTED BY IDOCK:   -8.24 KCAL/MOL
REMARK 923 INTER-LIGAND FREE ENERGY PREDICTED BY IDOCK:   -7.68 KCAL/MOL
REMARK 924 INTRA-LIGAND FREE ENERGY PREDICTED BY IDOCK:   -0.56 KCAL/MOL
REMARK 927      BINDING AFFINITY PREDICTED BY RF-SCORE:    0.00 PKD
ROOT
HETATM    1  C   UNL     1      -9.869  16.186  68.314  1.00  0.00    -0.224 C  
ENDROOT
BRANCH   1   2
HETATM    2  C   UNL     1     -10.108  17.589  67.772  1.00  0.00    -0.330 A  
HETATM    3  C   UNL     1     -10.571  19.071  65.899  1.00  0.00    -0.466 A  
HETATM    4  C   UNL     1      -9.862  18.721  68.569  1.00  0.00    -0.444 A  
HETATM    5  C   UNL     1      -9.941  20.005  68.031  1.00  0.00    -0.550 A  
HETATM    6  C   UNL     1     -10.284  20.181  66.692  1.00  0.00    -0.556 A  
HETATM    7  C   UNL     1     -10.486  17.784  66.436  1.00  0.00    -0.297 A  
ENDBRANCH   1   2
BRANCH   1   8
HETATM    8  O   UNL     1     -11.077  15.431  68.073  1.00  0.00    -0.289 OA 
BRANCH   8   9
HETATM    9  C   UNL     1     -11.389  14.317  68.799  1.00  0.00    -0.275 A  
HETATM   10  C   UNL     1     -11.659  11.919  69.117  1.00  0.00    -0.373 A  
HETATM   11  C   UNL     1     -12.425  13.435  70.817  1.00  0.00    -0.418 A  
HETATM   12  C   UNL     1     -12.283  12.135  70.341  1.00  0.00    -0.378 A  
HETATM   13  C   UNL     1     -11.214  13.003  68.352  1.00  0.00    -0.304 A  
HETATM   14  C   UNL     1     -11.955  14.524  70.072  1.00  0.00    -0.330 A  
BRANCH  14  15
HETATM   15  O   UNL     1     -12.152  15.734  70.691  1.00  0.00    -0.370 OA 
BRANCH  15  16
HETATM   16  C   UNL     1     -12.918  15.696  71.897  1.00  0.00    -0.463 C  
HETATM   17  C   UNL     1     -12.076  16.293  73.013  1.00  0.00    -0.629 C  
ENDBRANCH  15  16
ENDBRANCH  14  15
ENDBRANCH   8   9
ENDBRANCH   1   8
BRANCH   1  18
HETATM   18  C   UNL     1      -8.714  15.405  67.618  1.00  0.00    -0.167 C  
HETATM   19  N   UNL     1      -6.728  16.965  67.951  1.00  0.00    -0.140 NA 
HETATM   20  O   UNL     1      -8.090  14.456  68.517  1.00  0.00    -0.136 OA 
HETATM   21  H   UNL     1      -7.192  17.745  68.415  1.00  0.00     0.000 HD 
HETATM   22  C   UNL     1      -6.204  15.979  68.909  1.00  0.00    -0.126 C  
HETATM   23  C   UNL     1      -7.611  16.287  66.981  1.00  0.00    -0.215 C  
HETATM   24  C   UNL     1      -7.291  15.085  69.523  1.00  0.00    -0.202 C  
ENDBRANCH   1  18
TORSDOF 6
ENDMDL
MODEL       49
REMARK 921   NORMALIZED FREE ENERGY PREDICTED BY IDOCK:   -5.26 KCAL/MOL
REMARK 922        TOTAL FREE ENERGY PREDICTED BY IDOCK:   -8.23 KCAL/MOL
REMARK 923 INTER-LIGAND FREE ENERGY PREDICTED BY IDOCK:   -7.20 KCAL/MOL
REMARK 924 INTRA-LIGAND FREE ENERGY PREDICTED BY IDOCK:   -1.02 KCAL/MOL
REMARK 927      BINDING AFFINITY PREDICTED BY RF-SCORE:    0.00 PKD
ROOT
HETATM    1  C   UNL     1     -11.068  11.824  67.695  1.00  0.00    -0.252 C  
ENDROOT
BRANCH   1   2
HETATM    2  C   UNL     1     -11.079  12.077  66.194  1.00  0.00    -0.367 A  
HETATM    3  C   UNL     1     -12.301  12.613  64.159  1.00  0.00    -0.518 A  
HETATM    4  C   UNL     1      -9.951  11.790  65.405  1.00  0.00    -0.284 A  
HETATM    5  C   UNL     1     -10.008  11.884  64.015  1.00  0.00    -0.318 A  
HETATM    6  C   UNL     1     -11.187  12.285  63.389  1.00  0.00    -0.497 A  
HETATM    7  C   UNL     1     -12.248  12.512  65.552  1.00  0.00    -0.442 A  
ENDBRANCH   1   2
BRANCH   1   8
HETATM    8  O   UNL     1     -12.094  12.662  68.270  1.00  0.00    -0.279 OA 
BRANCH   8   9
HETATM    9  C   UNL     1     -11.821  13.555  69.268  1.00  0.00    -0.341 A  
HETATM   10  C   UNL     1     -12.140  14.530  71.476  1.00  0.00    -0.400 A  
HETATM   11  C   UNL     1     -10.703  15.625  69.891  1.00  0.00    -0.328 A  
HETATM   12  C   UNL     1     -11.311  15.596  71.142  1.00  0.00    -0.446 A  
HETATM   13  C   UNL     1     -12.391  13.516  70.545  1.00  0.00    -0.412 A  
HETATM   14  C   UNL     1     -10.926  14.598  68.965  1.00  0.00    -0.258 A  
BRANCH  14  15
HETATM   15  O   UNL     1     -10.237  14.766  67.788  1.00  0.00    -0.230 OA 
BRANCH  15  16
HETATM   16  C   UNL     1     -10.676  15.844  66.960  1.00  0.00    -0.292 C  
HETATM   17  C   UNL     1     -10.133  15.618  65.559  1.00  0.00    -0.395 C  
ENDBRANCH  15  16
ENDBRANCH  14  15
ENDBRANCH   8   9
ENDBRANCH   1   8
BRANCH   1  18
HETATM   18  C   UNL     1     -11.407  10.361  68.113  1.00  0.00    -0.213 C  
HETATM   19  N   UNL     1      -9.162   9.188  67.846  1.00  0.00    -0.134 NA 
HETATM   20  O   UNL     1     -11.308  10.177  69.546  1.00  0.00    -0.237 OA 
HETATM   21  H   UNL     1      -8.603   9.958  67.480  1.00  0.00     0.000 HD 
HETATM   22  C   UNL     1      -9.107   9.111  69.314  1.00  0.00    -0.146 C  
HETATM   23  C   UNL     1     -10.571   9.264  67.410  1.00  0.00    -0.255 C  
HETATM   24  C   UNL     1      -9.956  10.181  70.016  1.00  0.00    -0.161 C  
ENDBRANCH   1  18
TORSDOF 6
ENDMDL
MODEL       50
REMARK 921   NORMALIZED FREE ENERGY PREDICTED BY IDOCK:   -5.26 KCAL/MOL
REMARK 922        TOTAL FREE ENERGY PREDICTED BY IDOCK:   -8.22 KCAL/MOL
REMARK 923 INTER-LIGAND FREE ENERGY PREDICTED BY IDOCK:   -7.42 KCAL/MOL
REMARK 924 INTRA-LIGAND FREE ENERGY PREDICTED BY IDOCK:   -0.81 KCAL/MOL
REMARK 927      BINDING AFFINITY PREDICTED BY RF-SCORE:    0.00 PKD
ROOT
HETATM    1  C   UNL     1      -8.705  16.028  67.636  1.00  0.00    -0.173 C  
ENDROOT
BRANCH   1   2
HETATM    2  C   UNL     1      -9.210  17.415  67.263  1.00  0.00    -0.234 A  
HETATM    3  C   UNL     1      -8.806  19.613  66.302  1.00  0.00    -0.410 A  
HETATM    4  C   UNL     1     -10.453  17.879  67.727  1.00  0.00    -0.409 A  
HETATM    5  C   UNL     1     -10.852  19.197  67.508  1.00  0.00    -0.512 A  
HETATM    6  C   UNL     1     -10.023  20.069  66.804  1.00  0.00    -0.585 A  
HETATM    7  C   UNL     1      -8.403  18.294  66.527  1.00  0.00    -0.287 A  
ENDBRANCH   1   2
BRANCH   1   8
HETATM    8  O   UNL     1      -8.889  15.187  66.476  1.00  0.00    -0.275 OA 
BRANCH   8   9
HETATM    9  C   UNL     1     -10.128  14.788  66.063  1.00  0.00    -0.308 A  
HETATM   10  C   UNL     1     -12.019  14.763  64.529  1.00  0.00    -0.451 A  
HETATM   11  C   UNL     1     -12.208  13.676  66.665  1.00  0.00    -0.437 A  
HETATM   12  C   UNL     1     -12.780  14.056  65.454  1.00  0.00    -0.499 A  
HETATM   13  C   UNL     1     -10.702  15.125  64.832  1.00  0.00    -0.421 A  
HETATM   14  C   UNL     1     -10.881  14.008  66.962  1.00  0.00    -0.290 A  
BRANCH  14  15
HETATM   15  O   UNL     1     -10.463  13.542  68.185  1.00  0.00    -0.231 OA 
BRANCH  15  16
HETATM   16  C   UNL     1     -11.448  13.545  69.219  1.00  0.00    -0.291 C  
HETATM   17  C   UNL     1     -11.291  14.827  70.021  1.00  0.00    -0.306 C  
ENDBRANCH  15  16
ENDBRANCH  14  15
ENDBRANCH   8   9
ENDBRANCH   1   8
BRANCH   1  18
HETATM   18  C   UNL     1      -7.190  15.960  67.995  1.00  0.00    -0.132 C  
HETATM   19  N   UNL     1      -7.183  14.421  70.024  1.00  0.00    -0.393 NA 
HETATM   20  O   UNL     1      -6.506  14.930  67.240  1.00  0.00    -0.304 OA 
HETATM   21  H   UNL     1      -8.185  14.269  70.134  1.00  0.00     0.000 HD 
HETATM   22  C   UNL     1      -6.557  13.405  69.164  1.00  0.00    -0.106 C  
HETATM   23  C   UNL     1      -6.876  15.766  69.499  1.00  0.00    -0.187 C  
HETATM   24  C   UNL     1      -6.843  13.608  67.669  1.00  0.00    -0.174 C  
ENDBRANCH   1  18
TORSDOF 6
ENDMDL
MODEL       51
REMARK 921   NORMALIZED FREE ENERGY PREDICTED BY IDOCK:   -5.24 KCAL/MOL
REMARK 922        TOTAL FREE ENERGY PREDICTED BY IDOCK:   -8.21 KCAL/MOL
REMARK 923 INTER-LIGAND FREE ENERGY PREDICTED BY IDOCK:   -8.19 KCAL/MOL
REMARK 924 INTRA-LIGAND FREE ENERGY PREDICTED BY IDOCK:   -0.02 KCAL/MOL
REMARK 927      BINDING AFFINITY PREDICTED BY RF-SCORE:    0.00 PKD
ROOT
HETATM    1  C   UNL     1     -11.720  14.065  67.084  1.00  0.00    -0.393 C  
ENDROOT
BRANCH   1   2
HETATM    2  C   UNL     1     -11.160  12.887  67.869  1.00  0.00    -0.283 A  
HETATM    3  C   UNL     1      -9.318  11.380  68.373  1.00  0.00    -0.194 A  
HETATM    4  C   UNL     1     -12.003  12.066  68.638  1.00  0.00    -0.290 A  
HETATM    5  C   UNL     1     -11.517  10.905  69.238  1.00  0.00    -0.372 A  
HETATM    6  C   UNL     1     -10.176  10.555  69.098  1.00  0.00    -0.241 A  
HETATM    7  C   UNL     1      -9.805  12.540  67.765  1.00  0.00    -0.204 A  
ENDBRANCH   1   2
BRANCH   1   8
HETATM    8  O   UNL     1     -10.594  14.873  66.676  1.00  0.00    -0.293 OA 
BRANCH   8   9
HETATM    9  C   UNL     1     -10.509  16.201  66.982  1.00  0.00    -0.306 A  
HETATM   10  C   UNL     1     -10.334  18.566  66.428  1.00  0.00    -0.456 A  
HETATM   11  C   UNL     1     -10.129  17.865  68.718  1.00  0.00    -0.384 A  
HETATM   12  C   UNL     1     -10.112  18.878  67.765  1.00  0.00    -0.430 A  
HETATM   13  C   UNL     1     -10.533  17.236  66.040  1.00  0.00    -0.285 A  
HETATM   14  C   UNL     1     -10.358  16.535  68.341  1.00  0.00    -0.294 A  
BRANCH  14  15
HETATM   15  O   UNL     1     -10.365  15.661  69.402  1.00  0.00    -0.223 OA 
BRANCH  15  16
HETATM   16  C   UNL     1     -11.189  16.035  70.507  1.00  0.00    -0.378 C  
HETATM   17  C   UNL     1     -12.465  15.210  70.447  1.00  0.00    -0.416 C  
ENDBRANCH  15  16
ENDBRANCH  14  15
ENDBRANCH   8   9
ENDBRANCH   1   8
BRANCH   1  18
HETATM   18  C   UNL     1     -12.481  13.678  65.780  1.00  0.00    -0.477 C  
HETATM   19  N   UNL     1     -10.719  14.075  63.985  1.00  0.00    -0.455 NA 
HETATM   20  O   UNL     1     -12.400  12.257  65.514  1.00  0.00    -0.602 OA 
HETATM   21  H   UNL     1      -9.961  14.442  64.560  1.00  0.00     0.000 HD 
HETATM   22  C   UNL     1     -10.646  12.614  63.833  1.00  0.00    -0.428 C  
HETATM   23  C   UNL     1     -12.048  14.449  64.509  1.00  0.00    -0.481 C  
HETATM   24  C   UNL     1     -11.100  11.845  65.082  1.00  0.00    -0.305 C  
ENDBRANCH   1  18
TORSDOF 6
ENDMDL
MODEL       52
REMARK 921   NORMALIZED FREE ENERGY PREDICTED BY IDOCK:   -5.23 KCAL/MOL
REMARK 922        TOTAL FREE ENERGY PREDICTED BY IDOCK:   -8.19 KCAL/MOL
REMARK 923 INTER-LIGAND FREE ENERGY PREDICTED BY IDOCK:   -7.38 KCAL/MOL
REMARK 924 INTRA-LIGAND FREE ENERGY PREDICTED BY IDOCK:   -0.82 KCAL/MOL
REMARK 927      BINDING AFFINITY PREDICTED BY RF-SCORE:    0.00 PKD
ROOT
HETATM    1  C   UNL     1     -12.024  14.504  69.318  1.00  0.00    -0.319 C  
ENDROOT
BRANCH   1   2
HETATM    2  C   UNL     1     -10.896  15.453  68.938  1.00  0.00    -0.251 A  
HETATM    3  C   UNL     1      -8.543  16.067  69.025  1.00  0.00    -0.244 A  
HETATM    4  C   UNL     1     -11.171  16.704  68.358  1.00  0.00    -0.239 A  
HETATM    5  C   UNL     1     -10.152  17.632  68.143  1.00  0.00    -0.347 A  
HETATM    6  C   UNL     1      -8.838  17.319  68.486  1.00  0.00    -0.269 A  
HETATM    7  C   UNL     1      -9.564  15.140  69.247  1.00  0.00    -0.218 A  
ENDBRANCH   1   2
BRANCH   1   8
HETATM    8  O   UNL     1     -11.835  13.297  68.548  1.00  0.00    -0.323 OA 
BRANCH   8   9
HETATM    9  C   UNL     1     -11.716  13.320  67.187  1.00  0.00    -0.376 A  
HETATM   10  C   UNL     1     -12.489  13.817  64.932  1.00  0.00    -0.420 A  
HETATM   11  C   UNL     1     -10.492  12.516  65.243  1.00  0.00    -0.313 A  
HETATM   12  C   UNL     1     -11.431  13.092  64.393  1.00  0.00    -0.407 A  
HETATM   13  C   UNL     1     -12.629  13.931  66.320  1.00  0.00    -0.376 A  
HETATM   14  C   UNL     1     -10.608  12.651  66.632  1.00  0.00    -0.248 A  
BRANCH  14  15
HETATM   15  O   UNL     1      -9.590  12.043  67.326  1.00  0.00    -0.180 OA 
BRANCH  15  16
HETATM   16  C   UNL     1      -9.469  10.632  67.138  1.00  0.00    -0.156 C  
HETATM   17  C   UNL     1     -10.697   9.966  67.738  1.00  0.00    -0.332 C  
ENDBRANCH  15  16
ENDBRANCH  14  15
ENDBRANCH   8   9
ENDBRANCH   1   8
BRANCH   1  18
HETATM   18  C   UNL     1     -12.038  14.074  70.816  1.00  0.00    -0.345 C  
HETATM   19  N   UNL     1     -12.467  16.283  72.010  1.00  0.00    -0.539 NA 
HETATM   20  O   UNL     1     -13.350  13.621  71.231  1.00  0.00    -0.285 OA 
HETATM   21  H   UNL     1     -12.472  16.917  71.211  1.00  0.00     0.000 HD 
HETATM   22  C   UNL     1     -13.811  15.772  72.323  1.00  0.00    -0.396 C  
HETATM   23  C   UNL     1     -11.542  15.148  71.816  1.00  0.00    -0.408 C  
HETATM   24  C   UNL     1     -14.296  14.687  71.350  1.00  0.00    -0.383 C  
ENDBRANCH   1  18
TORSDOF 6
ENDMDL
MODEL       53
REMARK 921   NORMALIZED FREE ENERGY PREDICTED BY IDOCK:   -5.23 KCAL/MOL
REMARK 922        TOTAL FREE ENERGY PREDICTED BY IDOCK:   -8.19 KCAL/MOL
REMARK 923 INTER-LIGAND FREE ENERGY PREDICTED BY IDOCK:   -8.13 KCAL/MOL
REMARK 924 INTRA-LIGAND FREE ENERGY PREDICTED BY IDOCK:   -0.06 KCAL/MOL
REMARK 927      BINDING AFFINITY PREDICTED BY RF-SCORE:    0.00 PKD
ROOT
HETATM    1  C   UNL     1     -11.906  12.426  67.514  1.00  0.00    -0.284 C  
ENDROOT
BRANCH   1   2
HETATM    2  C   UNL     1     -11.537  12.189  66.056  1.00  0.00    -0.420 A  
HETATM    3  C   UNL     1      -9.948  11.406  64.389  1.00  0.00    -0.321 A  
HETATM    4  C   UNL     1     -12.314  12.733  65.017  1.00  0.00    -0.559 A  
HETATM    5  C   UNL     1     -11.898  12.639  63.690  1.00  0.00    -0.606 A  
HETATM    6  C   UNL     1     -10.708  11.985  63.374  1.00  0.00    -0.475 A  
HETATM    7  C   UNL     1     -10.360  11.504  65.720  1.00  0.00    -0.295 A  
ENDBRANCH   1   2
BRANCH   1   8
HETATM    8  O   UNL     1     -12.100  11.128  68.115  1.00  0.00    -0.633 OA 
BRANCH   8   9
HETATM    9  C   UNL     1     -11.243  10.632  69.056  1.00  0.00    -0.265 A  
HETATM   10  C   UNL     1      -9.103   9.759  69.822  1.00  0.00    -0.246 A  
HETATM   11  C   UNL     1     -11.001   9.710  71.296  1.00  0.00    -0.399 A  
HETATM   12  C   UNL     1      -9.665   9.412  71.046  1.00  0.00    -0.293 A  
HETATM   13  C   UNL     1      -9.888  10.366  68.834  1.00  0.00    -0.206 A  
HETATM   14  C   UNL     1     -11.785  10.345  70.324  1.00  0.00    -0.321 A  
BRANCH  14  15
HETATM   15  O   UNL     1     -13.073  10.587  70.735  1.00  0.00    -0.364 OA 
BRANCH  15  16
HETATM   16  C   UNL     1     -13.212  11.142  72.044  1.00  0.00    -0.323 C  
HETATM   17  C   UNL     1     -13.378  12.647  71.907  1.00  0.00    -0.485 C  
ENDBRANCH  15  16
ENDBRANCH  14  15
ENDBRANCH   8   9
ENDBRANCH   1   8
BRANCH   1  18
HETATM   18  C   UNL     1     -10.809  13.144  68.357  1.00  0.00    -0.262 C  
HETATM   19  N   UNL     1     -10.638  15.410  67.208  1.00  0.00    -0.288 NA 
HETATM   20  O   UNL     1     -11.371  13.801  69.520  1.00  0.00    -0.260 OA 
HETATM   21  H   UNL     1     -11.297  15.270  66.442  1.00  0.00     0.000 HD 
HETATM   22  C   UNL     1     -11.283  15.984  68.399  1.00  0.00    -0.364 C  
HETATM   23  C   UNL     1      -9.940  14.163  67.579  1.00  0.00    -0.236 C  
HETATM   24  C   UNL     1     -12.125  14.970  69.188  1.00  0.00    -0.225 C  
ENDBRANCH   1  18
TORSDOF 6
ENDMDL
MODEL       54
REMARK 921   NORMALIZED FREE ENERGY PREDICTED BY IDOCK:   -5.22 KCAL/MOL
REMARK 922        TOTAL FREE ENERGY PREDICTED BY IDOCK:   -8.18 KCAL/MOL
REMARK 923 INTER-LIGAND FREE ENERGY PREDICTED BY IDOCK:   -7.05 KCAL/MOL
REMARK 924 INTRA-LIGAND FREE ENERGY PREDICTED BY IDOCK:   -1.13 KCAL/MOL
REMARK 927      BINDING AFFINITY PREDICTED BY RF-SCORE:    0.00 PKD
ROOT
HETATM    1  C   UNL     1     -10.178  15.168  67.059  1.00  0.00    -0.262 C  
ENDROOT
BRANCH   1   2
HETATM    2  C   UNL     1      -9.465  16.495  66.836  1.00  0.00    -0.250 A  
HETATM    3  C   UNL     1      -9.558  18.886  66.396  1.00  0.00    -0.377 A  
HETATM    4  C   UNL     1      -8.075  16.541  66.629  1.00  0.00    -0.314 A  
HETATM    5  C   UNL     1      -7.443  17.735  66.282  1.00  0.00    -0.328 A  
HETATM    6  C   UNL     1      -8.186  18.907  66.154  1.00  0.00    -0.222 A  
HETATM    7  C   UNL     1     -10.194  17.689  66.737  1.00  0.00    -0.335 A  
ENDBRANCH   1   2
BRANCH   1   8
HETATM    8  O   UNL     1      -9.682  14.251  66.060  1.00  0.00    -0.304 OA 
BRANCH   8   9
HETATM    9  C   UNL     1     -10.495  13.724  65.097  1.00  0.00    -0.384 A  
HETATM   10  C   UNL     1     -12.352  13.794  63.523  1.00  0.00    -0.172 A  
HETATM   11  C   UNL     1     -11.213  11.716  63.923  1.00  0.00    -0.479 A  
HETATM   12  C   UNL     1     -12.226  12.429  63.290  1.00  0.00    -0.520 A  
HETATM   13  C   UNL     1     -11.491  14.437  64.420  1.00  0.00    -0.299 A  
HETATM   14  C   UNL     1     -10.328  12.358  64.799  1.00  0.00    -0.299 A  
BRANCH  14  15
HETATM   15  O   UNL     1      -9.375  11.519  65.323  1.00  0.00    -0.212 OA 
BRANCH  15  16
HETATM   16  C   UNL     1      -9.529  10.133  65.009  1.00  0.00    -0.271 C  
HETATM   17  C   UNL     1      -9.864   9.390  66.293  1.00  0.00    -0.351 C  
ENDBRANCH  15  16
ENDBRANCH  14  15
ENDBRANCH   8   9
ENDBRANCH   1   8
BRANCH   1  18
HETATM   18  C   UNL     1      -9.904  14.505  68.443  1.00  0.00    -0.227 C  
HETATM   19  N   UNL     1     -11.885  15.304  69.829  1.00  0.00    -0.311 NA 
HETATM   20  O   UNL     1     -10.433  13.157  68.504  1.00  0.00    -0.249 OA 
HETATM   21  H   UNL     1     -12.345  15.908  69.148  1.00  0.00     0.000 HD 
HETATM   22  C   UNL     1     -12.388  13.923  69.778  1.00  0.00    -0.275 C  
HETATM   23  C   UNL     1     -10.417  15.299  69.669  1.00  0.00    -0.270 C  
HETATM   24  C   UNL     1     -11.861  13.123  68.577  1.00  0.00    -0.342 C  
ENDBRANCH   1  18
TORSDOF 6
ENDMDL
MODEL       55
REMARK 921   NORMALIZED FREE ENERGY PREDICTED BY IDOCK:   -5.22 KCAL/MOL
REMARK 922        TOTAL FREE ENERGY PREDICTED BY IDOCK:   -8.18 KCAL/MOL
REMARK 923 INTER-LIGAND FREE ENERGY PREDICTED BY IDOCK:   -7.50 KCAL/MOL
REMARK 924 INTRA-LIGAND FREE ENERGY PREDICTED BY IDOCK:   -0.67 KCAL/MOL
REMARK 927      BINDING AFFINITY PREDICTED BY RF-SCORE:    0.00 PKD
ROOT
HETATM    1  C   UNL     1     -12.317  10.380  70.965  1.00  0.00    -0.387 C  
ENDROOT
BRANCH   1   2
HETATM    2  C   UNL     1     -12.579  11.873  71.101  1.00  0.00    -0.390 A  
HETATM    3  C   UNL     1     -13.713  13.718  72.210  1.00  0.00    -0.673 A  
HETATM    4  C   UNL     1     -12.133  12.777  70.120  1.00  0.00    -0.370 A  
HETATM    5  C   UNL     1     -12.496  14.122  70.169  1.00  0.00    -0.391 A  
HETATM    6  C   UNL     1     -13.296  14.593  71.208  1.00  0.00    -0.447 A  
HETATM    7  C   UNL     1     -13.355  12.368  72.159  1.00  0.00    -0.508 A  
ENDBRANCH   1   2
BRANCH   1   8
HETATM    8  O   UNL     1     -10.886  10.211  70.876  1.00  0.00    -0.290 OA 
BRANCH   8   9
HETATM    9  C   UNL     1     -10.275   9.818  69.718  1.00  0.00    -0.242 A  
HETATM   10  C   UNL     1     -10.225   9.295  67.341  1.00  0.00    -0.304 A  
HETATM   11  C   UNL     1      -8.305   8.813  68.703  1.00  0.00    -0.128 A  
HETATM   12  C   UNL     1      -8.941   8.776  67.466  1.00  0.00    -0.142 A  
HETATM   13  C   UNL     1     -10.887   9.814  68.460  1.00  0.00    -0.227 A  
HETATM   14  C   UNL     1      -8.948   9.358  69.821  1.00  0.00    -0.188 A  
BRANCH  14  15
HETATM   15  O   UNL     1      -8.177   9.339  70.958  1.00  0.00    -0.252 OA 
BRANCH  15  16
HETATM   16  C   UNL     1      -7.998   8.058  71.563  1.00  0.00    -0.105 C  
HETATM   17  C   UNL     1      -8.406   8.162  73.024  1.00  0.00    -0.260 C  
ENDBRANCH  15  16
ENDBRANCH  14  15
ENDBRANCH   8   9
ENDBRANCH   1   8
BRANCH   1  18
HETATM   18  C   UNL     1     -12.789   9.521  72.177  1.00  0.00    -0.389 C  
HETATM   19  N   UNL     1     -14.322   7.816  71.069  1.00  0.00    -0.656 NA 
HETATM   20  O   UNL     1     -11.855   8.455  72.474  1.00  0.00    -0.391 OA 
HETATM   21  H   UNL     1     -14.290   8.149  70.106  1.00  0.00     0.000 HD 
HETATM   22  C   UNL     1     -13.285   6.809  71.344  1.00  0.00    -0.096 C  
HETATM   23  C   UNL     1     -14.209   8.918  72.045  1.00  0.00    -0.369 C  
HETATM   24  C   UNL     1     -11.879   7.406  71.502  1.00  0.00    -0.297 C  
ENDBRANCH   1  18
TORSDOF 6
ENDMDL
MODEL       56
REMARK 921   NORMALIZED FREE ENERGY PREDICTED BY IDOCK:   -5.22 KCAL/MOL
REMARK 922        TOTAL FREE ENERGY PREDICTED BY IDOCK:   -8.18 KCAL/MOL
REMARK 923 INTER-LIGAND FREE ENERGY PREDICTED BY IDOCK:   -6.74 KCAL/MOL
REMARK 924 INTRA-LIGAND FREE ENERGY PREDICTED BY IDOCK:   -1.43 KCAL/MOL
REMARK 927      BINDING AFFINITY PREDICTED BY RF-SCORE:    0.00 PKD
ROOT
HETATM    1  C   UNL     1     -10.699   9.840  69.644  1.00  0.00    -0.242 C  
ENDROOT
BRANCH   1   2
HETATM    2  C   UNL     1      -9.911  10.072  68.362  1.00  0.00    -0.169 A  
HETATM    3  C   UNL     1      -8.129  11.216  67.165  1.00  0.00    -0.138 A  
HETATM    4  C   UNL     1     -10.359   9.550  67.135  1.00  0.00    -0.320 A  
HETATM    5  C   UNL     1      -9.720   9.881  65.942  1.00  0.00    -0.326 A  
HETATM    6  C   UNL     1      -8.610  10.724  65.953  1.00  0.00    -0.182 A  
HETATM    7  C   UNL     1      -8.772  10.891  68.362  1.00  0.00    -0.147 A  
ENDBRANCH   1   2
BRANCH   1   8
HETATM    8  O   UNL     1     -11.968  10.510  69.485  1.00  0.00    -0.259 OA 
BRANCH   8   9
HETATM    9  C   UNL     1     -12.307  11.602  70.232  1.00  0.00    -0.258 A  
HETATM   10  C   UNL     1     -13.386  12.718  72.108  1.00  0.00    -0.593 A  
HETATM   11  C   UNL     1     -12.411  14.031  70.348  1.00  0.00    -0.429 A  
HETATM   12  C   UNL     1     -13.118  13.960  71.543  1.00  0.00    -0.441 A  
HETATM   13  C   UNL     1     -12.981  11.547  71.457  1.00  0.00    -0.485 A  
HETATM   14  C   UNL     1     -11.976  12.865  69.705  1.00  0.00    -0.296 A  
BRANCH  14  15
HETATM   15  O   UNL     1     -11.275  13.108  68.549  1.00  0.00    -0.241 OA 
BRANCH  15  16
HETATM   16  C   UNL     1     -12.007  13.748  67.503  1.00  0.00    -0.376 C  
HETATM   17  C   UNL     1     -11.925  12.874  66.262  1.00  0.00    -0.472 C  
ENDBRANCH  15  16
ENDBRANCH  14  15
ENDBRANCH   8   9
ENDBRANCH   1   8
BRANCH   1  18
HETATM   18  C   UNL     1     -11.022   8.346  69.951  1.00  0.00    -0.166 C  
HETATM   19  N   UNL     1      -9.093   7.675  71.471  1.00  0.00    -0.131 NA 
HETATM   20  O   UNL     1     -11.926   8.214  71.075  1.00  0.00    -0.295 OA 
HETATM   21  H   UNL     1      -8.553   8.539  71.463  1.00  0.00     0.000 HD 
HETATM   22  C   UNL     1     -10.067   7.638  72.573  1.00  0.00    -0.229 C  
HETATM   23  C   UNL     1      -9.790   7.440  70.191  1.00  0.00    -0.180 C  
HETATM   24  C   UNL     1     -11.304   8.515  72.328  1.00  0.00    -0.371 C  
ENDBRANCH   1  18
TORSDOF 6
ENDMDL
MODEL       57
REMARK 921   NORMALIZED FREE ENERGY PREDICTED BY IDOCK:   -5.21 KCAL/MOL
REMARK 922        TOTAL FREE ENERGY PREDICTED BY IDOCK:   -8.16 KCAL/MOL
REMARK 923 INTER-LIGAND FREE ENERGY PREDICTED BY IDOCK:   -7.39 KCAL/MOL
REMARK 924 INTRA-LIGAND FREE ENERGY PREDICTED BY IDOCK:   -0.77 KCAL/MOL
REMARK 927      BINDING AFFINITY PREDICTED BY RF-SCORE:    0.00 PKD
ROOT
HETATM    1  C   UNL     1     -10.750  10.414  69.050  1.00  0.00    -0.228 C  
ENDROOT
BRANCH   1   2
HETATM    2  C   UNL     1     -11.686  11.136  70.010  1.00  0.00    -0.438 A  
HETATM    3  C   UNL     1     -12.457  13.200  71.043  1.00  0.00    -0.406 A  
HETATM    4  C   UNL     1     -12.480  10.418  70.921  1.00  0.00    -0.478 A  
HETATM    5  C   UNL     1     -13.226  11.080  71.895  1.00  0.00    -0.503 A  
HETATM    6  C   UNL     1     -13.207  12.471  71.965  1.00  0.00    -0.524 A  
HETATM    7  C   UNL     1     -11.704  12.538  70.070  1.00  0.00    -0.297 A  
ENDBRANCH   1   2
BRANCH   1   8
HETATM    8  O   UNL     1     -10.266  11.400  68.113  1.00  0.00    -0.176 OA 
BRANCH   8   9
HETATM    9  C   UNL     1     -10.436  11.259  66.764  1.00  0.00    -0.248 A  
HETATM   10  C   UNL     1      -9.842  10.404  64.563  1.00  0.00    -0.405 A  
HETATM   11  C   UNL     1     -11.570  12.063  64.766  1.00  0.00    -0.344 A  
HETATM   12  C   UNL     1     -10.776  11.245  63.968  1.00  0.00    -0.444 A  
HETATM   13  C   UNL     1      -9.675  10.411  65.953  1.00  0.00    -0.272 A  
HETATM   14  C   UNL     1     -11.429  12.053  66.159  1.00  0.00    -0.339 A  
BRANCH  14  15
HETATM   15  O   UNL     1     -12.301  12.899  66.802  1.00  0.00    -0.405 OA 
BRANCH  15  16
HETATM   16  C   UNL     1     -12.202  14.278  66.443  1.00  0.00    -0.401 C  
HETATM   17  C   UNL     1     -10.992  14.867  67.152  1.00  0.00    -0.323 C  
ENDBRANCH  15  16
ENDBRANCH  14  15
ENDBRANCH   8   9
ENDBRANCH   1   8
BRANCH   1  18
HETATM   18  C   UNL     1      -9.491   9.783  69.718  1.00  0.00    -0.228 C  
HETATM   19  N   UNL     1     -10.445   7.688  70.805  1.00  0.00    -0.208 NA 
HETATM   20  O   UNL     1      -8.758   8.943  68.792  1.00  0.00    -0.134 OA 
HETATM   21  H   UNL     1     -11.433   7.805  70.578  1.00  0.00     0.000 HD 
HETATM   22  C   UNL     1      -9.728   6.914  69.780  1.00  0.00    -0.164 C  
HETATM   23  C   UNL     1      -9.763   8.980  71.013  1.00  0.00    -0.278 C  
HETATM   24  C   UNL     1      -9.432   7.715  68.503  1.00  0.00    -0.147 C  
ENDBRANCH   1  18
TORSDOF 6
ENDMDL
MODEL       58
REMARK 921   NORMALIZED FREE ENERGY PREDICTED BY IDOCK:   -5.18 KCAL/MOL
REMARK 922        TOTAL FREE ENERGY PREDICTED BY IDOCK:   -8.12 KCAL/MOL
REMARK 923 INTER-LIGAND FREE ENERGY PREDICTED BY IDOCK:   -6.97 KCAL/MOL
REMARK 924 INTRA-LIGAND FREE ENERGY PREDICTED BY IDOCK:   -1.14 KCAL/MOL
REMARK 927      BINDING AFFINITY PREDICTED BY RF-SCORE:    0.00 PKD
ROOT
HETATM    1  C   UNL     1     -10.109  11.150  68.783  1.00  0.00    -0.201 C  
ENDROOT
BRANCH   1   2
HETATM    2  C   UNL     1     -10.902  12.149  67.953  1.00  0.00    -0.254 A  
HETATM    3  C   UNL     1     -11.901  12.799  65.832  1.00  0.00    -0.490 A  
HETATM    4  C   UNL     1     -11.176  13.438  68.443  1.00  0.00    -0.311 A  
HETATM    5  C   UNL     1     -11.775  14.400  67.630  1.00  0.00    -0.421 A  
HETATM    6  C   UNL     1     -12.128  14.085  66.320  1.00  0.00    -0.482 A  
HETATM    7  C   UNL     1     -11.295  11.837  66.643  1.00  0.00    -0.381 A  
ENDBRANCH   1   2
BRANCH   1   8
HETATM    8  O   UNL     1     -10.939   9.979  68.939  1.00  0.00    -0.225 OA 
BRANCH   8   9
HETATM    9  C   UNL     1     -11.638   9.737  70.088  1.00  0.00    -0.182 A  
HETATM   10  C   UNL     1     -13.155  10.343  71.893  1.00  0.00    -0.563 A  
HETATM   11  C   UNL     1     -11.955   8.263  71.999  1.00  0.00    -0.405 A  
HETATM   12  C   UNL     1     -12.837   9.172  72.574  1.00  0.00    -0.387 A  
HETATM   13  C   UNL     1     -12.560  10.621  70.657  1.00  0.00    -0.454 A  
HETATM   14  C   UNL     1     -11.379   8.521  70.748  1.00  0.00    -0.266 A  
BRANCH  14  15
HETATM   15  O   UNL     1     -10.550   7.516  70.312  1.00  0.00    -0.219 OA 
BRANCH  15  16
HETATM   16  C   UNL     1     -11.202   6.337  69.836  1.00  0.00    -0.429 C  
HETATM   17  C   UNL     1     -10.413   5.130  70.319  1.00  0.00    -0.296 C  
ENDBRANCH  15  16
ENDBRANCH  14  15
ENDBRANCH   8   9
ENDBRANCH   1   8
BRANCH   1  18
HETATM   18  C   UNL     1      -8.780  10.665  68.127  1.00  0.00    -0.130 C  
HETATM   19  N   UNL     1      -7.021  11.919  69.476  1.00  0.00    -0.329 NA 
HETATM   20  O   UNL     1      -8.314   9.426  68.714  1.00  0.00    -0.113 OA 
HETATM   21  H   UNL     1      -7.626  12.473  70.083  1.00  0.00     0.000 HD 
HETATM   22  C   UNL     1      -6.662  10.626  70.078  1.00  0.00    -0.156 C  
HETATM   23  C   UNL     1      -7.622  11.693  68.146  1.00  0.00    -0.115 C  
HETATM   24  C   UNL     1      -7.800   9.595  70.038  1.00  0.00    -0.165 C  
ENDBRANCH   1  18
TORSDOF 6
ENDMDL
MODEL       59
REMARK 921   NORMALIZED FREE ENERGY PREDICTED BY IDOCK:   -5.16 KCAL/MOL
REMARK 922        TOTAL FREE ENERGY PREDICTED BY IDOCK:   -8.09 KCAL/MOL
REMARK 923 INTER-LIGAND FREE ENERGY PREDICTED BY IDOCK:   -7.23 KCAL/MOL
REMARK 924 INTRA-LIGAND FREE ENERGY PREDICTED BY IDOCK:   -0.86 KCAL/MOL
REMARK 927      BINDING AFFINITY PREDICTED BY RF-SCORE:    0.00 PKD
ROOT
HETATM    1  C   UNL     1     -10.747  13.333  66.699  1.00  0.00    -0.280 C  
ENDROOT
BRANCH   1   2
HETATM    2  C   UNL     1      -9.764  14.482  66.519  1.00  0.00    -0.301 A  
HETATM    3  C   UNL     1      -7.619  15.514  67.021  1.00  0.00    -0.228 A  
HETATM    4  C   UNL     1     -10.158  15.676  65.889  1.00  0.00    -0.378 A  
HETATM    5  C   UNL     1      -9.306  16.779  65.854  1.00  0.00    -0.162 A  
HETATM    6  C   UNL     1      -8.039  16.704  66.429  1.00  0.00    -0.359 A  
HETATM    7  C   UNL     1      -8.474  14.409  67.064  1.00  0.00    -0.206 A  
ENDBRANCH   1   2
BRANCH   1   8
HETATM    8  O   UNL     1     -11.697  13.745  67.705  1.00  0.00    -0.325 OA 
BRANCH   8   9
HETATM    9  C   UNL     1     -11.943  12.992  68.818  1.00  0.00    -0.266 A  
HETATM   10  C   UNL     1     -12.342  10.901  69.999  1.00  0.00    -0.385 A  
HETATM   11  C   UNL     1     -12.600  12.988  71.162  1.00  0.00    -0.388 A  
HETATM   12  C   UNL     1     -12.673  11.599  71.155  1.00  0.00    -0.426 A  
HETATM   13  C   UNL     1     -11.978  11.594  68.839  1.00  0.00    -0.355 A  
HETATM   14  C   UNL     1     -12.207  13.688  70.013  1.00  0.00    -0.329 A  
BRANCH  14  15
HETATM   15  O   UNL     1     -12.166  15.049  70.191  1.00  0.00    -0.310 OA 
BRANCH  15  16
HETATM   16  C   UNL     1     -10.863  15.614  70.349  1.00  0.00    -0.340 C  
HETATM   17  C   UNL     1     -10.723  16.765  69.366  1.00  0.00    -0.300 C  
ENDBRANCH  15  16
ENDBRANCH  14  15
ENDBRANCH   8   9
ENDBRANCH   1   8
BRANCH   1  18
HETATM   18  C   UNL     1     -11.575  12.978  65.427  1.00  0.00    -0.341 C  
HETATM   19  N   UNL     1      -9.757  12.576  63.690  1.00  0.00    -0.669 NA 
HETATM   20  O   UNL     1     -11.903  11.568  65.377  1.00  0.00    -0.127 OA 
HETATM   21  H   UNL     1      -8.930  12.799  64.245  1.00  0.00     0.000 HD 
HETATM   22  C   UNL     1     -10.104  11.149  63.758  1.00  0.00    -0.361 C  
HETATM   23  C   UNL     1     -10.927  13.387  64.082  1.00  0.00    -0.304 C  
HETATM   24  C   UNL     1     -10.772  10.743  65.081  1.00  0.00    -0.089 C  
ENDBRANCH   1  18
TORSDOF 6
ENDMDL
MODEL       60
REMARK 921   NORMALIZED FREE ENERGY PREDICTED BY IDOCK:   -5.12 KCAL/MOL
REMARK 922        TOTAL FREE ENERGY PREDICTED BY IDOCK:   -8.04 KCAL/MOL
REMARK 923 INTER-LIGAND FREE ENERGY PREDICTED BY IDOCK:   -6.79 KCAL/MOL
REMARK 924 INTRA-LIGAND FREE ENERGY PREDICTED BY IDOCK:   -1.25 KCAL/MOL
REMARK 927      BINDING AFFINITY PREDICTED BY RF-SCORE:    0.00 PKD
ROOT
HETATM    1  C   UNL     1      -8.889  15.457  67.536  1.00  0.00    -0.180 C  
ENDROOT
BRANCH   1   2
HETATM    2  C   UNL     1      -9.985  14.686  66.815  1.00  0.00    -0.265 A  
HETATM    3  C   UNL     1     -11.071  14.013  64.745  1.00  0.00    -0.391 A  
HETATM    4  C   UNL     1     -11.061  14.125  67.527  1.00  0.00    -0.304 A  
HETATM    5  C   UNL     1     -12.136  13.545  66.856  1.00  0.00    -0.417 A  
HETATM    6  C   UNL     1     -12.149  13.498  65.463  1.00  0.00    -0.454 A  
HETATM    7  C   UNL     1      -9.995  14.600  65.415  1.00  0.00    -0.365 A  
ENDBRANCH   1   2
BRANCH   1   8
HETATM    8  O   UNL     1      -9.522  16.582  68.184  1.00  0.00    -0.215 OA 
BRANCH   8   9
HETATM    9  C   UNL     1      -9.680  17.784  67.554  1.00  0.00    -0.284 A  
HETATM   10  C   UNL     1     -10.621  19.258  65.861  1.00  0.00    -0.521 A  
HETATM   11  C   UNL     1      -8.841  20.051  67.268  1.00  0.00    -0.428 A  
HETATM   12  C   UNL     1      -9.729  20.264  66.218  1.00  0.00    -0.455 A  
HETATM   13  C   UNL     1     -10.597  18.027  66.526  1.00  0.00    -0.263 A  
HETATM   14  C   UNL     1      -8.831  18.832  67.958  1.00  0.00    -0.300 A  
BRANCH  14  15
HETATM   15  O   UNL     1      -7.912  18.791  68.979  1.00  0.00    -0.268 OA 
BRANCH  15  16
HETATM   16  C   UNL     1      -6.638  19.369  68.689  1.00  0.00    -0.275 C  
HETATM   17  C   UNL     1      -5.964  19.717  70.006  1.00  0.00    -0.323 C  
ENDBRANCH  15  16
ENDBRANCH  14  15
ENDBRANCH   8   9
ENDBRANCH   1   8
BRANCH   1  18
HETATM   18  C   UNL     1      -8.156  14.657  68.656  1.00  0.00    -0.150 C  
HETATM   19  N   UNL     1      -6.217  13.601  67.387  1.00  0.00    -0.400 NA 
HETATM   20  O   UNL     1      -7.207  15.485  69.372  1.00  0.00    -0.175 OA 
HETATM   21  H   UNL     1      -6.429  13.922  66.442  1.00  0.00     0.000 HD 
HETATM   22  C   UNL     1      -5.332  14.531  68.105  1.00  0.00    -0.120 C  
HETATM   23  C   UNL     1      -7.438  13.369  68.184  1.00  0.00    -0.133 C  
HETATM   24  C   UNL     1      -6.046  15.799  68.597  1.00  0.00    -0.100 C  
ENDBRANCH   1  18
TORSDOF 6
ENDMDL
MODEL       61
REMARK 921   NORMALIZED FREE ENERGY PREDICTED BY IDOCK:   -5.11 KCAL/MOL
REMARK 922        TOTAL FREE ENERGY PREDICTED BY IDOCK:   -8.02 KCAL/MOL
REMARK 923 INTER-LIGAND FREE ENERGY PREDICTED BY IDOCK:   -7.03 KCAL/MOL
REMARK 924 INTRA-LIGAND FREE ENERGY PREDICTED BY IDOCK:   -0.99 KCAL/MOL
REMARK 927      BINDING AFFINITY PREDICTED BY RF-SCORE:    0.00 PKD
ROOT
HETATM    1  C   UNL     1     -10.520  15.159  67.247  1.00  0.00    -0.271 C  
ENDROOT
BRANCH   1   2
HETATM    2  C   UNL     1     -10.229  13.959  66.357  1.00  0.00    -0.292 A  
HETATM    3  C   UNL     1     -10.673  12.683  64.335  1.00  0.00    -0.384 A  
HETATM    4  C   UNL     1      -9.431  12.896  66.817  1.00  0.00    -0.245 A  
HETATM    5  C   UNL     1      -9.282  11.735  66.061  1.00  0.00    -0.202 A  
HETATM    6  C   UNL     1      -9.912  11.622  64.823  1.00  0.00    -0.292 A  
HETATM    7  C   UNL     1     -10.828  13.845  65.095  1.00  0.00    -0.364 A  
ENDBRANCH   1   2
BRANCH   1   8
HETATM    8  O   UNL     1     -10.637  16.308  66.380  1.00  0.00    -0.306 OA 
BRANCH   8   9
HETATM    9  C   UNL     1     -10.065  17.509  66.691  1.00  0.00    -0.328 A  
HETATM   10  C   UNL     1     -10.122  19.851  67.357  1.00  0.00    -0.567 A  
HETATM   11  C   UNL     1      -8.044  18.865  66.657  1.00  0.00    -0.290 A  
HETATM   12  C   UNL     1      -8.764  19.977  67.085  1.00  0.00    -0.414 A  
HETATM   13  C   UNL     1     -10.767  18.624  67.162  1.00  0.00    -0.433 A  
HETATM   14  C   UNL     1      -8.677  17.627  66.490  1.00  0.00    -0.263 A  
BRANCH  14  15
HETATM   15  O   UNL     1      -7.823  16.629  66.085  1.00  0.00    -0.308 OA 
BRANCH  15  16
HETATM   16  C   UNL     1      -6.703  16.388  66.938  1.00  0.00    -0.170 C  
HETATM   17  C   UNL     1      -7.196  15.643  68.168  1.00  0.00    -0.122 C  
ENDBRANCH  15  16
ENDBRANCH  14  15
ENDBRANCH   8   9
ENDBRANCH   1   8
BRANCH   1  18
HETATM   18  C   UNL     1     -11.856  15.071  68.046  1.00  0.00    -0.241 C  
HETATM   19  N   UNL     1     -11.258  13.461  69.927  1.00  0.00    -0.482 NA 
HETATM   20  O   UNL     1     -11.968  16.135  69.022  1.00  0.00    -0.291 OA 
HETATM   21  H   UNL     1     -10.300  13.229  69.663  1.00  0.00     0.000 HD 
HETATM   22  C   UNL     1     -11.319  14.614  70.838  1.00  0.00    -0.095 C  
HETATM   23  C   UNL     1     -12.114  13.717  68.752  1.00  0.00    -0.309 C  
HETATM   24  C   UNL     1     -11.090  15.962  70.138  1.00  0.00    -0.365 C  
ENDBRANCH   1  18
TORSDOF 6
ENDMDL
MODEL       62
REMARK 921   NORMALIZED FREE ENERGY PREDICTED BY IDOCK:   -5.10 KCAL/MOL
REMARK 922        TOTAL FREE ENERGY PREDICTED BY IDOCK:   -8.01 KCAL/MOL
REMARK 923 INTER-LIGAND FREE ENERGY PREDICTED BY IDOCK:   -6.70 KCAL/MOL
REMARK 924 INTRA-LIGAND FREE ENERGY PREDICTED BY IDOCK:   -1.31 KCAL/MOL
REMARK 927      BINDING AFFINITY PREDICTED BY RF-SCORE:    0.00 PKD
ROOT
HETATM    1  C   UNL     1     -10.396  11.680  67.617  1.00  0.00    -0.189 C  
ENDROOT
BRANCH   1   2
HETATM    2  C   UNL     1      -9.247  11.272  66.706  1.00  0.00    -0.186 A  
HETATM    3  C   UNL     1      -8.445  10.122  64.718  1.00  0.00    -0.180 A  
HETATM    4  C   UNL     1      -7.911  11.454  67.104  1.00  0.00    -0.156 A  
HETATM    5  C   UNL     1      -6.862  10.951  66.336  1.00  0.00    -0.135 A  
HETATM    6  C   UNL     1      -7.127  10.274  65.147  1.00  0.00    -0.121 A  
HETATM    7  C   UNL     1      -9.498  10.620  65.490  1.00  0.00    -0.261 A  
ENDBRANCH   1   2
BRANCH   1   8
HETATM    8  O   UNL     1     -11.218  12.604  66.871  1.00  0.00    -0.272 OA 
BRANCH   8   9
HETATM    9  C   UNL     1     -10.890  13.924  66.747  1.00  0.00    -0.286 A  
HETATM   10  C   UNL     1     -10.507  16.172  67.601  1.00  0.00    -0.292 A  
HETATM   11  C   UNL     1     -10.520  15.790  65.229  1.00  0.00    -0.427 A  
HETATM   12  C   UNL     1     -10.417  16.666  66.304  1.00  0.00    -0.272 A  
HETATM   13  C   UNL     1     -10.740  14.810  67.821  1.00  0.00    -0.268 A  
HETATM   14  C   UNL     1     -10.724  14.421  65.440  1.00  0.00    -0.348 A  
BRANCH  14  15
HETATM   15  O   UNL     1     -10.781  13.692  64.277  1.00  0.00    -0.398 OA 
BRANCH  15  16
HETATM   16  C   UNL     1     -12.092  13.443  63.766  1.00  0.00    -0.456 C  
HETATM   17  C   UNL     1     -12.165  11.986  63.337  1.00  0.00    -0.627 C  
ENDBRANCH  15  16
ENDBRANCH  14  15
ENDBRANCH   8   9
ENDBRANCH   1   8
BRANCH   1  18
HETATM   18  C   UNL     1     -11.330  10.510  68.053  1.00  0.00    -0.246 C  
HETATM   19  N   UNL     1     -10.185   9.658  70.162  1.00  0.00    -0.247 NA 
HETATM   20  O   UNL     1     -12.432  10.980  68.868  1.00  0.00    -0.460 OA 
HETATM   21  H   UNL     1      -9.364  10.262  70.173  1.00  0.00     0.000 HD 
HETATM   22  C   UNL     1     -11.308  10.232  70.919  1.00  0.00    -0.295 C  
HETATM   23  C   UNL     1     -10.627   9.343  68.788  1.00  0.00    -0.208 C  
HETATM   24  C   UNL     1     -12.025  11.372  70.182  1.00  0.00    -0.377 C  
ENDBRANCH   1  18
TORSDOF 6
ENDMDL
MODEL       63
REMARK 921   NORMALIZED FREE ENERGY PREDICTED BY IDOCK:   -5.08 KCAL/MOL
REMARK 922        TOTAL FREE ENERGY PREDICTED BY IDOCK:   -7.99 KCAL/MOL
REMARK 923 INTER-LIGAND FREE ENERGY PREDICTED BY IDOCK:   -7.07 KCAL/MOL
REMARK 924 INTRA-LIGAND FREE ENERGY PREDICTED BY IDOCK:   -0.92 KCAL/MOL
REMARK 927      BINDING AFFINITY PREDICTED BY RF-SCORE:    0.00 PKD
ROOT
HETATM    1  C   UNL     1     -12.071  12.751  69.902  1.00  0.00    -0.259 C  
ENDROOT
BRANCH   1   2
HETATM    2  C   UNL     1     -11.532  13.223  68.559  1.00  0.00    -0.347 A  
HETATM    3  C   UNL     1     -11.926  13.909  66.258  1.00  0.00    -0.462 A  
HETATM    4  C   UNL     1     -10.154  13.193  68.283  1.00  0.00    -0.247 A  
HETATM    5  C   UNL     1      -9.673  13.487  67.008  1.00  0.00    -0.251 A  
HETATM    6  C   UNL     1     -10.560  13.835  65.990  1.00  0.00    -0.290 A  
HETATM    7  C   UNL     1     -12.409  13.608  67.534  1.00  0.00    -0.103 A  
ENDBRANCH   1   2
BRANCH   1   8
HETATM    8  O   UNL     1     -11.318  11.574  70.267  1.00  0.00    -0.187 OA 
BRANCH   8   9
HETATM    9  C   UNL     1     -11.919  10.466  70.793  1.00  0.00    -0.363 A  
HETATM   10  C   UNL     1     -13.823   9.202  71.633  1.00  0.00    -0.396 A  
HETATM   11  C   UNL     1     -11.607   8.299  71.858  1.00  0.00    -0.377 A  
HETATM   12  C   UNL     1     -12.976   8.196  72.085  1.00  0.00    -0.287 A  
HETATM   13  C   UNL     1     -13.298  10.328  70.989  1.00  0.00    -0.299 A  
HETATM   14  C   UNL     1     -11.076   9.409  71.188  1.00  0.00    -0.362 A  
BRANCH  14  15
HETATM   15  O   UNL     1      -9.713   9.348  71.026  1.00  0.00    -0.275 OA 
BRANCH  15  16
HETATM   16  C   UNL     1      -9.233   8.265  70.227  1.00  0.00    -0.155 C  
HETATM   17  C   UNL     1      -9.856   8.382  68.846  1.00  0.00    -0.184 C  
ENDBRANCH  15  16
ENDBRANCH  14  15
ENDBRANCH   8   9
ENDBRANCH   1   8
BRANCH   1  18
HETATM   18  C   UNL     1     -11.894  13.768  71.071  1.00  0.00     0.022 C  
HETATM   19  N   UNL     1     -13.562  15.593  70.457  1.00  0.00    -0.768 NA 
HETATM   20  O   UNL     1     -12.722  13.425  72.209  1.00  0.00    -0.179 OA 
HETATM   21  H   UNL     1     -13.899  15.231  69.565  1.00  0.00     0.000 HD 
HETATM   22  C   UNL     1     -14.378  15.130  71.589  1.00  0.00    -0.585 C  
HETATM   23  C   UNL     1     -12.146  15.250  70.699  1.00  0.00    -0.354 C  
HETATM   24  C   UNL     1     -14.113  13.668  71.979  1.00  0.00    -0.367 C  
ENDBRANCH   1  18
TORSDOF 6
ENDMDL
MODEL       64
REMARK 921   NORMALIZED FREE ENERGY PREDICTED BY IDOCK:   -5.08 KCAL/MOL
REMARK 922        TOTAL FREE ENERGY PREDICTED BY IDOCK:   -7.98 KCAL/MOL
REMARK 923 INTER-LIGAND FREE ENERGY PREDICTED BY IDOCK:   -7.88 KCAL/MOL
REMARK 924 INTRA-LIGAND FREE ENERGY PREDICTED BY IDOCK:   -0.11 KCAL/MOL
REMARK 927      BINDING AFFINITY PREDICTED BY RF-SCORE:    0.00 PKD
ROOT
HETATM    1  C   UNL     1     -11.731  14.459  67.358  1.00  0.00    -0.397 C  
ENDROOT
BRANCH   1   2
HETATM    2  C   UNL     1     -11.942  13.838  68.732  1.00  0.00    -0.400 A  
HETATM    3  C   UNL     1     -12.107  11.866  70.147  1.00  0.00    -0.382 A  
HETATM    4  C   UNL     1     -12.394  14.615  69.813  1.00  0.00    -0.306 A  
HETATM    5  C   UNL     1     -12.726  14.022  71.031  1.00  0.00    -0.431 A  
HETATM    6  C   UNL     1     -12.593  12.644  71.196  1.00  0.00    -0.354 A  
HETATM    7  C   UNL     1     -11.781  12.458  68.925  1.00  0.00    -0.372 A  
ENDBRANCH   1   2
BRANCH   1   8
HETATM    8  O   UNL     1     -10.344  14.251  67.012  1.00  0.00    -0.263 OA 
BRANCH   8   9
HETATM    9  C   UNL     1      -9.335  14.938  67.625  1.00  0.00    -0.191 A  
HETATM   10  C   UNL     1      -7.431  15.149  69.127  1.00  0.00    -0.176 A  
HETATM   11  C   UNL     1      -8.378  17.119  68.129  1.00  0.00    -0.226 A  
HETATM   12  C   UNL     1      -7.449  16.532  68.981  1.00  0.00    -0.229 A  
HETATM   13  C   UNL     1      -8.367  14.358  68.452  1.00  0.00    -0.155 A  
HETATM   14  C   UNL     1      -9.299  16.332  67.426  1.00  0.00    -0.221 A  
BRANCH  14  15
HETATM   15  O   UNL     1     -10.132  17.062  66.612  1.00  0.00    -0.284 OA 
BRANCH  15  16
HETATM   16  C   UNL     1     -10.570  18.315  67.138  1.00  0.00    -0.367 C  
HETATM   17  C   UNL     1     -10.579  19.329  66.005  1.00  0.00    -0.550 C  
ENDBRANCH  15  16
ENDBRANCH  14  15
ENDBRANCH   8   9
ENDBRANCH   1   8
BRANCH   1  18
HETATM   18  C   UNL     1     -12.573  13.816  66.215  1.00  0.00    -0.321 C  
HETATM   19  N   UNL     1     -11.176  14.339  64.152  1.00  0.00    -0.585 NA 
HETATM   20  O   UNL     1     -12.261  12.412  66.044  1.00  0.00    -0.636 OA 
HETATM   21  H   UNL     1     -10.430  14.889  64.578  1.00  0.00     0.000 HD 
HETATM   22  C   UNL     1     -10.848  12.906  64.096  1.00  0.00    -0.416 C  
HETATM   23  C   UNL     1     -12.468  14.522  64.841  1.00  0.00    -0.311 C  
HETATM   24  C   UNL     1     -10.977  12.196  65.452  1.00  0.00    -0.302 C  
ENDBRANCH   1  18
TORSDOF 6
ENDMDL
MODEL       65
REMARK 921   NORMALIZED FREE ENERGY PREDICTED BY IDOCK:   -5.07 KCAL/MOL
REMARK 922        TOTAL FREE ENERGY PREDICTED BY IDOCK:   -7.98 KCAL/MOL
REMARK 923 INTER-LIGAND FREE ENERGY PREDICTED BY IDOCK:   -7.17 KCAL/MOL
REMARK 924 INTRA-LIGAND FREE ENERGY PREDICTED BY IDOCK:   -0.81 KCAL/MOL
REMARK 927      BINDING AFFINITY PREDICTED BY RF-SCORE:    0.00 PKD
ROOT
HETATM    1  C   UNL     1     -10.934  12.364  67.279  1.00  0.00    -0.260 C  
ENDROOT
BRANCH   1   2
HETATM    2  C   UNL     1      -9.910  11.512  66.542  1.00  0.00    -0.228 A  
HETATM    3  C   UNL     1      -9.397   9.698  65.004  1.00  0.00    -0.319 A  
HETATM    4  C   UNL     1      -8.545  11.575  66.875  1.00  0.00    -0.163 A  
HETATM    5  C   UNL     1      -7.628  10.694  66.304  1.00  0.00    -0.137 A  
HETATM    6  C   UNL     1      -8.055   9.746  65.376  1.00  0.00    -0.127 A  
HETATM    7  C   UNL     1     -10.319  10.576  65.581  1.00  0.00    -0.274 A  
ENDBRANCH   1   2
BRANCH   1   8
HETATM    8  O   UNL     1     -10.550  12.374  68.671  1.00  0.00    -0.226 OA 
BRANCH   8   9
HETATM    9  C   UNL     1     -11.413  12.000  69.661  1.00  0.00    -0.252 A  
HETATM   10  C   UNL     1     -12.894  12.423  71.546  1.00  0.00    -0.377 A  
HETATM   11  C   UNL     1     -12.339  10.160  70.959  1.00  0.00    -0.474 A  
HETATM   12  C   UNL     1     -12.992  11.059  71.796  1.00  0.00    -0.544 A  
HETATM   13  C   UNL     1     -12.111  12.890  70.485  1.00  0.00    -0.364 A  
HETATM   14  C   UNL     1     -11.577  10.618  69.876  1.00  0.00    -0.316 A  
BRANCH  14  15
HETATM   15  O   UNL     1     -11.016   9.605  69.137  1.00  0.00    -0.218 OA 
BRANCH  15  16
HETATM   16  C   UNL     1     -10.142   8.728  69.850  1.00  0.00    -0.191 C  
HETATM   17  C   UNL     1      -8.829   9.456  70.086  1.00  0.00    -0.249 C  
ENDBRANCH  15  16
ENDBRANCH  14  15
ENDBRANCH   8   9
ENDBRANCH   1   8
BRANCH   1  18
HETATM   18  C   UNL     1     -10.992  13.854  66.824  1.00  0.00    -0.299 C  
HETATM   19  N   UNL     1     -10.526  13.678  64.327  1.00  0.00    -0.603 NA 
HETATM   20  O   UNL     1     -12.346  14.269  66.520  1.00  0.00    -0.445 OA 
HETATM   21  H   UNL     1     -10.365  12.674  64.248  1.00  0.00     0.000 HD 
HETATM   22  C   UNL     1     -11.938  14.032  64.110  1.00  0.00    -0.408 C  
HETATM   23  C   UNL     1     -10.078  14.215  65.627  1.00  0.00    -0.328 C  
HETATM   24  C   UNL     1     -12.843  13.701  65.306  1.00  0.00    -0.369 C  
ENDBRANCH   1  18
TORSDOF 6
ENDMDL
MODEL       66
REMARK 921   NORMALIZED FREE ENERGY PREDICTED BY IDOCK:   -5.07 KCAL/MOL
REMARK 922        TOTAL FREE ENERGY PREDICTED BY IDOCK:   -7.98 KCAL/MOL
REMARK 923 INTER-LIGAND FREE ENERGY PREDICTED BY IDOCK:   -6.31 KCAL/MOL
REMARK 924 INTRA-LIGAND FREE ENERGY PREDICTED BY IDOCK:   -1.67 KCAL/MOL
REMARK 927      BINDING AFFINITY PREDICTED BY RF-SCORE:    0.00 PKD
ROOT
HETATM    1  C   UNL     1     -10.348  10.042  68.638  1.00  0.00    -0.190 C  
ENDROOT
BRANCH   1   2
HETATM    2  C   UNL     1      -9.488   9.939  67.386  1.00  0.00    -0.173 A  
HETATM    3  C   UNL     1      -7.562  10.668  66.091  1.00  0.00    -0.138 A  
HETATM    4  C   UNL     1      -9.925   9.206  66.268  1.00  0.00    -0.352 A  
HETATM    5  C   UNL     1      -9.208   9.230  65.073  1.00  0.00    -0.242 A  
HETATM    6  C   UNL     1      -8.031   9.970  64.979  1.00  0.00    -0.143 A  
HETATM    7  C   UNL     1      -8.284  10.651  67.287  1.00  0.00    -0.116 A  
ENDBRANCH   1   2
BRANCH   1   8
HETATM    8  O   UNL     1     -11.564  10.722  68.258  1.00  0.00    -0.401 OA 
BRANCH   8   9
HETATM    9  C   UNL     1     -11.677  12.083  68.310  1.00  0.00    -0.334 A  
HETATM   10  C   UNL     1     -11.990  14.209  69.454  1.00  0.00    -0.382 A  
HETATM   11  C   UNL     1     -11.982  14.144  67.052  1.00  0.00    -0.471 A  
HETATM   12  C   UNL     1     -12.116  14.865  68.234  1.00  0.00    -0.146 A  
HETATM   13  C   UNL     1     -11.770  12.827  69.491  1.00  0.00    -0.383 A  
HETATM   14  C   UNL     1     -11.732  12.766  67.080  1.00  0.00    -0.374 A  
BRANCH  14  15
HETATM   15  O   UNL     1     -11.605  12.209  65.830  1.00  0.00    -0.373 OA 
BRANCH  15  16
HETATM   16  C   UNL     1     -10.618  12.803  64.985  1.00  0.00    -0.308 C  
HETATM   17  C   UNL     1     -10.770  12.213  63.592  1.00  0.00    -0.518 C  
ENDBRANCH  15  16
ENDBRANCH  14  15
ENDBRANCH   8   9
ENDBRANCH   1   8
BRANCH   1  18
HETATM   18  C   UNL     1     -10.780   8.674  69.248  1.00  0.00    -0.136 C  
HETATM   19  N   UNL     1      -8.968   8.260  70.988  1.00  0.00    -0.146 NA 
HETATM   20  O   UNL     1     -11.740   8.844  70.320  1.00  0.00    -0.126 OA 
HETATM   21  H   UNL     1      -8.373   9.071  70.820  1.00  0.00     0.000 HD 
HETATM   22  C   UNL     1      -9.990   8.522  72.013  1.00  0.00    -0.313 C  
HETATM   23  C   UNL     1      -9.620   7.781  69.753  1.00  0.00    -0.167 C  
HETATM   24  C   UNL     1     -11.156   9.385  71.508  1.00  0.00    -0.376 C  
ENDBRANCH   1  18
TORSDOF 6
ENDMDL
MODEL       67
REMARK 921   NORMALIZED FREE ENERGY PREDICTED BY IDOCK:   -5.07 KCAL/MOL
REMARK 922        TOTAL FREE ENERGY PREDICTED BY IDOCK:   -7.97 KCAL/MOL
REMARK 923 INTER-LIGAND FREE ENERGY PREDICTED BY IDOCK:   -6.79 KCAL/MOL
REMARK 924 INTRA-LIGAND FREE ENERGY PREDICTED BY IDOCK:   -1.18 KCAL/MOL
REMARK 927      BINDING AFFINITY PREDICTED BY RF-SCORE:    0.00 PKD
ROOT
HETATM    1  C   UNL     1     -10.412  11.383  66.349  1.00  0.00    -0.254 C  
ENDROOT
BRANCH   1   2
HETATM    2  C   UNL     1     -10.677  12.816  65.908  1.00  0.00    -0.294 A  
HETATM    3  C   UNL     1     -12.022  14.422  64.670  1.00  0.00    -0.475 A  
HETATM    4  C   UNL     1      -9.721  13.825  66.120  1.00  0.00    -0.280 A  
HETATM    5  C   UNL     1      -9.899  15.102  65.590  1.00  0.00    -0.378 A  
HETATM    6  C   UNL     1     -11.045  15.399  64.854  1.00  0.00    -0.435 A  
HETATM    7  C   UNL     1     -11.841  13.140  65.195  1.00  0.00    -0.392 A  
ENDBRANCH   1   2
BRANCH   1   8
HETATM    8  O   UNL     1     -11.556  10.963  67.123  1.00  0.00    -0.431 OA 
BRANCH   8   9
HETATM    9  C   UNL     1     -11.441  10.567  68.426  1.00  0.00    -0.214 A  
HETATM   10  C   UNL     1     -10.945   8.961  70.188  1.00  0.00    -0.245 A  
HETATM   11  C   UNL     1     -11.939  11.075  70.754  1.00  0.00    -0.436 A  
HETATM   12  C   UNL     1     -11.468   9.825  71.144  1.00  0.00    -0.472 A  
HETATM   13  C   UNL     1     -10.930   9.331  68.838  1.00  0.00    -0.050 A  
HETATM   14  C   UNL     1     -11.900  11.465  69.409  1.00  0.00    -0.351 A  
BRANCH  14  15
HETATM   15  O   UNL     1     -12.382  12.733  69.194  1.00  0.00    -0.099 OA 
BRANCH  15  16
HETATM   16  C   UNL     1     -11.500  13.799  69.550  1.00  0.00    -0.267 C  
HETATM   17  C   UNL     1     -12.303  14.848  70.303  1.00  0.00    -0.393 C  
ENDBRANCH  15  16
ENDBRANCH  14  15
ENDBRANCH   8   9
ENDBRANCH   1   8
BRANCH   1  18
HETATM   18  C   UNL     1     -10.267  10.358  65.183  1.00  0.00    -0.256 C  
HETATM   19  N   UNL     1      -7.872  10.749  64.412  1.00  0.00    -0.354 NA 
HETATM   20  O   UNL     1      -9.874   9.050  65.667  1.00  0.00    -0.227 OA 
HETATM   21  H   UNL     1      -7.613  11.522  65.026  1.00  0.00     0.000 HD 
HETATM   22  C   UNL     1      -7.544   9.440  64.998  1.00  0.00    -0.109 C  
HETATM   23  C   UNL     1      -9.303  10.781  64.049  1.00  0.00    -0.252 C  
HETATM   24  C   UNL     1      -8.514   9.004  66.106  1.00  0.00    -0.127 C  
ENDBRANCH   1  18
TORSDOF 6
ENDMDL
MODEL       68
REMARK 921   NORMALIZED FREE ENERGY PREDICTED BY IDOCK:   -5.04 KCAL/MOL
REMARK 922        TOTAL FREE ENERGY PREDICTED BY IDOCK:   -7.94 KCAL/MOL
REMARK 923 INTER-LIGAND FREE ENERGY PREDICTED BY IDOCK:   -7.15 KCAL/MOL
REMARK 924 INTRA-LIGAND FREE ENERGY PREDICTED BY IDOCK:   -0.78 KCAL/MOL
REMARK 927      BINDING AFFINITY PREDICTED BY RF-SCORE:    0.00 PKD
ROOT
HETATM    1  C   UNL     1     -11.880  13.203  69.484  1.00  0.00    -0.322 C  
ENDROOT
BRANCH   1   2
HETATM    2  C   UNL     1     -12.422  13.992  70.668  1.00  0.00    -0.435 A  
HETATM    3  C   UNL     1     -12.030  15.299  72.682  1.00  0.00    -0.535 A  
HETATM    4  C   UNL     1     -13.790  13.961  70.991  1.00  0.00     0.121 A  
HETATM    5  C   UNL     1     -14.264  14.563  72.156  1.00  0.00    -0.619 A  
HETATM    6  C   UNL     1     -13.383  15.224  73.009  1.00  0.00    -0.610 A  
HETATM    7  C   UNL     1     -11.552  14.690  71.519  1.00  0.00    -0.187 A  
ENDBRANCH   1   2
BRANCH   1   8
HETATM    8  O   UNL     1     -12.597  11.950  69.451  1.00  0.00     0.073 OA 
BRANCH   8   9
HETATM    9  C   UNL     1     -12.283  10.916  70.287  1.00  0.00    -0.348 A  
HETATM   10  C   UNL     1     -12.711   9.392  72.137  1.00  0.00    -0.460 A  
HETATM   11  C   UNL     1     -10.545   9.415  71.096  1.00  0.00    -0.403 A  
HETATM   12  C   UNL     1     -11.404   8.923  72.074  1.00  0.00    -0.427 A  
HETATM   13  C   UNL     1     -13.148  10.381  71.248  1.00  0.00    -0.494 A  
HETATM   14  C   UNL     1     -10.983  10.383  70.183  1.00  0.00    -0.300 A  
BRANCH  14  15
HETATM   15  O   UNL     1     -10.023  10.746  69.270  1.00  0.00    -0.214 OA 
BRANCH  15  16
HETATM   16  C   UNL     1      -8.960   9.810  69.084  1.00  0.00    -0.161 C  
HETATM   17  C   UNL     1      -7.779  10.549  68.476  1.00  0.00    -0.104 C  
ENDBRANCH  15  16
ENDBRANCH  14  15
ENDBRANCH   8   9
ENDBRANCH   1   8
BRANCH   1  18
HETATM   18  C   UNL     1     -12.101  13.876  68.096  1.00  0.00    -0.282 C  
HETATM   19  N   UNL     1      -9.797  14.831  67.583  1.00  0.00    -0.217 NA 
HETATM   20  O   UNL     1     -11.928  12.933  67.010  1.00  0.00    -0.381 OA 
HETATM   21  H   UNL     1      -9.307  14.581  68.442  1.00  0.00     0.000 HD 
HETATM   22  C   UNL     1      -9.673  13.791  66.550  1.00  0.00    -0.293 C  
HETATM   23  C   UNL     1     -11.225  15.122  67.819  1.00  0.00    -0.323 C  
HETATM   24  C   UNL     1     -10.561  12.564  66.806  1.00  0.00    -0.233 C  
ENDBRANCH   1  18
TORSDOF 6
ENDMDL
MODEL       69
REMARK 921   NORMALIZED FREE ENERGY PREDICTED BY IDOCK:   -5.00 KCAL/MOL
REMARK 922        TOTAL FREE ENERGY PREDICTED BY IDOCK:   -7.88 KCAL/MOL
REMARK 923 INTER-LIGAND FREE ENERGY PREDICTED BY IDOCK:   -7.38 KCAL/MOL
REMARK 924 INTRA-LIGAND FREE ENERGY PREDICTED BY IDOCK:   -0.50 KCAL/MOL
REMARK 927      BINDING AFFINITY PREDICTED BY RF-SCORE:    0.00 PKD
ROOT
HETATM    1  C   UNL     1     -11.206  13.802  67.265  1.00  0.00    -0.311 C  
ENDROOT
BRANCH   1   2
HETATM    2  C   UNL     1     -11.711  13.022  68.472  1.00  0.00    -0.377 A  
HETATM    3  C   UNL     1     -12.480  12.981  70.779  1.00  0.00    -0.384 A  
HETATM    4  C   UNL     1     -11.660  11.616  68.495  1.00  0.00    -0.379 A  
HETATM    5  C   UNL     1     -11.986  10.909  69.651  1.00  0.00    -0.414 A  
HETATM    6  C   UNL     1     -12.385  11.591  70.799  1.00  0.00    -0.472 A  
HETATM    7  C   UNL     1     -12.148  13.692  69.623  1.00  0.00    -0.378 A  
ENDBRANCH   1   2
BRANCH   1   8
HETATM    8  O   UNL     1      -9.979  13.171  66.840  1.00  0.00    -0.235 OA 
BRANCH   8   9
HETATM    9  C   UNL     1      -8.774  13.480  67.406  1.00  0.00    -0.220 A  
HETATM   10  C   UNL     1      -6.919  13.109  68.939  1.00  0.00    -0.093 A  
HETATM   11  C   UNL     1      -7.038  15.162  67.694  1.00  0.00    -0.210 A  
HETATM   12  C   UNL     1      -6.400  14.364  68.638  1.00  0.00    -0.087 A  
HETATM   13  C   UNL     1      -8.098  12.670  68.325  1.00  0.00    -0.161 A  
HETATM   14  C   UNL     1      -8.202  14.717  67.053  1.00  0.00    -0.179 A  
BRANCH  14  15
HETATM   15  O   UNL     1      -8.695  15.612  66.135  1.00  0.00    -0.317 OA 
BRANCH  15  16
HETATM   16  C   UNL     1      -9.270  16.802  66.677  1.00  0.00    -0.256 C  
HETATM   17  C   UNL     1      -8.440  17.986  66.207  1.00  0.00    -0.214 C  
ENDBRANCH  15  16
ENDBRANCH  14  15
ENDBRANCH   8   9
ENDBRANCH   1   8
BRANCH   1  18
HETATM   18  C   UNL     1     -12.161  13.787  66.033  1.00  0.00    -0.436 C  
HETATM   19  N   UNL     1     -10.527  13.873  64.081  1.00  0.00    -0.568 NA 
HETATM   20  O   UNL     1     -12.516  12.437  65.647  1.00  0.00    -0.640 OA 
HETATM   21  H   UNL     1      -9.647  13.949  64.591  1.00  0.00     0.000 HD 
HETATM   22  C   UNL     1     -10.892  12.475  63.806  1.00  0.00    -0.446 C  
HETATM   23  C   UNL     1     -11.639  14.542  64.786  1.00  0.00    -0.413 C  
HETATM   24  C   UNL     1     -11.435  11.730  65.034  1.00  0.00    -0.188 C  
ENDBRANCH   1  18
TORSDOF 6
ENDMDL
MODEL       70
REMARK 921   NORMALIZED FREE ENERGY PREDICTED BY IDOCK:   -4.99 KCAL/MOL
REMARK 922        TOTAL FREE ENERGY PREDICTED BY IDOCK:   -7.87 KCAL/MOL
REMARK 923 INTER-LIGAND FREE ENERGY PREDICTED BY IDOCK:   -7.15 KCAL/MOL
REMARK 924 INTRA-LIGAND FREE ENERGY PREDICTED BY IDOCK:   -0.71 KCAL/MOL
REMARK 927      BINDING AFFINITY PREDICTED BY RF-SCORE:    0.00 PKD
ROOT
HETATM    1  C   UNL     1     -10.838  11.001  67.731  1.00  0.00    -0.249 C  
ENDROOT
BRANCH   1   2
HETATM    2  C   UNL     1     -11.610  11.431  68.970  1.00  0.00    -0.383 A  
HETATM    3  C   UNL     1     -12.303  13.176  70.517  1.00  0.00    -0.380 A  
HETATM    4  C   UNL     1     -12.153  10.477  69.850  1.00  0.00    -0.318 A  
HETATM    5  C   UNL     1     -12.733  10.866  71.056  1.00  0.00    -0.505 A  
HETATM    6  C   UNL     1     -12.799  12.216  71.397  1.00  0.00    -0.378 A  
HETATM    7  C   UNL     1     -11.715  12.788  69.310  1.00  0.00    -0.376 A  
ENDBRANCH   1   2
BRANCH   1   8
HETATM    8  O   UNL     1     -10.495  12.204  67.010  1.00  0.00    -0.217 OA 
BRANCH   8   9
HETATM    9  C   UNL     1     -11.087  12.528  65.822  1.00  0.00    -0.308 A  
HETATM   10  C   UNL     1     -11.733  12.104  63.513  1.00  0.00    -0.579 A  
HETATM   11  C   UNL     1     -12.075  14.286  64.459  1.00  0.00    -0.499 A  
HETATM   12  C   UNL     1     -12.148  13.423  63.371  1.00  0.00    -0.437 A  
HETATM   13  C   UNL     1     -11.207  11.659  64.731  1.00  0.00    -0.300 A  
HETATM   14  C   UNL     1     -11.578  13.841  65.691  1.00  0.00    -0.330 A  
BRANCH  14  15
HETATM   15  O   UNL     1     -11.593  14.808  66.667  1.00  0.00    -0.360 OA 
BRANCH  15  16
HETATM   16  C   UNL     1     -10.536  15.768  66.603  1.00  0.00    -0.307 C  
HETATM   17  C   UNL     1      -9.664  15.596  67.836  1.00  0.00    -0.211 C  
ENDBRANCH  15  16
ENDBRANCH  14  15
ENDBRANCH   8   9
ENDBRANCH   1   8
BRANCH   1  18
HETATM   18  C   UNL     1      -9.497  10.262  68.021  1.00  0.00    -0.146 C  
HETATM   19  N   UNL     1      -8.034  11.007  66.074  1.00  0.00    -0.282 NA 
HETATM   20  O   UNL     1      -8.650  11.021  68.919  1.00  0.00    -0.161 OA 
HETATM   21  H   UNL     1      -8.708  11.568  65.552  1.00  0.00     0.000 HD 
HETATM   22  C   UNL     1      -7.274  11.811  67.044  1.00  0.00    -0.134 C  
HETATM   23  C   UNL     1      -8.674   9.872  66.769  1.00  0.00    -0.128 C  
HETATM   24  C   UNL     1      -8.079  12.177  68.300  1.00  0.00    -0.166 C  
ENDBRANCH   1  18
TORSDOF 6
ENDMDL
MODEL       71
REMARK 921   NORMALIZED FREE ENERGY PREDICTED BY IDOCK:   -4.99 KCAL/MOL
REMARK 922        TOTAL FREE ENERGY PREDICTED BY IDOCK:   -7.87 KCAL/MOL
REMARK 923 INTER-LIGAND FREE ENERGY PREDICTED BY IDOCK:   -6.78 KCAL/MOL
REMARK 924 INTRA-LIGAND FREE ENERGY PREDICTED BY IDOCK:   -1.09 KCAL/MOL
REMARK 927      BINDING AFFINITY PREDICTED BY RF-SCORE:    0.00 PKD
ROOT
HETATM    1  C   UNL     1     -10.682  13.302  66.318  1.00  0.00    -0.286 C  
ENDROOT
BRANCH   1   2
HETATM    2  C   UNL     1      -9.290  12.959  66.831  1.00  0.00    -0.240 A  
HETATM    3  C   UNL     1      -7.715  11.326  67.709  1.00  0.00    -0.113 A  
HETATM    4  C   UNL     1      -8.361  13.971  67.128  1.00  0.00    -0.174 A  
HETATM    5  C   UNL     1      -7.142  13.668  67.732  1.00  0.00    -0.167 A  
HETATM    6  C   UNL     1      -6.821  12.345  68.034  1.00  0.00    -0.089 A  
HETATM    7  C   UNL     1      -8.939  11.629  67.109  1.00  0.00    -0.173 A  
ENDBRANCH   1   2
BRANCH   1   8
HETATM    8  O   UNL     1     -11.107  14.491  67.018  1.00  0.00    -0.304 OA 
BRANCH   8   9
HETATM    9  C   UNL     1     -11.507  14.456  68.324  1.00  0.00    -0.305 A  
HETATM   10  C   UNL     1     -12.398  13.365  70.310  1.00  0.00    -0.354 A  
HETATM   11  C   UNL     1     -12.076  15.747  70.308  1.00  0.00    -0.371 A  
HETATM   12  C   UNL     1     -12.505  14.592  70.955  1.00  0.00    -0.399 A  
HETATM   13  C   UNL     1     -11.901  13.298  69.004  1.00  0.00    -0.365 A  
HETATM   14  C   UNL     1     -11.549  15.684  69.012  1.00  0.00    -0.386 A  
BRANCH  14  15
HETATM   15  O   UNL     1     -11.153  16.906  68.524  1.00  0.00    -0.327 OA 
BRANCH  15  16
HETATM   16  C   UNL     1      -9.776  17.233  68.716  1.00  0.00    -0.280 C  
HETATM   17  C   UNL     1      -9.222  17.746  67.396  1.00  0.00    -0.248 C  
ENDBRANCH  15  16
ENDBRANCH  14  15
ENDBRANCH   8   9
ENDBRANCH   1   8
BRANCH   1  18
HETATM   18  C   UNL     1     -10.753  13.635  64.797  1.00  0.00    -0.410 C  
HETATM   19  N   UNL     1     -11.234  11.358  63.765  1.00  0.00    -0.527 NA 
HETATM   20  O   UNL     1     -12.079  14.068  64.405  1.00  0.00    -0.432 OA 
HETATM   21  H   UNL     1     -11.210  10.775  64.602  1.00  0.00     0.000 HD 
HETATM   22  C   UNL     1     -12.587  11.854  63.472  1.00  0.00    -0.459 C  
HETATM   23  C   UNL     1     -10.299  12.497  63.850  1.00  0.00    -0.409 C  
HETATM   24  C   UNL     1     -13.031  13.001  64.391  1.00  0.00     0.040 C  
ENDBRANCH   1  18
TORSDOF 6
ENDMDL
MODEL       72
REMARK 921   NORMALIZED FREE ENERGY PREDICTED BY IDOCK:   -4.98 KCAL/MOL
REMARK 922        TOTAL FREE ENERGY PREDICTED BY IDOCK:   -7.85 KCAL/MOL
REMARK 923 INTER-LIGAND FREE ENERGY PREDICTED BY IDOCK:   -7.38 KCAL/MOL
REMARK 924 INTRA-LIGAND FREE ENERGY PREDICTED BY IDOCK:   -0.48 KCAL/MOL
REMARK 927      BINDING AFFINITY PREDICTED BY RF-SCORE:    0.00 PKD
ROOT
HETATM    1  C   UNL     1     -10.768  14.350  67.484  1.00  0.00    -0.271 C  
ENDROOT
BRANCH   1   2
HETATM    2  C   UNL     1     -11.577  14.331  68.773  1.00  0.00    -0.357 A  
HETATM    3  C   UNL     1     -12.649  15.525  70.603  1.00  0.00    -0.493 A  
HETATM    4  C   UNL     1     -11.809  13.128  69.462  1.00  0.00    -0.383 A  
HETATM    5  C   UNL     1     -12.424  13.127  70.714  1.00  0.00    -0.389 A  
HETATM    6  C   UNL     1     -12.835  14.327  71.291  1.00  0.00    -0.422 A  
HETATM    7  C   UNL     1     -12.027  15.528  69.351  1.00  0.00    -0.358 A  
ENDBRANCH   1   2
BRANCH   1   8
HETATM    8  O   UNL     1     -10.435  12.979  67.176  1.00  0.00    -0.241 OA 
BRANCH   8   9
HETATM    9  C   UNL     1      -9.158  12.505  67.279  1.00  0.00    -0.189 A  
HETATM   10  C   UNL     1      -6.746  12.750  67.499  1.00  0.00    -0.154 A  
HETATM   11  C   UNL     1      -7.683  10.581  67.062  1.00  0.00    -0.110 A  
HETATM   12  C   UNL     1      -6.570  11.393  67.253  1.00  0.00    -0.104 A  
HETATM   13  C   UNL     1      -8.032  13.302  67.514  1.00  0.00    -0.186 A  
HETATM   14  C   UNL     1      -8.975  11.120  67.104  1.00  0.00    -0.145 A  
BRANCH  14  15
HETATM   15  O   UNL     1      -9.963  10.184  66.918  1.00  0.00    -0.189 OA 
BRANCH  15  16
HETATM   16  C   UNL     1      -9.543   8.947  66.339  1.00  0.00    -0.238 C  
HETATM   17  C   UNL     1     -10.440   7.843  66.876  1.00  0.00    -0.388 C  
ENDBRANCH  15  16
ENDBRANCH  14  15
ENDBRANCH   8   9
ENDBRANCH   1   8
BRANCH   1  18
HETATM   18  C   UNL     1     -11.529  14.910  66.244  1.00  0.00    -0.269 C  
HETATM   19  N   UNL     1     -10.263  13.847  64.307  1.00  0.00    -0.703 NA 
HETATM   20  O   UNL     1     -12.680  14.096  65.910  1.00  0.00    -0.487 OA 
HETATM   21  H   UNL     1      -9.533  13.355  64.822  1.00  0.00     0.000 HD 
HETATM   22  C   UNL     1     -11.450  13.006  64.085  1.00  0.00    -0.402 C  
HETATM   23  C   UNL     1     -10.667  15.101  64.972  1.00  0.00    -0.430 C  
HETATM   24  C   UNL     1     -12.322  12.835  65.337  1.00  0.00    -0.470 C  
ENDBRANCH   1  18
TORSDOF 6
ENDMDL
MODEL       73
REMARK 921   NORMALIZED FREE ENERGY PREDICTED BY IDOCK:   -4.97 KCAL/MOL
REMARK 922        TOTAL FREE ENERGY PREDICTED BY IDOCK:   -7.84 KCAL/MOL
REMARK 923 INTER-LIGAND FREE ENERGY PREDICTED BY IDOCK:   -7.70 KCAL/MOL
REMARK 924 INTRA-LIGAND FREE ENERGY PREDICTED BY IDOCK:   -0.13 KCAL/MOL
REMARK 927      BINDING AFFINITY PREDICTED BY RF-SCORE:    0.00 PKD
ROOT
HETATM    1  C   UNL     1     -11.718  10.272  70.398  1.00  0.00    -0.319 C  
ENDROOT
BRANCH   1   2
HETATM    2  C   UNL     1     -12.306  11.630  70.755  1.00  0.00    -0.454 A  
HETATM    3  C   UNL     1     -12.315  14.050  70.504  1.00  0.00    -0.437 A  
HETATM    4  C   UNL     1     -13.212  11.767  71.821  1.00  0.00    -0.434 A  
HETATM    5  C   UNL     1     -13.638  13.026  72.240  1.00  0.00    -0.643 A  
HETATM    6  C   UNL     1     -13.182  14.171  71.589  1.00  0.00    -0.426 A  
HETATM    7  C   UNL     1     -11.882  12.789  70.087  1.00  0.00    -0.326 A  
ENDBRANCH   1   2
BRANCH   1   8
HETATM    8  O   UNL     1     -10.469  10.520  69.716  1.00  0.00    -0.244 OA 
BRANCH   8   9
HETATM    9  C   UNL     1     -10.145   9.886  68.550  1.00  0.00    -0.168 A  
HETATM   10  C   UNL     1      -8.862   8.323  67.194  1.00  0.00    -0.145 A  
HETATM   11  C   UNL     1     -10.395   9.836  66.129  1.00  0.00    -0.215 A  
HETATM   12  C   UNL     1      -9.437   8.832  66.035  1.00  0.00    -0.302 A  
HETATM   13  C   UNL     1      -9.215   8.846  68.443  1.00  0.00    -0.140 A  
HETATM   14  C   UNL     1     -10.776  10.344  67.378  1.00  0.00    -0.283 A  
BRANCH  14  15
HETATM   15  O   UNL     1     -11.747  11.314  67.299  1.00  0.00    -0.566 OA 
BRANCH  15  16
HETATM   16  C   UNL     1     -11.594  12.258  66.238  1.00  0.00    -0.385 C  
HETATM   17  C   UNL     1     -10.685  13.375  66.724  1.00  0.00    -0.277 C  
ENDBRANCH  15  16
ENDBRANCH  14  15
ENDBRANCH   8   9
ENDBRANCH   1   8
BRANCH   1  18
HETATM   18  C   UNL     1     -11.381   9.365  71.620  1.00  0.00    -0.382 C  
HETATM   19  N   UNL     1     -13.584   8.152  72.018  1.00  0.00    -0.470 NA 
HETATM   20  O   UNL     1     -10.789   8.109  71.208  1.00  0.00    -0.229 OA 
HETATM   21  H   UNL     1     -14.163   8.599  71.308  1.00  0.00     0.000 HD 
HETATM   22  C   UNL     1     -12.926   6.937  71.515  1.00  0.00    -0.306 C  
HETATM   23  C   UNL     1     -12.568   9.070  72.570  1.00  0.00    -0.272 C  
HETATM   24  C   UNL     1     -11.731   7.225  70.593  1.00  0.00    -0.275 C  
ENDBRANCH   1  18
TORSDOF 6
ENDMDL
MODEL       74
REMARK 921   NORMALIZED FREE ENERGY PREDICTED BY IDOCK:   -4.96 KCAL/MOL
REMARK 922        TOTAL FREE ENERGY PREDICTED BY IDOCK:   -7.83 KCAL/MOL
REMARK 923 INTER-LIGAND FREE ENERGY PREDICTED BY IDOCK:   -7.43 KCAL/MOL
REMARK 924 INTRA-LIGAND FREE ENERGY PREDICTED BY IDOCK:   -0.40 KCAL/MOL
REMARK 927      BINDING AFFINITY PREDICTED BY RF-SCORE:    0.00 PKD
ROOT
HETATM    1  C   UNL     1     -11.463  14.162  67.213  1.00  0.00    -0.350 C  
ENDROOT
BRANCH   1   2
HETATM    2  C   UNL     1     -11.724  13.547  68.581  1.00  0.00    -0.389 A  
HETATM    3  C   UNL     1     -11.916  11.583  70.003  1.00  0.00    -0.435 A  
HETATM    4  C   UNL     1     -12.238  14.324  69.635  1.00  0.00    -0.371 A  
HETATM    5  C   UNL     1     -12.613  13.733  70.841  1.00  0.00    -0.428 A  
HETATM    6  C   UNL     1     -12.462  12.360  71.023  1.00  0.00    -0.353 A  
HETATM    7  C   UNL     1     -11.546  12.172  68.792  1.00  0.00    -0.380 A  
ENDBRANCH   1   2
BRANCH   1   8
HETATM    8  O   UNL     1     -10.127  13.774  66.825  1.00  0.00    -0.255 OA 
BRANCH   8   9
HETATM    9  C   UNL     1      -9.052  14.596  67.014  1.00  0.00    -0.238 A  
HETATM   10  C   UNL     1      -7.690  16.558  66.542  1.00  0.00    -0.323 A  
HETATM   11  C   UNL     1      -6.860  14.869  68.036  1.00  0.00    -0.147 A  
HETATM   12  C   UNL     1      -6.676  16.070  67.358  1.00  0.00    -0.224 A  
HETATM   13  C   UNL     1      -8.871  15.826  66.373  1.00  0.00    -0.371 A  
HETATM   14  C   UNL     1      -8.051  14.145  67.896  1.00  0.00    -0.154 A  
BRANCH  14  15
HETATM   15  O   UNL     1      -8.083  12.996  68.647  1.00  0.00    -0.112 OA 
BRANCH  15  16
HETATM   16  C   UNL     1      -7.283  11.916  68.161  1.00  0.00    -0.085 C  
HETATM   17  C   UNL     1      -7.580  10.688  69.007  1.00  0.00    -0.122 C  
ENDBRANCH  15  16
ENDBRANCH  14  15
ENDBRANCH   8   9
ENDBRANCH   1   8
BRANCH   1  18
HETATM   18  C   UNL     1     -12.413  13.664  66.082  1.00  0.00    -0.395 C  
HETATM   19  N   UNL     1     -11.024  14.075  63.987  1.00  0.00    -0.494 NA 
HETATM   20  O   UNL     1     -12.283  12.238  65.862  1.00  0.00    -0.634 OA 
HETATM   21  H   UNL     1     -10.203  14.515  64.403  1.00  0.00     0.000 HD 
HETATM   22  C   UNL     1     -10.880  12.615  63.882  1.00  0.00    -0.429 C  
HETATM   23  C   UNL     1     -12.263  14.395  64.725  1.00  0.00    -0.446 C  
HETATM   24  C   UNL     1     -11.055  11.884  65.221  1.00  0.00    -0.299 C  
ENDBRANCH   1  18
TORSDOF 6
ENDMDL
MODEL       75
REMARK 921   NORMALIZED FREE ENERGY PREDICTED BY IDOCK:   -4.95 KCAL/MOL
REMARK 922        TOTAL FREE ENERGY PREDICTED BY IDOCK:   -7.81 KCAL/MOL
REMARK 923 INTER-LIGAND FREE ENERGY PREDICTED BY IDOCK:   -6.73 KCAL/MOL
REMARK 924 INTRA-LIGAND FREE ENERGY PREDICTED BY IDOCK:   -1.08 KCAL/MOL
REMARK 927      BINDING AFFINITY PREDICTED BY RF-SCORE:    0.00 PKD
ROOT
HETATM    1  C   UNL     1      -9.918  11.254  67.335  1.00  0.00    -0.182 C  
ENDROOT
BRANCH   1   2
HETATM    2  C   UNL     1     -10.632  11.710  66.070  1.00  0.00    -0.303 A  
HETATM    3  C   UNL     1     -12.506  12.834  65.000  1.00  0.00    -0.572 A  
HETATM    4  C   UNL     1     -10.228  11.244  64.806  1.00  0.00    -0.347 A  
HETATM    5  C   UNL     1     -10.969  11.545  63.663  1.00  0.00    -0.482 A  
HETATM    6  C   UNL     1     -12.115  12.331  63.760  1.00  0.00    -0.624 A  
HETATM    7  C   UNL     1     -11.769  12.528  66.147  1.00  0.00    -0.466 A  
ENDBRANCH   1   2
BRANCH   1   8
HETATM    8  O   UNL     1     -10.644  10.113  67.840  1.00  0.00    -0.212 OA 
BRANCH   8   9
HETATM    9  C   UNL     1     -11.261  10.130  69.059  1.00  0.00    -0.173 A  
HETATM   10  C   UNL     1     -12.581  11.160  70.826  1.00  0.00    -0.445 A  
HETATM   11  C   UNL     1     -11.518   9.041  71.220  1.00  0.00    -0.390 A  
HETATM   12  C   UNL     1     -12.287  10.104  71.682  1.00  0.00    -0.471 A  
HETATM   13  C   UNL     1     -12.073  11.172  69.523  1.00  0.00    -0.396 A  
HETATM   14  C   UNL     1     -11.030   9.031  69.907  1.00  0.00    -0.193 A  
BRANCH  14  15
HETATM   15  O   UNL     1     -10.308   7.903  69.603  1.00  0.00    -0.207 OA 
BRANCH  15  16
HETATM   16  C   UNL     1     -11.074   6.717  69.385  1.00  0.00    -0.310 C  
HETATM   17  C   UNL     1     -10.988   6.360  67.910  1.00  0.00    -0.416 C  
ENDBRANCH  15  16
ENDBRANCH  14  15
ENDBRANCH   8   9
ENDBRANCH   1   8
BRANCH   1  18
HETATM   18  C   UNL     1      -8.448  10.784  67.121  1.00  0.00    -0.126 C  
HETATM   19  N   UNL     1      -7.111  12.778  67.970  1.00  0.00    -0.097 NA 
HETATM   20  O   UNL     1      -7.964  10.009  68.246  1.00  0.00    -0.095 OA 
HETATM   21  H   UNL     1      -7.873  13.419  68.194  1.00  0.00     0.000 HD 
HETATM   22  C   UNL     1      -6.730  11.944  69.120  1.00  0.00    -0.105 C  
HETATM   23  C   UNL     1      -7.431  11.912  66.818  1.00  0.00    -0.017 C  
HETATM   24  C   UNL     1      -7.721  10.808  69.408  1.00  0.00    -0.102 C  
ENDBRANCH   1  18
TORSDOF 6
ENDMDL
MODEL       76
REMARK 921   NORMALIZED FREE ENERGY PREDICTED BY IDOCK:   -4.90 KCAL/MOL
REMARK 922        TOTAL FREE ENERGY PREDICTED BY IDOCK:   -7.74 KCAL/MOL
REMARK 923 INTER-LIGAND FREE ENERGY PREDICTED BY IDOCK:   -7.82 KCAL/MOL
REMARK 924 INTRA-LIGAND FREE ENERGY PREDICTED BY IDOCK:    0.08 KCAL/MOL
REMARK 927      BINDING AFFINITY PREDICTED BY RF-SCORE:    0.00 PKD
ROOT
HETATM    1  C   UNL     1     -10.333  13.424  67.010  1.00  0.00    -0.247 C  
ENDROOT
BRANCH   1   2
HETATM    2  C   UNL     1      -9.814  14.849  67.135  1.00  0.00    -0.231 A  
HETATM    3  C   UNL     1     -10.232  17.214  67.529  1.00  0.00    -0.323 A  
HETATM    4  C   UNL     1      -8.501  15.176  66.751  1.00  0.00    -0.272 A  
HETATM    5  C   UNL     1      -8.072  16.502  66.729  1.00  0.00    -0.286 A  
HETATM    6  C   UNL     1      -8.941  17.524  67.107  1.00  0.00    -0.245 A  
HETATM    7  C   UNL     1     -10.666  15.885  67.546  1.00  0.00    -0.318 A  
ENDBRANCH   1   2
BRANCH   1   8
HETATM    8  O   UNL     1     -11.596  13.373  67.707  1.00  0.00    -0.299 OA 
BRANCH   8   9
HETATM    9  C   UNL     1     -11.804  12.534  68.765  1.00  0.00    -0.303 A  
HETATM   10  C   UNL     1     -12.049  10.346  69.806  1.00  0.00    -0.208 A  
HETATM   11  C   UNL     1     -12.519  12.327  71.082  1.00  0.00    -0.328 A  
HETATM   12  C   UNL     1     -12.470  10.940  70.991  1.00  0.00    -0.514 A  
HETATM   13  C   UNL     1     -11.717  11.139  68.701  1.00  0.00    -0.389 A  
HETATM   14  C   UNL     1     -12.159  13.128  69.991  1.00  0.00    -0.305 A  
BRANCH  14  15
HETATM   15  O   UNL     1     -12.242  14.474  70.252  1.00  0.00    -0.292 OA 
BRANCH  15  16
HETATM   16  C   UNL     1     -13.320  14.876  71.098  1.00  0.00    -0.418 C  
HETATM   17  C   UNL     1     -12.790  15.904  72.086  1.00  0.00    -0.491 C  
ENDBRANCH  15  16
ENDBRANCH  14  15
ENDBRANCH   8   9
ENDBRANCH   1   8
BRANCH   1  18
HETATM   18  C   UNL     1     -10.615  12.957  65.549  1.00  0.00    -0.279 C  
HETATM   19  N   UNL     1     -13.035  13.673  65.210  1.00  0.00    -0.737 NA 
HETATM   20  O   UNL     1     -10.208  13.954  64.580  1.00  0.00    -0.417 OA 
HETATM   21  H   UNL     1     -13.241  14.045  66.138  1.00  0.00     0.000 HD 
HETATM   22  C   UNL     1     -12.528  14.709  64.297  1.00  0.00    -0.239 C  
HETATM   23  C   UNL     1     -12.080  12.549  65.259  1.00  0.00    -0.444 C  
HETATM   24  C   UNL     1     -11.066  15.098  64.564  1.00  0.00    -0.237 C  
ENDBRANCH   1  18
TORSDOF 6
ENDMDL
MODEL       77
REMARK 921   NORMALIZED FREE ENERGY PREDICTED BY IDOCK:   -4.88 KCAL/MOL
REMARK 922        TOTAL FREE ENERGY PREDICTED BY IDOCK:   -7.72 KCAL/MOL
REMARK 923 INTER-LIGAND FREE ENERGY PREDICTED BY IDOCK:   -6.88 KCAL/MOL
REMARK 924 INTRA-LIGAND FREE ENERGY PREDICTED BY IDOCK:   -0.85 KCAL/MOL
REMARK 927      BINDING AFFINITY PREDICTED BY RF-SCORE:    0.00 PKD
ROOT
HETATM    1  C   UNL     1     -10.478  11.337  67.393  1.00  0.00    -0.212 C  
ENDROOT
BRANCH   1   2
HETATM    2  C   UNL     1     -10.908  11.650  65.967  1.00  0.00    -0.339 A  
HETATM    3  C   UNL     1     -10.452  11.620  63.577  1.00  0.00    -0.498 A  
HETATM    4  C   UNL     1     -12.030  12.458  65.712  1.00  0.00    -0.437 A  
HETATM    5  C   UNL     1     -12.339  12.863  64.415  1.00  0.00    -0.468 A  
HETATM    6  C   UNL     1     -11.544  12.454  63.346  1.00  0.00    -0.541 A  
HETATM    7  C   UNL     1     -10.137  11.218  64.877  1.00  0.00    -0.333 A  
ENDBRANCH   1   2
BRANCH   1   8
HETATM    8  O   UNL     1     -11.098  12.324  68.246  1.00  0.00    -0.210 OA 
BRANCH   8   9
HETATM    9  C   UNL     1     -10.464  13.485  68.586  1.00  0.00    -0.232 A  
HETATM   10  C   UNL     1      -8.532  14.959  68.736  1.00  0.00    -0.172 A  
HETATM   11  C   UNL     1     -10.575  15.563  69.848  1.00  0.00    -0.322 A  
HETATM   12  C   UNL     1      -9.244  15.835  69.549  1.00  0.00    -0.215 A  
HETATM   13  C   UNL     1      -9.139  13.792  68.257  1.00  0.00    -0.195 A  
HETATM   14  C   UNL     1     -11.199  14.414  69.348  1.00  0.00    -0.281 A  
BRANCH  14  15
HETATM   15  O   UNL     1     -12.518  14.304  69.717  1.00  0.00    -0.323 OA 
BRANCH  15  16
HETATM   16  C   UNL     1     -12.876  14.959  70.935  1.00  0.00    -0.373 C  
HETATM   17  C   UNL     1     -13.473  13.922  71.873  1.00  0.00    -0.511 C  
ENDBRANCH  15  16
ENDBRANCH  14  15
ENDBRANCH   8   9
ENDBRANCH   1   8
BRANCH   1  18
HETATM   18  C   UNL     1     -10.937   9.944  67.922  1.00  0.00    -0.223 C  
HETATM   19  N   UNL     1      -8.864   8.512  67.548  1.00  0.00    -0.135 NA 
HETATM   20  O   UNL     1     -10.736   9.822  69.352  1.00  0.00    -0.212 OA 
HETATM   21  H   UNL     1      -8.258   9.195  67.093  1.00  0.00     0.000 HD 
HETATM   22  C   UNL     1      -8.693   8.503  69.009  1.00  0.00    -0.134 C  
HETATM   23  C   UNL     1     -10.288   8.725  67.221  1.00  0.00    -0.290 C  
HETATM   24  C   UNL     1      -9.357   9.696  69.712  1.00  0.00    -0.218 C  
ENDBRANCH   1  18
TORSDOF 6
ENDMDL
MODEL       78
REMARK 921   NORMALIZED FREE ENERGY PREDICTED BY IDOCK:   -4.85 KCAL/MOL
REMARK 922        TOTAL FREE ENERGY PREDICTED BY IDOCK:   -7.67 KCAL/MOL
REMARK 923 INTER-LIGAND FREE ENERGY PREDICTED BY IDOCK:   -6.38 KCAL/MOL
REMARK 924 INTRA-LIGAND FREE ENERGY PREDICTED BY IDOCK:   -1.29 KCAL/MOL
REMARK 927      BINDING AFFINITY PREDICTED BY RF-SCORE:    0.00 PKD
ROOT
HETATM    1  C   UNL     1      -8.878  13.850  68.026  1.00  0.00    -0.184 C  
ENDROOT
BRANCH   1   2
HETATM    2  C   UNL     1     -10.094  14.416  68.746  1.00  0.00    -0.234 A  
HETATM    3  C   UNL     1     -11.226  16.289  69.810  1.00  0.00    -0.314 A  
HETATM    4  C   UNL     1     -11.109  13.569  69.226  1.00  0.00    -0.230 A  
HETATM    5  C   UNL     1     -12.147  14.070  70.010  1.00  0.00    -0.412 A  
HETATM    6  C   UNL     1     -12.201  15.429  70.312  1.00  0.00    -0.414 A  
HETATM    7  C   UNL     1     -10.181  15.787  69.030  1.00  0.00    -0.224 A  
ENDBRANCH   1   2
BRANCH   1   8
HETATM    8  O   UNL     1      -9.162  13.909  66.611  1.00  0.00    -0.264 OA 
BRANCH   8   9
HETATM    9  C   UNL     1      -9.549  12.805  65.905  1.00  0.00    -0.136 A  
HETATM   10  C   UNL     1      -9.506  10.433  65.359  1.00  0.00    -0.285 A  
HETATM   11  C   UNL     1     -10.708  11.956  63.941  1.00  0.00    -0.450 A  
HETATM   12  C   UNL     1     -10.268  10.666  64.220  1.00  0.00    -0.391 A  
HETATM   13  C   UNL     1      -9.150  11.496  66.197  1.00  0.00    -0.217 A  
HETATM   14  C   UNL     1     -10.382  13.020  64.790  1.00  0.00    -0.336 A  
BRANCH  14  15
HETATM   15  O   UNL     1     -10.910  14.222  64.386  1.00  0.00    -0.329 OA 
BRANCH  15  16
HETATM   16  C   UNL     1     -12.331  14.338  64.482  1.00  0.00    -0.410 C  
HETATM   17  C   UNL     1     -12.719  14.213  65.946  1.00  0.00    -0.387 C  
ENDBRANCH  15  16
ENDBRANCH  14  15
ENDBRANCH   8   9
ENDBRANCH   1   8
BRANCH   1  18
HETATM   18  C   UNL     1      -7.558  14.649  68.246  1.00  0.00    -0.118 C  
HETATM   19  N   UNL     1      -6.430  13.329  70.109  1.00  0.00    -0.370 NA 
HETATM   20  O   UNL     1      -6.514  14.218  67.339  1.00  0.00    -0.307 OA 
HETATM   21  H   UNL     1      -7.148  12.628  70.289  1.00  0.00     0.000 HD 
HETATM   22  C   UNL     1      -5.454  12.879  69.103  1.00  0.00    -0.071 C  
HETATM   23  C   UNL     1      -7.005  14.623  69.692  1.00  0.00    -0.149 C  
HETATM   24  C   UNL     1      -5.990  12.928  67.665  1.00  0.00    -0.148 C  
ENDBRANCH   1  18
TORSDOF 6
ENDMDL
MODEL       79
REMARK 921   NORMALIZED FREE ENERGY PREDICTED BY IDOCK:   -4.82 KCAL/MOL
REMARK 922        TOTAL FREE ENERGY PREDICTED BY IDOCK:   -7.63 KCAL/MOL
REMARK 923 INTER-LIGAND FREE ENERGY PREDICTED BY IDOCK:   -6.58 KCAL/MOL
REMARK 924 INTRA-LIGAND FREE ENERGY PREDICTED BY IDOCK:   -1.06 KCAL/MOL
REMARK 927      BINDING AFFINITY PREDICTED BY RF-SCORE:    0.00 PKD
ROOT
HETATM    1  C   UNL     1     -11.145  13.663  66.750  1.00  0.00    -0.307 C  
ENDROOT
BRANCH   1   2
HETATM    2  C   UNL     1     -10.899  15.014  67.406  1.00  0.00    -0.305 A  
HETATM    3  C   UNL     1      -9.943  17.250  67.322  1.00  0.00    -0.283 A  
HETATM    4  C   UNL     1     -11.179  15.217  68.769  1.00  0.00    -0.293 A  
HETATM    5  C   UNL     1     -10.820  16.406  69.403  1.00  0.00    -0.327 A  
HETATM    6  C   UNL     1     -10.191  17.420  68.683  1.00  0.00    -0.361 A  
HETATM    7  C   UNL     1     -10.297  16.057  66.687  1.00  0.00    -0.299 A  
ENDBRANCH   1   2
BRANCH   1   8
HETATM    8  O   UNL     1     -11.117  12.674  67.802  1.00  0.00    -0.226 OA 
BRANCH   8   9
HETATM    9  C   UNL     1     -10.474  11.478  67.652  1.00  0.00    -0.189 A  
HETATM   10  C   UNL     1     -10.348   9.046  67.663  1.00  0.00    -0.317 A  
HETATM   11  C   UNL     1      -8.337  10.338  67.416  1.00  0.00    -0.118 A  
HETATM   12  C   UNL     1      -8.965   9.102  67.530  1.00  0.00    -0.131 A  
HETATM   13  C   UNL     1     -11.097  10.227  67.721  1.00  0.00    -0.335 A  
HETATM   14  C   UNL     1      -9.082  11.523  67.443  1.00  0.00    -0.166 A  
BRANCH  14  15
HETATM   15  O   UNL     1      -8.316  12.654  67.297  1.00  0.00    -0.176 OA 
BRANCH  15  16
HETATM   16  C   UNL     1      -7.679  13.128  68.485  1.00  0.00    -0.117 C  
HETATM   17  C   UNL     1      -7.202  14.549  68.233  1.00  0.00    -0.119 C  
ENDBRANCH  15  16
ENDBRANCH  14  15
ENDBRANCH   8   9
ENDBRANCH   1   8
BRANCH   1  18
HETATM   18  C   UNL     1     -12.529  13.521  66.047  1.00  0.00    -0.399 C  
HETATM   19  N   UNL     1     -12.090  14.572  63.769  1.00  0.00    -0.956 NA 
HETATM   20  O   UNL     1     -12.673  12.233  65.401  1.00  0.00    -0.500 OA 
HETATM   21  H   UNL     1     -11.125  14.875  63.898  1.00  0.00     0.000 HD 
HETATM   22  C   UNL     1     -12.177  13.216  63.205  1.00  0.00    -0.360 C  
HETATM   23  C   UNL     1     -12.866  14.633  65.024  1.00  0.00     0.084 C  
HETATM   24  C   UNL     1     -11.869  12.108  64.224  1.00  0.00    -0.378 C  
ENDBRANCH   1  18
TORSDOF 6
ENDMDL
MODEL       80
REMARK 921   NORMALIZED FREE ENERGY PREDICTED BY IDOCK:   -4.80 KCAL/MOL
REMARK 922        TOTAL FREE ENERGY PREDICTED BY IDOCK:   -7.61 KCAL/MOL
REMARK 923 INTER-LIGAND FREE ENERGY PREDICTED BY IDOCK:   -6.42 KCAL/MOL
REMARK 924 INTRA-LIGAND FREE ENERGY PREDICTED BY IDOCK:   -1.19 KCAL/MOL
REMARK 927      BINDING AFFINITY PREDICTED BY RF-SCORE:    0.00 PKD
ROOT
HETATM    1  C   UNL     1     -10.475  11.831  67.575  1.00  0.00    -0.202 C  
ENDROOT
BRANCH   1   2
HETATM    2  C   UNL     1     -10.476  13.352  67.649  1.00  0.00    -0.242 A  
HETATM    3  C   UNL     1     -11.684  15.445  67.928  1.00  0.00    -0.198 A  
HETATM    4  C   UNL     1      -9.338  14.092  67.282  1.00  0.00    -0.225 A  
HETATM    5  C   UNL     1      -9.383  15.484  67.211  1.00  0.00    -0.220 A  
HETATM    6  C   UNL     1     -10.560  16.162  67.523  1.00  0.00    -0.314 A  
HETATM    7  C   UNL     1     -11.643  14.050  67.993  1.00  0.00    -0.372 A  
ENDBRANCH   1   2
BRANCH   1   8
HETATM    8  O   UNL     1     -11.297  11.357  68.664  1.00  0.00    -0.215 OA 
BRANCH   8   9
HETATM    9  C   UNL     1     -10.792  10.572  69.661  1.00  0.00    -0.274 A  
HETATM   10  C   UNL     1      -9.068   9.212  70.713  1.00  0.00    -0.313 A  
HETATM   11  C   UNL     1     -11.272   9.283  71.670  1.00  0.00    -0.449 A  
HETATM   12  C   UNL     1      -9.972   8.788  71.681  1.00  0.00    -0.381 A  
HETATM   13  C   UNL     1      -9.476  10.100  69.711  1.00  0.00    -0.201 A  
HETATM   14  C   UNL     1     -11.680  10.195  70.688  1.00  0.00    -0.338 A  
BRANCH  14  15
HETATM   15  O   UNL     1     -12.984  10.602  70.829  1.00  0.00    -0.364 OA 
BRANCH  15  16
HETATM   16  C   UNL     1     -13.244  11.476  71.930  1.00  0.00    -0.374 C  
HETATM   17  C   UNL     1     -12.874  12.889  71.511  1.00  0.00    -0.380 C  
ENDBRANCH  15  16
ENDBRANCH  14  15
ENDBRANCH   8   9
ENDBRANCH   1   8
BRANCH   1  18
HETATM   18  C   UNL     1     -11.088  11.241  66.269  1.00  0.00    -0.166 C  
HETATM   19  N   UNL     1      -9.296  11.773  64.540  1.00  0.00    -0.428 NA 
HETATM   20  O   UNL     1     -10.781   9.833  66.122  1.00  0.00    -0.024 OA 
HETATM   21  H   UNL     1      -8.637  12.290  65.122  1.00  0.00     0.000 HD 
HETATM   22  C   UNL     1      -8.997  10.333  64.509  1.00  0.00    -0.219 C  
HETATM   23  C   UNL     1     -10.695  11.976  64.965  1.00  0.00    -0.296 C  
HETATM   24  C   UNL     1      -9.410   9.594  65.791  1.00  0.00    -0.228 C  
ENDBRANCH   1  18
TORSDOF 6
ENDMDL
MODEL       81
REMARK 921   NORMALIZED FREE ENERGY PREDICTED BY IDOCK:   -4.80 KCAL/MOL
REMARK 922        TOTAL FREE ENERGY PREDICTED BY IDOCK:   -7.61 KCAL/MOL
REMARK 923 INTER-LIGAND FREE ENERGY PREDICTED BY IDOCK:   -7.39 KCAL/MOL
REMARK 924 INTRA-LIGAND FREE ENERGY PREDICTED BY IDOCK:   -0.22 KCAL/MOL
REMARK 927      BINDING AFFINITY PREDICTED BY RF-SCORE:    0.00 PKD
ROOT
HETATM    1  C   UNL     1      -9.325  14.547  66.934  1.00  0.00    -0.245 C  
ENDROOT
BRANCH   1   2
HETATM    2  C   UNL     1     -10.280  13.979  65.893  1.00  0.00    -0.332 A  
HETATM    3  C   UNL     1     -10.849  12.243  64.286  1.00  0.00    -0.392 A  
HETATM    4  C   UNL     1     -11.347  14.748  65.397  1.00  0.00    -0.356 A  
HETATM    5  C   UNL     1     -12.133  14.283  64.343  1.00  0.00    -0.490 A  
HETATM    6  C   UNL     1     -11.878  13.035  63.778  1.00  0.00    -0.566 A  
HETATM    7  C   UNL     1     -10.057  12.710  65.338  1.00  0.00    -0.277 A  
ENDBRANCH   1   2
BRANCH   1   8
HETATM    8  O   UNL     1      -9.468  15.984  66.896  1.00  0.00    -0.215 OA 
BRANCH   8   9
HETATM    9  C   UNL     1      -8.411  16.809  66.636  1.00  0.00    -0.261 A  
HETATM   10  C   UNL     1      -6.051  17.409  66.647  1.00  0.00    -0.239 A  
HETATM   11  C   UNL     1      -7.689  19.044  65.999  1.00  0.00    -0.252 A  
HETATM   12  C   UNL     1      -6.363  18.704  66.246  1.00  0.00    -0.221 A  
HETATM   13  C   UNL     1      -7.069  16.468  66.839  1.00  0.00    -0.262 A  
HETATM   14  C   UNL     1      -8.710  18.099  66.160  1.00  0.00    -0.090 A  
BRANCH  14  15
HETATM   15  O   UNL     1      -9.958  18.588  65.855  1.00  0.00    -0.520 OA 
BRANCH  15  16
HETATM   16  C   UNL     1     -10.313  19.818  66.488  1.00  0.00    -0.506 C  
HETATM   17  C   UNL     1     -10.529  19.545  67.968  1.00  0.00    -0.528 C  
ENDBRANCH  15  16
ENDBRANCH  14  15
ENDBRANCH   8   9
ENDBRANCH   1   8
BRANCH   1  18
HETATM   18  C   UNL     1      -9.623  14.112  68.401  1.00  0.00    -0.225 C  
HETATM   19  N   UNL     1     -10.707  16.200  69.377  1.00  0.00    -0.282 NA 
HETATM   20  O   UNL     1     -10.896  13.428  68.508  1.00  0.00    -0.249 OA 
HETATM   21  H   UNL     1     -10.631  16.828  68.577  1.00  0.00     0.000 HD 
HETATM   22  C   UNL     1     -11.975  15.455  69.380  1.00  0.00    -0.327 C  
HETATM   23  C   UNL     1      -9.578  15.250  69.449  1.00  0.00    -0.244 C  
HETATM   24  C   UNL     1     -12.014  14.307  68.360  1.00  0.00    -0.309 C  
ENDBRANCH   1  18
TORSDOF 6
ENDMDL
MODEL       82
REMARK 921   NORMALIZED FREE ENERGY PREDICTED BY IDOCK:   -4.79 KCAL/MOL
REMARK 922        TOTAL FREE ENERGY PREDICTED BY IDOCK:   -7.59 KCAL/MOL
REMARK 923 INTER-LIGAND FREE ENERGY PREDICTED BY IDOCK:   -7.90 KCAL/MOL
REMARK 924 INTRA-LIGAND FREE ENERGY PREDICTED BY IDOCK:    0.30 KCAL/MOL
REMARK 927      BINDING AFFINITY PREDICTED BY RF-SCORE:    0.00 PKD
ROOT
HETATM    1  C   UNL     1     -10.583  14.148  66.528  1.00  0.00    -0.282 C  
ENDROOT
BRANCH   1   2
HETATM    2  C   UNL     1     -10.637  15.649  66.772  1.00  0.00    -0.307 A  
HETATM    3  C   UNL     1     -10.381  17.925  65.952  1.00  0.00    -0.259 A  
HETATM    4  C   UNL     1     -10.757  16.164  68.075  1.00  0.00    -0.321 A  
HETATM    5  C   UNL     1     -10.661  17.535  68.314  1.00  0.00    -0.354 A  
HETATM    6  C   UNL     1     -10.461  18.416  67.254  1.00  0.00    -0.434 A  
HETATM    7  C   UNL     1     -10.471  16.552  65.712  1.00  0.00    -0.343 A  
ENDBRANCH   1   2
BRANCH   1   8
HETATM    8  O   UNL     1     -10.025  13.547  67.717  1.00  0.00    -0.222 OA 
BRANCH   8   9
HETATM    9  C   UNL     1     -10.798  12.863  68.611  1.00  0.00    -0.258 A  
HETATM   10  C   UNL     1     -12.424  12.694  70.416  1.00  0.00    -0.219 A  
HETATM   11  C   UNL     1     -11.247  10.728  69.691  1.00  0.00    -0.355 A  
HETATM   12  C   UNL     1     -12.158  11.335  70.549  1.00  0.00    -0.481 A  
HETATM   13  C   UNL     1     -11.749  13.452  69.452  1.00  0.00    -0.382 A  
HETATM   14  C   UNL     1     -10.590  11.474  68.704  1.00  0.00    -0.208 A  
BRANCH  14  15
HETATM   15  O   UNL     1      -9.741  10.723  67.927  1.00  0.00    -0.162 OA 
BRANCH  15  16
HETATM   16  C   UNL     1      -9.753   9.316  68.178  1.00  0.00    -0.150 C  
HETATM   17  C   UNL     1      -8.390   8.756  67.805  1.00  0.00    -0.118 C  
ENDBRANCH  15  16
ENDBRANCH  14  15
ENDBRANCH   8   9
ENDBRANCH   1   8
BRANCH   1  18
HETATM   18  C   UNL     1     -11.971  13.474  66.302  1.00  0.00    -0.413 C  
HETATM   19  N   UNL     1     -12.496  14.110  63.893  1.00  0.00    -0.915 NA 
HETATM   20  O   UNL     1     -11.834  12.093  65.884  1.00  0.00    -0.504 OA 
HETATM   21  H   UNL     1     -11.688  14.696  63.684  1.00  0.00     0.000 HD 
HETATM   22  C   UNL     1     -12.264  12.700  63.543  1.00  0.00    -0.547 C  
HETATM   23  C   UNL     1     -12.906  14.205  65.308  1.00  0.00    -0.344 C  
HETATM   24  C   UNL     1     -11.359  11.963  64.541  1.00  0.00    -0.316 C  
ENDBRANCH   1  18
TORSDOF 6
ENDMDL
MODEL       83
REMARK 921   NORMALIZED FREE ENERGY PREDICTED BY IDOCK:   -4.79 KCAL/MOL
REMARK 922        TOTAL FREE ENERGY PREDICTED BY IDOCK:   -7.59 KCAL/MOL
REMARK 923 INTER-LIGAND FREE ENERGY PREDICTED BY IDOCK:   -7.15 KCAL/MOL
REMARK 924 INTRA-LIGAND FREE ENERGY PREDICTED BY IDOCK:   -0.44 KCAL/MOL
REMARK 927      BINDING AFFINITY PREDICTED BY RF-SCORE:    0.00 PKD
ROOT
HETATM    1  C   UNL     1     -11.611  14.044  67.309  1.00  0.00    -0.369 C  
ENDROOT
BRANCH   1   2
HETATM    2  C   UNL     1     -11.100  12.846  68.098  1.00  0.00    -0.282 A  
HETATM    3  C   UNL     1      -9.323  11.263  68.603  1.00  0.00    -0.167 A  
HETATM    4  C   UNL     1     -11.975  12.066  68.874  1.00  0.00    -0.303 A  
HETATM    5  C   UNL     1     -11.538  10.889  69.479  1.00  0.00    -0.384 A  
HETATM    6  C   UNL     1     -10.213  10.479  69.335  1.00  0.00    -0.245 A  
HETATM    7  C   UNL     1      -9.762  12.440  67.991  1.00  0.00    -0.210 A  
ENDBRANCH   1   2
BRANCH   1   8
HETATM    8  O   UNL     1     -10.452  14.768  66.844  1.00  0.00    -0.270 OA 
BRANCH   8   9
HETATM    9  C   UNL     1     -10.033  15.921  67.444  1.00  0.00    -0.239 A  
HETATM   10  C   UNL     1     -10.381  18.056  68.563  1.00  0.00    -0.359 A  
HETATM   11  C   UNL     1      -8.167  17.425  67.873  1.00  0.00    -0.225 A  
HETATM   12  C   UNL     1      -9.027  18.354  68.449  1.00  0.00    -0.336 A  
HETATM   13  C   UNL     1     -10.879  16.846  68.065  1.00  0.00    -0.338 A  
HETATM   14  C   UNL     1      -8.653  16.200  67.399  1.00  0.00    -0.180 A  
BRANCH  14  15
HETATM   15  O   UNL     1      -7.673  15.388  66.880  1.00  0.00    -0.212 OA 
BRANCH  15  16
HETATM   16  C   UNL     1      -6.576  15.108  67.750  1.00  0.00    -0.165 C  
HETATM   17  C   UNL     1      -6.308  13.612  67.711  1.00  0.00    -0.172 C  
ENDBRANCH  15  16
ENDBRANCH  14  15
ENDBRANCH   8   9
ENDBRANCH   1   8
BRANCH   1  18
HETATM   18  C   UNL     1     -12.444  13.683  66.041  1.00  0.00    -0.426 C  
HETATM   19  N   UNL     1     -10.827  14.239  64.154  1.00  0.00    -0.487 NA 
HETATM   20  O   UNL     1     -12.322  12.280  65.702  1.00  0.00    -0.619 OA 
HETATM   21  H   UNL     1     -10.047  14.612  64.695  1.00  0.00     0.000 HD 
HETATM   22  C   UNL     1     -10.704  12.791  63.927  1.00  0.00    -0.409 C  
HETATM   23  C   UNL     1     -12.131  14.529  64.783  1.00  0.00    -0.445 C  
HETATM   24  C   UNL     1     -11.039  11.946  65.165  1.00  0.00    -0.305 C  
ENDBRANCH   1  18
TORSDOF 6
ENDMDL
MODEL       84
REMARK 921   NORMALIZED FREE ENERGY PREDICTED BY IDOCK:   -4.75 KCAL/MOL
REMARK 922        TOTAL FREE ENERGY PREDICTED BY IDOCK:   -7.55 KCAL/MOL
REMARK 923 INTER-LIGAND FREE ENERGY PREDICTED BY IDOCK:   -6.72 KCAL/MOL
REMARK 924 INTRA-LIGAND FREE ENERGY PREDICTED BY IDOCK:   -0.83 KCAL/MOL
REMARK 927      BINDING AFFINITY PREDICTED BY RF-SCORE:    0.00 PKD
ROOT
HETATM    1  C   UNL     1     -11.329   9.686  70.397  1.00  0.00    -0.277 C  
ENDROOT
BRANCH   1   2
HETATM    2  C   UNL     1     -11.615  10.957  69.609  1.00  0.00    -0.394 A  
HETATM    3  C   UNL     1     -11.674  12.152  67.491  1.00  0.00    -0.385 A  
HETATM    4  C   UNL     1     -11.859  12.175  70.269  1.00  0.00    -0.339 A  
HETATM    5  C   UNL     1     -11.978  13.365  69.552  1.00  0.00    -0.377 A  
HETATM    6  C   UNL     1     -11.874  13.357  68.162  1.00  0.00    -0.396 A  
HETATM    7  C   UNL     1     -11.548  10.960  68.208  1.00  0.00    -0.335 A  
ENDBRANCH   1   2
BRANCH   1   8
HETATM    8  O   UNL     1      -9.929   9.715  70.748  1.00  0.00    -0.270 OA 
BRANCH   8   9
HETATM    9  C   UNL     1      -9.074   8.710  70.394  1.00  0.00    -0.159 A  
HETATM   10  C   UNL     1      -8.236   6.975  68.905  1.00  0.00    -0.122 A  
HETATM   11  C   UNL     1      -7.341   7.166  71.127  1.00  0.00    -0.075 A  
HETATM   12  C   UNL     1      -7.383   6.511  69.900  1.00  0.00    -0.086 A  
HETATM   13  C   UNL     1      -9.074   8.069  69.150  1.00  0.00    -0.145 A  
HETATM   14  C   UNL     1      -8.155   8.280  71.370  1.00  0.00    -0.125 A  
BRANCH  14  15
HETATM   15  O   UNL     1      -7.978   8.823  72.619  1.00  0.00    -0.380 OA 
BRANCH  15  16
HETATM   16  C   UNL     1      -7.789   7.886  73.681  1.00  0.00    -0.170 C  
HETATM   17  C   UNL     1      -9.125   7.220  73.969  1.00  0.00    -0.284 C  
ENDBRANCH  15  16
ENDBRANCH  14  15
ENDBRANCH   8   9
ENDBRANCH   1   8
BRANCH   1  18
HETATM   18  C   UNL     1     -12.118   9.555  71.735  1.00  0.00    -0.384 C  
HETATM   19  N   UNL     1     -14.324   8.541  70.967  1.00  0.00    -0.631 NA 
HETATM   20  O   UNL     1     -11.811   8.315  72.418  1.00  0.00    -0.364 OA 
HETATM   21  H   UNL     1     -14.167   8.518  69.959  1.00  0.00     0.000 HD 
HETATM   22  C   UNL     1     -13.899   7.295  71.624  1.00  0.00    -0.349 C  
HETATM   23  C   UNL     1     -13.655   9.689  71.610  1.00  0.00    -0.324 C  
HETATM   24  C   UNL     1     -12.376   7.170  71.774  1.00  0.00    -0.350 C  
ENDBRANCH   1  18
TORSDOF 6
ENDMDL
MODEL       85
REMARK 921   NORMALIZED FREE ENERGY PREDICTED BY IDOCK:   -4.74 KCAL/MOL
REMARK 922        TOTAL FREE ENERGY PREDICTED BY IDOCK:   -7.53 KCAL/MOL
REMARK 923 INTER-LIGAND FREE ENERGY PREDICTED BY IDOCK:   -6.27 KCAL/MOL
REMARK 924 INTRA-LIGAND FREE ENERGY PREDICTED BY IDOCK:   -1.26 KCAL/MOL
REMARK 927      BINDING AFFINITY PREDICTED BY RF-SCORE:    0.00 PKD
ROOT
HETATM    1  C   UNL     1      -8.746  16.303  67.488  1.00  0.00    -0.181 C  
ENDROOT
BRANCH   1   2
HETATM    2  C   UNL     1      -9.280  17.727  67.568  1.00  0.00    -0.244 A  
HETATM    3  C   UNL     1      -9.817  19.702  68.884  1.00  0.00    -0.498 A  
HETATM    4  C   UNL     1      -9.943  18.311  66.474  1.00  0.00    -0.380 A  
HETATM    5  C   UNL     1     -10.558  19.557  66.594  1.00  0.00    -0.583 A  
HETATM    6  C   UNL     1     -10.505  20.249  67.802  1.00  0.00    -0.323 A  
HETATM    7  C   UNL     1      -9.206  18.451  68.768  1.00  0.00    -0.277 A  
ENDBRANCH   1   2
BRANCH   1   8
HETATM    8  O   UNL     1      -9.681  15.548  66.688  1.00  0.00    -0.228 OA 
BRANCH   8   9
HETATM    9  C   UNL     1     -10.228  14.377  67.130  1.00  0.00    -0.257 A  
HETATM   10  C   UNL     1     -10.490  11.956  67.152  1.00  0.00    -0.249 A  
HETATM   11  C   UNL     1     -12.009  13.325  68.413  1.00  0.00    -0.336 A  
HETATM   12  C   UNL     1     -11.605  12.069  67.976  1.00  0.00    -0.407 A  
HETATM   13  C   UNL     1      -9.806  13.103  66.733  1.00  0.00    -0.251 A  
HETATM   14  C   UNL     1     -11.312  14.476  68.024  1.00  0.00    -0.306 A  
BRANCH  14  15
HETATM   15  O   UNL     1     -11.826  15.633  68.558  1.00  0.00    -0.355 OA 
BRANCH  15  16
HETATM   16  C   UNL     1     -12.022  15.627  69.973  1.00  0.00    -0.368 C  
HETATM   17  C   UNL     1     -10.682  15.896  70.639  1.00  0.00    -0.129 C  
ENDBRANCH  15  16
ENDBRANCH  14  15
ENDBRANCH   8   9
ENDBRANCH   1   8
BRANCH   1  18
HETATM   18  C   UNL     1      -7.357  16.165  66.794  1.00  0.00    -0.185 C  
HETATM   19  N   UNL     1      -5.771  17.072  68.568  1.00  0.00    -0.137 NA 
HETATM   20  O   UNL     1      -6.789  14.847  66.991  1.00  0.00    -0.185 OA 
HETATM   21  H   UNL     1      -6.445  17.352  69.281  1.00  0.00     0.000 HD 
HETATM   22  C   UNL     1      -5.305  15.689  68.757  1.00  0.00    -0.100 C  
HETATM   23  C   UNL     1      -6.307  17.228  67.201  1.00  0.00    -0.163 C  
HETATM   24  C   UNL     1      -6.333  14.632  68.329  1.00  0.00    -0.123 C  
ENDBRANCH   1  18
TORSDOF 6
ENDMDL
MODEL       86
REMARK 921   NORMALIZED FREE ENERGY PREDICTED BY IDOCK:   -4.73 KCAL/MOL
REMARK 922        TOTAL FREE ENERGY PREDICTED BY IDOCK:   -7.51 KCAL/MOL
REMARK 923 INTER-LIGAND FREE ENERGY PREDICTED BY IDOCK:   -5.85 KCAL/MOL
REMARK 924 INTRA-LIGAND FREE ENERGY PREDICTED BY IDOCK:   -1.66 KCAL/MOL
REMARK 927      BINDING AFFINITY PREDICTED BY RF-SCORE:    0.00 PKD
ROOT
HETATM    1  C   UNL     1      -9.917   7.659  68.682  1.00  0.00    -0.174 C  
ENDROOT
BRANCH   1   2
HETATM    2  C   UNL     1     -10.468   7.566  70.098  1.00  0.00    -0.226 A  
HETATM    3  C   UNL     1     -12.263   6.950  71.621  1.00  0.00    -0.403 A  
HETATM    4  C   UNL     1      -9.820   8.208  71.168  1.00  0.00    -0.207 A  
HETATM    5  C   UNL     1     -10.400   8.246  72.435  1.00  0.00    -0.402 A  
HETATM    6  C   UNL     1     -11.627   7.626  72.661  1.00  0.00    -0.371 A  
HETATM    7  C   UNL     1     -11.686   6.918  70.349  1.00  0.00    -0.377 A  
ENDBRANCH   1   2
BRANCH   1   8
HETATM    8  O   UNL     1      -9.439   9.010  68.504  1.00  0.00    -0.143 OA 
BRANCH   8   9
HETATM    9  C   UNL     1     -10.072   9.898  67.682  1.00  0.00    -0.197 A  
HETATM   10  C   UNL     1     -10.530  10.944  65.531  1.00  0.00    -0.286 A  
HETATM   11  C   UNL     1     -11.475  11.881  67.532  1.00  0.00    -0.396 A  
HETATM   12  C   UNL     1     -11.287  11.930  66.155  1.00  0.00    -0.383 A  
HETATM   13  C   UNL     1      -9.928   9.934  66.290  1.00  0.00    -0.322 A  
HETATM   14  C   UNL     1     -10.901  10.857  68.295  1.00  0.00    -0.225 A  
BRANCH  14  15
HETATM   15  O   UNL     1     -11.199  10.941  69.634  1.00  0.00    -0.243 OA 
BRANCH  15  16
HETATM   16  C   UNL     1     -12.560  10.681  69.983  1.00  0.00    -0.165 C  
HETATM   17  C   UNL     1     -12.732  10.967  71.466  1.00  0.00    -0.533 C  
ENDBRANCH  15  16
ENDBRANCH  14  15
ENDBRANCH   8   9
ENDBRANCH   1   8
BRANCH   1  18
HETATM   18  C   UNL     1      -8.708   6.720  68.389  1.00  0.00    -0.123 C  
HETATM   19  N   UNL     1      -9.853   4.605  67.551  1.00  0.00    -0.169 NA 
HETATM   20  O   UNL     1      -8.174   6.931  67.059  1.00  0.00    -0.117 OA 
HETATM   21  H   UNL     1     -10.830   4.877  67.663  1.00  0.00     0.000 HD 
HETATM   22  C   UNL     1      -9.333   4.937  66.216  1.00  0.00    -0.149 C  
HETATM   23  C   UNL     1      -8.984   5.208  68.581  1.00  0.00    -0.105 C  
HETATM   24  C   UNL     1      -9.032   6.432  66.029  1.00  0.00    -0.130 C  
ENDBRANCH   1  18
TORSDOF 6
ENDMDL
MODEL       87
REMARK 921   NORMALIZED FREE ENERGY PREDICTED BY IDOCK:   -4.68 KCAL/MOL
REMARK 922        TOTAL FREE ENERGY PREDICTED BY IDOCK:   -7.44 KCAL/MOL
REMARK 923 INTER-LIGAND FREE ENERGY PREDICTED BY IDOCK:   -6.12 KCAL/MOL
REMARK 924 INTRA-LIGAND FREE ENERGY PREDICTED BY IDOCK:   -1.32 KCAL/MOL
REMARK 927      BINDING AFFINITY PREDICTED BY RF-SCORE:    0.00 PKD
ROOT
HETATM    1  C   UNL     1     -10.352  13.213  67.080  1.00  0.00    -0.249 C  
ENDROOT
BRANCH   1   2
HETATM    2  C   UNL     1     -10.981  12.330  68.149  1.00  0.00    -0.269 A  
HETATM    3  C   UNL     1     -12.213  12.105  70.234  1.00  0.00    -0.344 A  
HETATM    4  C   UNL     1     -10.726  10.948  68.184  1.00  0.00    -0.256 A  
HETATM    5  C   UNL     1     -11.182  10.164  69.243  1.00  0.00    -0.247 A  
HETATM    6  C   UNL     1     -11.917  10.744  70.276  1.00  0.00    -0.438 A  
HETATM    7  C   UNL     1     -11.751  12.893  69.177  1.00  0.00    -0.376 A  
ENDBRANCH   1   2
BRANCH   1   8
HETATM    8  O   UNL     1      -8.923  13.026  67.167  1.00  0.00    -0.207 OA 
BRANCH   8   9
HETATM    9  C   UNL     1      -8.166  13.668  68.106  1.00  0.00    -0.158 A  
HETATM   10  C   UNL     1      -7.479  15.606  69.409  1.00  0.00    -0.221 A  
HETATM   11  C   UNL     1      -6.197  13.578  69.534  1.00  0.00    -0.115 A  
HETATM   12  C   UNL     1      -6.383  14.906  69.901  1.00  0.00    -0.157 A  
HETATM   13  C   UNL     1      -8.365  14.990  68.519  1.00  0.00    -0.161 A  
HETATM   14  C   UNL     1      -7.096  12.944  68.667  1.00  0.00    -0.103 A  
BRANCH  14  15
HETATM   15  O   UNL     1      -6.783  11.629  68.422  1.00  0.00    -0.058 OA 
BRANCH  15  16
HETATM   16  C   UNL     1      -7.234  10.692  69.401  1.00  0.00    -0.126 C  
HETATM   17  C   UNL     1      -6.997   9.291  68.861  1.00  0.00    -0.064 C  
ENDBRANCH  15  16
ENDBRANCH  14  15
ENDBRANCH   8   9
ENDBRANCH   1   8
BRANCH   1  18
HETATM   18  C   UNL     1     -10.756  12.856  65.617  1.00  0.00    -0.274 C  
HETATM   19  N   UNL     1     -13.023  13.992  65.388  1.00  0.00    -0.743 NA 
HETATM   20  O   UNL     1     -10.211  13.801  64.665  1.00  0.00    -0.412 OA 
HETATM   21  H   UNL     1     -13.133  14.360  66.333  1.00  0.00     0.000 HD 
HETATM   22  C   UNL     1     -12.371  14.956  64.488  1.00  0.00    -0.315 C  
HETATM   23  C   UNL     1     -12.278  12.718  65.368  1.00  0.00    -0.478 C  
HETATM   24  C   UNL     1     -10.857  15.076  64.714  1.00  0.00    -0.355 C  
ENDBRANCH   1  18
TORSDOF 6
ENDMDL
MODEL       88
REMARK 921   NORMALIZED FREE ENERGY PREDICTED BY IDOCK:   -4.66 KCAL/MOL
REMARK 922        TOTAL FREE ENERGY PREDICTED BY IDOCK:   -7.42 KCAL/MOL
REMARK 923 INTER-LIGAND FREE ENERGY PREDICTED BY IDOCK:   -6.17 KCAL/MOL
REMARK 924 INTRA-LIGAND FREE ENERGY PREDICTED BY IDOCK:   -1.25 KCAL/MOL
REMARK 927      BINDING AFFINITY PREDICTED BY RF-SCORE:    0.00 PKD
ROOT
HETATM    1  C   UNL     1     -10.351   8.535  68.251  1.00  0.00    -0.201 C  
ENDROOT
BRANCH   1   2
HETATM    2  C   UNL     1     -10.098   7.089  67.848  1.00  0.00    -0.204 A  
HETATM    3  C   UNL     1      -8.677   5.114  67.880  1.00  0.00    -0.102 A  
HETATM    4  C   UNL     1     -10.909   6.454  66.891  1.00  0.00    -0.428 A  
HETATM    5  C   UNL     1     -10.591   5.182  66.416  1.00  0.00    -0.336 A  
HETATM    6  C   UNL     1      -9.468   4.515  66.902  1.00  0.00    -0.190 A  
HETATM    7  C   UNL     1      -8.991   6.391  68.353  1.00  0.00    -0.120 A  
ENDBRANCH   1   2
BRANCH   1   8
HETATM    8  O   UNL     1     -10.266   8.592  69.691  1.00  0.00    -0.198 OA 
BRANCH   8   9
HETATM    9  C   UNL     1     -11.365   8.436  70.487  1.00  0.00    -0.216 A  
HETATM   10  C   UNL     1     -13.112   7.132  71.573  1.00  0.00    -0.427 A  
HETATM   11  C   UNL     1     -13.198   9.533  71.655  1.00  0.00    -0.486 A  
HETATM   12  C   UNL     1     -13.761   8.299  71.963  1.00  0.00    -0.381 A  
HETATM   13  C   UNL     1     -11.921   7.201  70.841  1.00  0.00    -0.375 A  
HETATM   14  C   UNL     1     -11.991   9.610  70.949  1.00  0.00    -0.309 A  
BRANCH  14  15
HETATM   15  O   UNL     1     -11.560  10.898  70.745  1.00  0.00    -0.312 OA 
BRANCH  15  16
HETATM   16  C   UNL     1     -12.511  11.783  70.151  1.00  0.00    -0.107 C  
HETATM   17  C   UNL     1     -11.831  13.122  69.915  1.00  0.00    -0.378 C  
ENDBRANCH  15  16
ENDBRANCH  14  15
ENDBRANCH   8   9
ENDBRANCH   1   8
BRANCH   1  18
HETATM   18  C   UNL     1      -9.308   9.558  67.706  1.00  0.00    -0.127 C  
HETATM   19  N   UNL     1      -9.877   9.643  65.225  1.00  0.00    -0.422 NA 
HETATM   20  O   UNL     1      -9.776  10.922  67.838  1.00  0.00    -0.161 OA 
HETATM   21  H   UNL     1     -10.619   8.943  65.190  1.00  0.00     0.000 HD 
HETATM   22  C   UNL     1     -10.401  10.997  65.464  1.00  0.00    -0.260 C  
HETATM   23  C   UNL     1      -8.857   9.323  66.243  1.00  0.00    -0.146 C  
HETATM   24  C   UNL     1     -10.825  11.242  66.919  1.00  0.00    -0.282 C  
ENDBRANCH   1  18
TORSDOF 6
ENDMDL
MODEL       89
REMARK 921   NORMALIZED FREE ENERGY PREDICTED BY IDOCK:   -4.65 KCAL/MOL
REMARK 922        TOTAL FREE ENERGY PREDICTED BY IDOCK:   -7.41 KCAL/MOL
REMARK 923 INTER-LIGAND FREE ENERGY PREDICTED BY IDOCK:   -6.55 KCAL/MOL
REMARK 924 INTRA-LIGAND FREE ENERGY PREDICTED BY IDOCK:   -0.86 KCAL/MOL
REMARK 927      BINDING AFFINITY PREDICTED BY RF-SCORE:    0.00 PKD
ROOT
HETATM    1  C   UNL     1      -8.652  15.983  67.053  1.00  0.00    -0.210 C  
ENDROOT
BRANCH   1   2
HETATM    2  C   UNL     1      -9.235  17.382  67.201  1.00  0.00    -0.241 A  
HETATM    3  C   UNL     1     -10.393  19.049  68.543  1.00  0.00    -0.336 A  
HETATM    4  C   UNL     1      -9.373  18.227  66.085  1.00  0.00    -0.146 A  
HETATM    5  C   UNL     1     -10.037  19.449  66.192  1.00  0.00    -0.533 A  
HETATM    6  C   UNL     1     -10.558  19.856  67.419  1.00  0.00    -0.505 A  
HETATM    7  C   UNL     1      -9.734  17.821  68.436  1.00  0.00    -0.333 A  
ENDBRANCH   1   2
BRANCH   1   8
HETATM    8  O   UNL     1      -9.038  15.503  65.747  1.00  0.00    -0.286 OA 
BRANCH   8   9
HETATM    9  C   UNL     1     -10.158  14.744  65.559  1.00  0.00    -0.380 A  
HETATM   10  C   UNL     1     -12.451  14.375  64.827  1.00  0.00    -0.371 A  
HETATM   11  C   UNL     1     -11.315  12.667  66.079  1.00  0.00    -0.369 A  
HETATM   12  C   UNL     1     -12.463  13.128  65.442  1.00  0.00    -0.535 A  
HETATM   13  C   UNL     1     -11.305  15.177  64.884  1.00  0.00    -0.402 A  
HETATM   14  C   UNL     1     -10.155  13.451  66.115  1.00  0.00    -0.302 A  
BRANCH  14  15
HETATM   15  O   UNL     1      -9.106  12.843  66.762  1.00  0.00    -0.225 OA 
BRANCH  15  16
HETATM   16  C   UNL     1      -9.402  12.305  68.051  1.00  0.00    -0.195 C  
HETATM   17  C   UNL     1      -8.283  11.351  68.435  1.00  0.00    -0.151 C  
ENDBRANCH  15  16
ENDBRANCH  14  15
ENDBRANCH   8   9
ENDBRANCH   1   8
BRANCH   1  18
HETATM   18  C   UNL     1      -7.096  15.915  67.108  1.00  0.00    -0.204 C  
HETATM   19  N   UNL     1      -6.569  17.233  69.222  1.00  0.00    -0.239 NA 
HETATM   20  O   UNL     1      -6.635  14.712  67.770  1.00  0.00    -0.149 OA 
HETATM   21  H   UNL     1      -7.510  17.527  69.486  1.00  0.00     0.000 HD 
HETATM   22  C   UNL     1      -6.192  15.954  69.842  1.00  0.00    -0.157 C  
HETATM   23  C   UNL     1      -6.404  17.139  67.758  1.00  0.00    -0.145 C  
HETATM   24  C   UNL     1      -6.855  14.735  69.183  1.00  0.00    -0.133 C  
ENDBRANCH   1  18
TORSDOF 6
ENDMDL
MODEL       90
REMARK 921   NORMALIZED FREE ENERGY PREDICTED BY IDOCK:   -4.63 KCAL/MOL
REMARK 922        TOTAL FREE ENERGY PREDICTED BY IDOCK:   -7.37 KCAL/MOL
REMARK 923 INTER-LIGAND FREE ENERGY PREDICTED BY IDOCK:   -6.75 KCAL/MOL
REMARK 924 INTRA-LIGAND FREE ENERGY PREDICTED BY IDOCK:   -0.62 KCAL/MOL
REMARK 927      BINDING AFFINITY PREDICTED BY RF-SCORE:    0.00 PKD
ROOT
HETATM    1  C   UNL     1     -10.540  10.500  69.159  1.00  0.00    -0.229 C  
ENDROOT
BRANCH   1   2
HETATM    2  C   UNL     1     -11.584  10.186  70.222  1.00  0.00    -0.379 A  
HETATM    3  C   UNL     1     -13.155  10.945  71.918  1.00  0.00    -0.537 A  
HETATM    4  C   UNL     1     -11.785   8.868  70.668  1.00  0.00    -0.212 A  
HETATM    5  C   UNL     1     -12.635   8.598  71.741  1.00  0.00    -0.396 A  
HETATM    6  C   UNL     1     -13.312   9.638  72.374  1.00  0.00    -0.426 A  
HETATM    7  C   UNL     1     -12.299  11.218  70.848  1.00  0.00    -0.490 A  
ENDBRANCH   1   2
BRANCH   1   8
HETATM    8  O   UNL     1     -10.570  11.929  68.950  1.00  0.00    -0.217 OA 
BRANCH   8   9
HETATM    9  C   UNL     1     -11.130  12.484  67.835  1.00  0.00    -0.245 A  
HETATM   10  C   UNL     1     -11.982  12.425  65.555  1.00  0.00    -0.453 A  
HETATM   11  C   UNL     1     -11.738  14.536  66.676  1.00  0.00    -0.384 A  
HETATM   12  C   UNL     1     -12.075  13.812  65.537  1.00  0.00    -0.434 A  
HETATM   13  C   UNL     1     -11.514  11.766  66.697  1.00  0.00    -0.337 A  
HETATM   14  C   UNL     1     -11.297  13.882  67.833  1.00  0.00    -0.292 A  
BRANCH  14  15
HETATM   15  O   UNL     1     -11.026  14.738  68.873  1.00  0.00    -0.235 OA 
BRANCH  15  16
HETATM   16  C   UNL     1     -11.584  16.048  68.760  1.00  0.00    -0.351 C  
HETATM   17  C   UNL     1     -10.488  17.059  69.056  1.00  0.00    -0.337 C  
ENDBRANCH  15  16
ENDBRANCH  14  15
ENDBRANCH   8   9
ENDBRANCH   1   8
BRANCH   1  18
HETATM   18  C   UNL     1      -9.076  10.142  69.556  1.00  0.00    -0.195 C  
HETATM   19  N   UNL     1      -8.810   7.802  68.587  1.00  0.00    -0.131 NA 
HETATM   20  O   UNL     1      -8.122  10.630  68.581  1.00  0.00    -0.116 OA 
HETATM   21  H   UNL     1      -9.750   7.654  68.221  1.00  0.00     0.000 HD 
HETATM   22  C   UNL     1      -7.910   8.395  67.586  1.00  0.00    -0.107 C  
HETATM   23  C   UNL     1      -8.810   8.637  69.805  1.00  0.00    -0.137 C  
HETATM   24  C   UNL     1      -8.153   9.893  67.355  1.00  0.00    -0.113 C  
ENDBRANCH   1  18
TORSDOF 6
ENDMDL
MODEL       91
REMARK 921   NORMALIZED FREE ENERGY PREDICTED BY IDOCK:   -4.60 KCAL/MOL
REMARK 922        TOTAL FREE ENERGY PREDICTED BY IDOCK:   -7.34 KCAL/MOL
REMARK 923 INTER-LIGAND FREE ENERGY PREDICTED BY IDOCK:   -6.32 KCAL/MOL
REMARK 924 INTRA-LIGAND FREE ENERGY PREDICTED BY IDOCK:   -1.02 KCAL/MOL
REMARK 927      BINDING AFFINITY PREDICTED BY RF-SCORE:    0.00 PKD
ROOT
HETATM    1  C   UNL     1     -10.235  11.482  68.733  1.00  0.00    -0.192 C  
ENDROOT
BRANCH   1   2
HETATM    2  C   UNL     1     -10.760  12.632  67.885  1.00  0.00    -0.237 A  
HETATM    3  C   UNL     1     -12.058  13.424  65.986  1.00  0.00    -0.487 A  
HETATM    4  C   UNL     1     -10.267  13.938  68.055  1.00  0.00    -0.246 A  
HETATM    5  C   UNL     1     -10.640  14.961  67.185  1.00  0.00    -0.285 A  
HETATM    6  C   UNL     1     -11.528  14.703  66.142  1.00  0.00    -0.339 A  
HETATM    7  C   UNL     1     -11.680  12.395  66.853  1.00  0.00    -0.432 A  
ENDBRANCH   1   2
BRANCH   1   8
HETATM    8  O   UNL     1     -11.300  10.512  68.834  1.00  0.00    -0.251 OA 
BRANCH   8   9
HETATM    9  C   UNL     1     -11.794  10.105  70.041  1.00  0.00    -0.179 A  
HETATM   10  C   UNL     1     -12.193   8.472  71.802  1.00  0.00    -0.388 A  
HETATM   11  C   UNL     1     -13.266  10.620  71.910  1.00  0.00    -0.528 A  
HETATM   12  C   UNL     1     -13.061   9.351  72.442  1.00  0.00    -0.458 A  
HETATM   13  C   UNL     1     -11.563   8.848  70.611  1.00  0.00    -0.251 A  
HETATM   14  C   UNL     1     -12.615  11.015  70.735  1.00  0.00    -0.369 A  
BRANCH  14  15
HETATM   15  O   UNL     1     -12.908  12.303  70.356  1.00  0.00     0.045 OA 
BRANCH  15  16
HETATM   16  C   UNL     1     -12.803  13.290  71.383  1.00  0.00    -0.322 C  
HETATM   17  C   UNL     1     -12.912  14.661  70.737  1.00  0.00    -0.405 C  
ENDBRANCH  15  16
ENDBRANCH  14  15
ENDBRANCH   8   9
ENDBRANCH   1   8
BRANCH   1  18
HETATM   18  C   UNL     1      -9.010  10.731  68.127  1.00  0.00    -0.140 C  
HETATM   19  N   UNL     1      -7.047  11.890  69.262  1.00  0.00    -0.285 NA 
HETATM   20  O   UNL     1      -8.700   9.526  68.869  1.00  0.00    -0.127 OA 
HETATM   21  H   UNL     1      -7.547  12.599  69.798  1.00  0.00     0.000 HD 
HETATM   22  C   UNL     1      -6.850  10.650  70.029  1.00  0.00    -0.148 C  
HETATM   23  C   UNL     1      -7.721  11.577  67.986  1.00  0.00    -0.119 C  
HETATM   24  C   UNL     1      -8.120   9.795  70.149  1.00  0.00    -0.182 C  
ENDBRANCH   1  18
TORSDOF 6
ENDMDL
MODEL       92
REMARK 921   NORMALIZED FREE ENERGY PREDICTED BY IDOCK:   -4.60 KCAL/MOL
REMARK 922        TOTAL FREE ENERGY PREDICTED BY IDOCK:   -7.34 KCAL/MOL
REMARK 923 INTER-LIGAND FREE ENERGY PREDICTED BY IDOCK:   -7.17 KCAL/MOL
REMARK 924 INTRA-LIGAND FREE ENERGY PREDICTED BY IDOCK:   -0.17 KCAL/MOL
REMARK 927      BINDING AFFINITY PREDICTED BY RF-SCORE:    0.00 PKD
ROOT
HETATM    1  C   UNL     1     -10.943  14.287  68.773  1.00  0.00    -0.255 C  
ENDROOT
BRANCH   1   2
HETATM    2  C   UNL     1     -11.684  14.699  70.037  1.00  0.00    -0.348 A  
HETATM    3  C   UNL     1     -13.647  14.554  71.467  1.00  0.00    -0.465 A  
HETATM    4  C   UNL     1     -11.224  15.767  70.827  1.00  0.00    -0.404 A  
HETATM    5  C   UNL     1     -11.978  16.238  71.901  1.00  0.00    -0.513 A  
HETATM    6  C   UNL     1     -13.197  15.639  72.216  1.00  0.00    -0.558 A  
HETATM    7  C   UNL     1     -12.896  14.084  70.387  1.00  0.00    -0.231 A  
ENDBRANCH   1   2
BRANCH   1   8
HETATM    8  O   UNL     1     -11.411  12.966  68.422  1.00  0.00    -0.253 OA 
BRANCH   8   9
HETATM    9  C   UNL     1     -10.620  11.860  68.557  1.00  0.00    -0.222 A  
HETATM   10  C   UNL     1      -8.690  10.474  68.026  1.00  0.00    -0.128 A  
HETATM   11  C   UNL     1     -10.419   9.606  69.452  1.00  0.00    -0.236 A  
HETATM   12  C   UNL     1      -9.216   9.428  68.777  1.00  0.00    -0.132 A  
HETATM   13  C   UNL     1      -9.388  11.683  67.919  1.00  0.00    -0.174 A  
HETATM   14  C   UNL     1     -11.108  10.822  69.374  1.00  0.00    -0.268 A  
BRANCH  14  15
HETATM   15  O   UNL     1     -12.266  10.842  70.114  1.00  0.00    -0.300 OA 
BRANCH  15  16
HETATM   16  C   UNL     1     -12.208  10.167  71.372  1.00  0.00    -0.397 C  
HETATM   17  C   UNL     1     -13.562  10.309  72.049  1.00  0.00    -0.287 C  
ENDBRANCH  15  16
ENDBRANCH  14  15
ENDBRANCH   8   9
ENDBRANCH   1   8
BRANCH   1  18
HETATM   18  C   UNL     1     -11.210  15.194  67.533  1.00  0.00    -0.330 C  
HETATM   19  N   UNL     1      -9.761  14.107  65.744  1.00  0.00    -0.498 NA 
HETATM   20  O   UNL     1     -12.388  14.771  66.804  1.00  0.00    -0.144 OA 
HETATM   21  H   UNL     1      -9.319  13.371  66.296  1.00  0.00     0.000 HD 
HETATM   22  C   UNL     1     -11.008  13.653  65.109  1.00  0.00    -0.330 C  
HETATM   23  C   UNL     1     -10.028  15.320  66.541  1.00  0.00    -0.265 C  
HETATM   24  C   UNL     1     -12.190  13.551  66.084  1.00  0.00    -0.433 C  
ENDBRANCH   1  18
TORSDOF 6
ENDMDL
MODEL       93
REMARK 921   NORMALIZED FREE ENERGY PREDICTED BY IDOCK:   -4.59 KCAL/MOL
REMARK 922        TOTAL FREE ENERGY PREDICTED BY IDOCK:   -7.33 KCAL/MOL
REMARK 923 INTER-LIGAND FREE ENERGY PREDICTED BY IDOCK:   -6.30 KCAL/MOL
REMARK 924 INTRA-LIGAND FREE ENERGY PREDICTED BY IDOCK:   -1.03 KCAL/MOL
REMARK 927      BINDING AFFINITY PREDICTED BY RF-SCORE:    0.00 PKD
ROOT
HETATM    1  C   UNL     1     -10.694  13.236  66.888  1.00  0.00    -0.271 C  
ENDROOT
BRANCH   1   2
HETATM    2  C   UNL     1     -10.827  14.103  68.132  1.00  0.00    -0.258 A  
HETATM    3  C   UNL     1     -11.938  14.605  70.238  1.00  0.00    -0.370 A  
HETATM    4  C   UNL     1     -10.142  15.327  68.236  1.00  0.00    -0.225 A  
HETATM    5  C   UNL     1     -10.375  16.187  69.307  1.00  0.00    -0.265 A  
HETATM    6  C   UNL     1     -11.282  15.833  70.304  1.00  0.00    -0.377 A  
HETATM    7  C   UNL     1     -11.711  13.744  69.161  1.00  0.00    -0.379 A  
ENDBRANCH   1   2
BRANCH   1   8
HETATM    8  O   UNL     1     -10.108  11.984  67.308  1.00  0.00    -0.193 OA 
BRANCH   8   9
HETATM    9  C   UNL     1      -8.761  11.766  67.260  1.00  0.00    -0.163 A  
HETATM   10  C   UNL     1      -6.445  12.247  67.839  1.00  0.00    -0.088 A  
HETATM   11  C   UNL     1      -6.930  10.611  66.147  1.00  0.00    -0.135 A  
HETATM   12  C   UNL     1      -6.002  11.338  66.885  1.00  0.00    -0.116 A  
HETATM   13  C   UNL     1      -7.816  12.458  68.025  1.00  0.00    -0.141 A  
HETATM   14  C   UNL     1      -8.304  10.794  66.349  1.00  0.00    -0.153 A  
BRANCH  14  15
HETATM   15  O   UNL     1      -9.084   9.986  65.558  1.00  0.00    -0.163 OA 
BRANCH  15  16
HETATM   16  C   UNL     1      -8.737   8.600  65.556  1.00  0.00    -0.186 C  
HETATM   17  C   UNL     1      -9.210   7.990  66.865  1.00  0.00    -0.191 C  
ENDBRANCH  15  16
ENDBRANCH  14  15
ENDBRANCH   8   9
ENDBRANCH   1   8
BRANCH   1  18
HETATM   18  C   UNL     1     -12.043  12.881  66.192  1.00  0.00    -0.393 C  
HETATM   19  N   UNL     1     -11.998  14.372  64.128  1.00  0.00    -0.664 NA 
HETATM   20  O   UNL     1     -11.914  11.723  65.331  1.00  0.00    -0.294 OA 
HETATM   21  H   UNL     1     -11.126  14.875  64.293  1.00  0.00     0.000 HD 
HETATM   22  C   UNL     1     -11.792  13.149  63.336  1.00  0.00    -0.427 C  
HETATM   23  C   UNL     1     -12.693  14.032  65.386  1.00  0.00    -0.471 C  
HETATM   24  C   UNL     1     -11.173  11.996  64.139  1.00  0.00    -0.373 C  
ENDBRANCH   1  18
TORSDOF 6
ENDMDL
MODEL       94
REMARK 921   NORMALIZED FREE ENERGY PREDICTED BY IDOCK:   -4.59 KCAL/MOL
REMARK 922        TOTAL FREE ENERGY PREDICTED BY IDOCK:   -7.33 KCAL/MOL
REMARK 923 INTER-LIGAND FREE ENERGY PREDICTED BY IDOCK:   -5.69 KCAL/MOL
REMARK 924 INTRA-LIGAND FREE ENERGY PREDICTED BY IDOCK:   -1.64 KCAL/MOL
REMARK 927      BINDING AFFINITY PREDICTED BY RF-SCORE:    0.00 PKD
ROOT
HETATM    1  C   UNL     1     -10.686   8.682  69.970  1.00  0.00    -0.228 C  
ENDROOT
BRANCH   1   2
HETATM    2  C   UNL     1     -10.230   9.807  69.051  1.00  0.00    -0.214 A  
HETATM    3  C   UNL     1     -10.550  11.144  67.044  1.00  0.00    -0.295 A  
HETATM    4  C   UNL     1      -8.965  10.399  69.209  1.00  0.00    -0.176 A  
HETATM    5  C   UNL     1      -8.490  11.326  68.282  1.00  0.00    -0.152 A  
HETATM    6  C   UNL     1      -9.277  11.692  67.192  1.00  0.00    -0.176 A  
HETATM    7  C   UNL     1     -11.025  10.210  67.968  1.00  0.00    -0.326 A  
ENDBRANCH   1   2
BRANCH   1   8
HETATM    8  O   UNL     1      -9.539   7.835  70.200  1.00  0.00    -0.168 OA 
BRANCH   8   9
HETATM    9  C   UNL     1      -9.509   6.532  69.792  1.00  0.00    -0.150 A  
HETATM   10  C   UNL     1      -9.831   4.138  70.097  1.00  0.00    -0.242 A  
HETATM   11  C   UNL     1      -8.729   4.945  68.120  1.00  0.00    -0.108 A  
HETATM   12  C   UNL     1      -9.180   3.881  68.896  1.00  0.00    -0.215 A  
HETATM   13  C   UNL     1      -9.996   5.455  70.541  1.00  0.00    -0.288 A  
HETATM   14  C   UNL     1      -8.917   6.267  68.543  1.00  0.00    -0.123 A  
BRANCH  14  15
HETATM   15  O   UNL     1      -8.435   7.197  67.654  1.00  0.00    -0.119 OA 
BRANCH  15  16
HETATM   16  C   UNL     1      -9.190   7.354  66.451  1.00  0.00    -0.159 C  
HETATM   17  C   UNL     1      -8.425   8.291  65.531  1.00  0.00    -0.177 C  
ENDBRANCH  15  16
ENDBRANCH  14  15
ENDBRANCH   8   9
ENDBRANCH   1   8
BRANCH   1  18
HETATM   18  C   UNL     1     -11.182   9.145  71.373  1.00  0.00    -0.349 C  
HETATM   19  N   UNL     1     -13.626   9.703  70.928  1.00  0.00    -0.551 NA 
HETATM   20  O   UNL     1     -11.609   8.025  72.187  1.00  0.00    -0.297 OA 
HETATM   21  H   UNL     1     -13.666   9.534  69.922  1.00  0.00     0.000 HD 
HETATM   22  C   UNL     1     -13.969   8.504  71.707  1.00  0.00    -0.431 C  
HETATM   23  C   UNL     1     -12.307  10.208  71.357  1.00  0.00    -0.416 C  
HETATM   24  C   UNL     1     -12.846   7.457  71.748  1.00  0.00    -0.329 C  
ENDBRANCH   1  18
TORSDOF 6
ENDMDL
MODEL       95
REMARK 921   NORMALIZED FREE ENERGY PREDICTED BY IDOCK:   -4.59 KCAL/MOL
REMARK 922        TOTAL FREE ENERGY PREDICTED BY IDOCK:   -7.32 KCAL/MOL
REMARK 923 INTER-LIGAND FREE ENERGY PREDICTED BY IDOCK:   -6.50 KCAL/MOL
REMARK 924 INTRA-LIGAND FREE ENERGY PREDICTED BY IDOCK:   -0.82 KCAL/MOL
REMARK 927      BINDING AFFINITY PREDICTED BY RF-SCORE:    0.00 PKD
ROOT
HETATM    1  C   UNL     1     -10.136   8.124  68.409  1.00  0.00    -0.200 C  
ENDROOT
BRANCH   1   2
HETATM    2  C   UNL     1     -10.039   9.215  67.351  1.00  0.00    -0.289 A  
HETATM    3  C   UNL     1     -10.916  11.244  66.334  1.00  0.00    -0.285 A  
HETATM    4  C   UNL     1      -9.142   9.098  66.274  1.00  0.00    -0.222 A  
HETATM    5  C   UNL     1      -9.154  10.023  65.230  1.00  0.00    -0.243 A  
HETATM    6  C   UNL     1     -10.048  11.091  65.253  1.00  0.00    -0.332 A  
HETATM    7  C   UNL     1     -10.909  10.315  67.377  1.00  0.00    -0.336 A  
ENDBRANCH   1   2
BRANCH   1   8
HETATM    8  O   UNL     1     -10.745   8.722  69.574  1.00  0.00    -0.228 OA 
BRANCH   8   9
HETATM    9  C   UNL     1     -10.258   8.508  70.833  1.00  0.00    -0.200 A  
HETATM   10  C   UNL     1      -8.480   8.227  72.471  1.00  0.00    -0.251 A  
HETATM   11  C   UNL     1     -10.759   7.815  73.112  1.00  0.00    -0.414 A  
HETATM   12  C   UNL     1      -9.405   7.833  73.431  1.00  0.00    -0.346 A  
HETATM   13  C   UNL     1      -8.905   8.564  71.181  1.00  0.00    -0.223 A  
HETATM   14  C   UNL     1     -11.195   8.179  71.831  1.00  0.00    -0.290 A  
BRANCH  14  15
HETATM   15  O   UNL     1     -12.560   8.128  71.685  1.00  0.00    -0.304 OA 
BRANCH  15  16
HETATM   16  C   UNL     1     -13.299   9.102  72.425  1.00  0.00    -0.463 C  
HETATM   17  C   UNL     1     -12.948  10.477  71.882  1.00  0.00    -0.553 C  
ENDBRANCH  15  16
ENDBRANCH  14  15
ENDBRANCH   8   9
ENDBRANCH   1   8
BRANCH   1  18
HETATM   18  C   UNL     1     -11.032   6.911  68.015  1.00  0.00    -0.166 C  
HETATM   19  N   UNL     1      -9.337   5.282  67.034  1.00  0.00    -0.119 NA 
HETATM   20  O   UNL     1     -11.226   6.005  69.128  1.00  0.00    -0.378 OA 
HETATM   21  H   UNL     1      -8.492   5.850  67.094  1.00  0.00     0.000 HD 
HETATM   22  C   UNL     1      -9.539   4.458  68.236  1.00  0.00    -0.138 C  
HETATM   23  C   UNL     1     -10.542   6.100  66.790  1.00  0.00    -0.283 C  
HETATM   24  C   UNL     1     -10.050   5.254  69.446  1.00  0.00    -0.241 C  
ENDBRANCH   1  18
TORSDOF 6
ENDMDL
MODEL       96
REMARK 921   NORMALIZED FREE ENERGY PREDICTED BY IDOCK:   -4.57 KCAL/MOL
REMARK 922        TOTAL FREE ENERGY PREDICTED BY IDOCK:   -7.30 KCAL/MOL
REMARK 923 INTER-LIGAND FREE ENERGY PREDICTED BY IDOCK:   -6.01 KCAL/MOL
REMARK 924 INTRA-LIGAND FREE ENERGY PREDICTED BY IDOCK:   -1.29 KCAL/MOL
REMARK 927      BINDING AFFINITY PREDICTED BY RF-SCORE:    0.00 PKD
ROOT
HETATM    1  C   UNL     1      -9.551  11.239  65.310  1.00  0.00    -0.232 C  
ENDROOT
BRANCH   1   2
HETATM    2  C   UNL     1     -10.437  12.468  65.158  1.00  0.00    -0.320 A  
HETATM    3  C   UNL     1     -12.604  13.449  64.647  1.00  0.00    -0.322 A  
HETATM    4  C   UNL     1      -9.884  13.761  65.153  1.00  0.00    -0.125 A  
HETATM    5  C   UNL     1     -10.672  14.875  64.870  1.00  0.00    -0.426 A  
HETATM    6  C   UNL     1     -12.032  14.720  64.606  1.00  0.00    -0.448 A  
HETATM    7  C   UNL     1     -11.813  12.331  64.924  1.00  0.00    -0.417 A  
ENDBRANCH   1   2
BRANCH   1   8
HETATM    8  O   UNL     1     -10.055  10.495  66.440  1.00  0.00    -0.213 OA 
BRANCH   8   9
HETATM    9  C   UNL     1      -9.306  10.295  67.566  1.00  0.00    -0.148 A  
HETATM   10  C   UNL     1      -7.221   9.929  68.769  1.00  0.00    -0.076 A  
HETATM   11  C   UNL     1      -9.313   9.756  69.939  1.00  0.00    -0.262 A  
HETATM   12  C   UNL     1      -7.925   9.665  69.939  1.00  0.00    -0.174 A  
HETATM   13  C   UNL     1      -7.908  10.244  67.591  1.00  0.00    -0.098 A  
HETATM   14  C   UNL     1     -10.006  10.100  68.772  1.00  0.00    -0.179 A  
BRANCH  14  15
HETATM   15  O   UNL     1     -11.368  10.167  68.945  1.00  0.00    -0.204 OA 
BRANCH  15  16
HETATM   16  C   UNL     1     -11.827  11.163  69.860  1.00  0.00    -0.363 C  
HETATM   17  C   UNL     1     -11.856  12.498  69.133  1.00  0.00    -0.348 C  
ENDBRANCH  15  16
ENDBRANCH  14  15
ENDBRANCH   8   9
ENDBRANCH   1   8
BRANCH   1  18
HETATM   18  C   UNL     1      -9.572  10.265  64.094  1.00  0.00    -0.315 C  
HETATM   19  N   UNL     1      -8.188  11.524  62.366  1.00  0.00    -0.635 NA 
HETATM   20  O   UNL     1      -8.519   9.274  64.183  1.00  0.00    -0.173 OA 
HETATM   21  H   UNL     1      -8.003  12.384  62.881  1.00  0.00     0.000 HD 
HETATM   22  C   UNL     1      -7.138  10.514  62.575  1.00  0.00    -0.118 C  
HETATM   23  C   UNL     1      -9.503  10.943  62.704  1.00  0.00    -0.293 C  
HETATM   24  C   UNL     1      -7.219   9.820  63.942  1.00  0.00    -0.121 C  
ENDBRANCH   1  18
TORSDOF 6
ENDMDL
MODEL       97
REMARK 921   NORMALIZED FREE ENERGY PREDICTED BY IDOCK:   -4.57 KCAL/MOL
REMARK 922        TOTAL FREE ENERGY PREDICTED BY IDOCK:   -7.29 KCAL/MOL
REMARK 923 INTER-LIGAND FREE ENERGY PREDICTED BY IDOCK:   -5.87 KCAL/MOL
REMARK 924 INTRA-LIGAND FREE ENERGY PREDICTED BY IDOCK:   -1.42 KCAL/MOL
REMARK 927      BINDING AFFINITY PREDICTED BY RF-SCORE:    0.00 PKD
ROOT
HETATM    1  C   UNL     1      -9.326  12.650  67.440  1.00  0.00    -0.189 C  
ENDROOT
BRANCH   1   2
HETATM    2  C   UNL     1     -10.064  13.509  68.457  1.00  0.00    -0.215 A  
HETATM    3  C   UNL     1     -12.065  13.973  69.761  1.00  0.00    -0.405 A  
HETATM    4  C   UNL     1      -9.546  14.751  68.865  1.00  0.00    -0.210 A  
HETATM    5  C   UNL     1     -10.289  15.601  69.683  1.00  0.00    -0.287 A  
HETATM    6  C   UNL     1     -11.554  15.219  70.123  1.00  0.00    -0.328 A  
HETATM    7  C   UNL     1     -11.325  13.123  68.936  1.00  0.00    -0.335 A  
ENDBRANCH   1   2
BRANCH   1   8
HETATM    8  O   UNL     1      -9.426  13.325  66.167  1.00  0.00    -0.235 OA 
BRANCH   8   9
HETATM    9  C   UNL     1     -10.386  12.999  65.251  1.00  0.00    -0.304 A  
HETATM   10  C   UNL     1     -11.374  11.596  63.525  1.00  0.00    -0.447 A  
HETATM   11  C   UNL     1     -12.330  13.750  63.994  1.00  0.00    -0.370 A  
HETATM   12  C   UNL     1     -12.320  12.577  63.247  1.00  0.00    -0.473 A  
HETATM   13  C   UNL     1     -10.415  11.806  64.522  1.00  0.00    -0.352 A  
HETATM   14  C   UNL     1     -11.392  13.955  65.014  1.00  0.00    -0.334 A  
BRANCH  14  15
HETATM   15  O   UNL     1     -11.551  15.152  65.669  1.00  0.00    -0.259 OA 
BRANCH  15  16
HETATM   16  C   UNL     1     -10.919  16.280  65.061  1.00  0.00    -0.298 C  
HETATM   17  C   UNL     1      -9.935  16.868  66.059  1.00  0.00    -0.313 C  
ENDBRANCH  15  16
ENDBRANCH  14  15
ENDBRANCH   8   9
ENDBRANCH   1   8
BRANCH   1  18
HETATM   18  C   UNL     1      -7.804  12.466  67.724  1.00  0.00    -0.154 C  
HETATM   19  N   UNL     1      -7.777  10.410  69.227  1.00  0.00    -0.127 NA 
HETATM   20  O   UNL     1      -7.156  11.689  66.687  1.00  0.00    -0.115 OA 
HETATM   21  H   UNL     1      -8.779  10.243  69.315  1.00  0.00     0.000 HD 
HETATM   22  C   UNL     1      -7.190   9.677  68.095  1.00  0.00    -0.080 C  
HETATM   23  C   UNL     1      -7.460  11.847  69.101  1.00  0.00     0.066 C  
HETATM   24  C   UNL     1      -7.506  10.303  66.729  1.00  0.00    -0.107 C  
ENDBRANCH   1  18
TORSDOF 6
ENDMDL
MODEL       98
REMARK 921   NORMALIZED FREE ENERGY PREDICTED BY IDOCK:   -4.55 KCAL/MOL
REMARK 922        TOTAL FREE ENERGY PREDICTED BY IDOCK:   -7.28 KCAL/MOL
REMARK 923 INTER-LIGAND FREE ENERGY PREDICTED BY IDOCK:   -5.88 KCAL/MOL
REMARK 924 INTRA-LIGAND FREE ENERGY PREDICTED BY IDOCK:   -1.40 KCAL/MOL
REMARK 927      BINDING AFFINITY PREDICTED BY RF-SCORE:    0.00 PKD
ROOT
HETATM    1  C   UNL     1     -10.488   6.801  71.694  1.00  0.00    -0.209 C  
ENDROOT
BRANCH   1   2
HETATM    2  C   UNL     1     -11.764   7.628  71.771  1.00  0.00    -0.319 A  
HETATM    3  C   UNL     1     -14.183   7.789  71.565  1.00  0.00    -0.540 A  
HETATM    4  C   UNL     1     -11.710   9.028  71.884  1.00  0.00    -0.445 A  
HETATM    5  C   UNL     1     -12.871   9.797  71.809  1.00  0.00    -0.530 A  
HETATM    6  C   UNL     1     -14.108   9.179  71.638  1.00  0.00    -0.287 A  
HETATM    7  C   UNL     1     -13.019   7.018  71.634  1.00  0.00    -0.400 A  
ENDBRANCH   1   2
BRANCH   1   8
HETATM    8  O   UNL     1      -9.828   7.159  70.461  1.00  0.00    -0.180 OA 
BRANCH   8   9
HETATM    9  C   UNL     1     -10.115   6.535  69.280  1.00  0.00    -0.168 A  
HETATM   10  C   UNL     1     -10.149   4.629  67.766  1.00  0.00    -0.097 A  
HETATM   11  C   UNL     1     -10.790   6.799  66.957  1.00  0.00    -0.453 A  
HETATM   12  C   UNL     1     -10.560   5.448  66.720  1.00  0.00    -0.339 A  
HETATM   13  C   UNL     1      -9.930   5.169  69.038  1.00  0.00    -0.265 A  
HETATM   14  C   UNL     1     -10.602   7.342  68.234  1.00  0.00    -0.172 A  
BRANCH  14  15
HETATM   15  O   UNL     1     -10.892   8.683  68.305  1.00  0.00    -0.098 OA 
BRANCH  15  16
HETATM   16  C   UNL     1      -9.836   9.566  67.925  1.00  0.00    -0.156 C  
HETATM   17  C   UNL     1      -9.581  10.524  69.078  1.00  0.00    -0.213 C  
ENDBRANCH  15  16
ENDBRANCH  14  15
ENDBRANCH   8   9
ENDBRANCH   1   8
BRANCH   1  18
HETATM   18  C   UNL     1      -9.465   7.072  72.839  1.00  0.00    -0.146 C  
HETATM   19  N   UNL     1      -9.934   5.157  74.451  1.00  0.00    -0.198 NA 
HETATM   20  O   UNL     1      -8.172   6.483  72.552  1.00  0.00    -0.105 OA 
HETATM   21  H   UNL     1     -10.717   4.711  73.972  1.00  0.00     0.000 HD 
HETATM   22  C   UNL     1      -8.639   4.590  74.045  1.00  0.00    -0.105 C  
HETATM   23  C   UNL     1      -9.917   6.619  74.249  1.00  0.00    -0.345 C  
HETATM   24  C   UNL     1      -8.174   5.057  72.658  1.00  0.00    -0.112 C  
ENDBRANCH   1  18
TORSDOF 6
ENDMDL
MODEL       99
REMARK 921   NORMALIZED FREE ENERGY PREDICTED BY IDOCK:   -4.51 KCAL/MOL
REMARK 922        TOTAL FREE ENERGY PREDICTED BY IDOCK:   -7.22 KCAL/MOL
REMARK 923 INTER-LIGAND FREE ENERGY PREDICTED BY IDOCK:   -7.01 KCAL/MOL
REMARK 924 INTRA-LIGAND FREE ENERGY PREDICTED BY IDOCK:   -0.21 KCAL/MOL
REMARK 927      BINDING AFFINITY PREDICTED BY RF-SCORE:    0.00 PKD
ROOT
HETATM    1  C   UNL     1     -11.280  13.530  67.618  1.00  0.00    -0.279 C  
ENDROOT
BRANCH   1   2
HETATM    2  C   UNL     1     -10.749  12.368  66.790  1.00  0.00    -0.263 A  
HETATM    3  C   UNL     1     -10.662  11.151  64.686  1.00  0.00    -0.350 A  
HETATM    4  C   UNL     1     -10.050  11.310  67.397  1.00  0.00    -0.214 A  
HETATM    5  C   UNL     1      -9.690  10.178  66.666  1.00  0.00    -0.242 A  
HETATM    6  C   UNL     1     -10.006  10.092  65.312  1.00  0.00    -0.381 A  
HETATM    7  C   UNL     1     -11.029  12.282  65.419  1.00  0.00    -0.341 A  
ENDBRANCH   1   2
BRANCH   1   8
HETATM    8  O   UNL     1     -10.957  13.247  68.997  1.00  0.00    -0.247 OA 
BRANCH   8   9
HETATM    9  C   UNL     1     -11.919  13.169  69.963  1.00  0.00    -0.321 A  
HETATM   10  C   UNL     1     -13.472  14.112  71.584  1.00  0.00    -0.448 A  
HETATM   11  C   UNL     1     -13.117  11.736  71.524  1.00  0.00    -0.389 A  
HETATM   12  C   UNL     1     -13.728  12.846  72.098  1.00  0.00    -0.505 A  
HETATM   13  C   UNL     1     -12.574  14.272  70.522  1.00  0.00    -0.418 A  
HETATM   14  C   UNL     1     -12.240  11.885  70.442  1.00  0.00    -0.314 A  
BRANCH  14  15
HETATM   15  O   UNL     1     -11.739  10.692  69.978  1.00  0.00    -0.270 OA 
BRANCH  15  16
HETATM   16  C   UNL     1     -11.277   9.783  70.979  1.00  0.00    -0.381 C  
HETATM   17  C   UNL     1     -10.874   8.488  70.294  1.00  0.00    -0.249 C  
ENDBRANCH  15  16
ENDBRANCH  14  15
ENDBRANCH   8   9
ENDBRANCH   1   8
BRANCH   1  18
HETATM   18  C   UNL     1     -10.640  14.913  67.288  1.00  0.00    -0.272 C  
HETATM   19  N   UNL     1      -9.222  15.360  69.356  1.00  0.00    -0.281 NA 
HETATM   20  O   UNL     1      -9.425  14.770  66.513  1.00  0.00    -0.262 OA 
HETATM   21  H   UNL     1      -9.464  14.543  69.916  1.00  0.00     0.000 HD 
HETATM   22  C   UNL     1      -8.041  15.124  68.510  1.00  0.00    -0.145 C  
HETATM   23  C   UNL     1     -10.347  15.813  68.514  1.00  0.00    -0.229 C  
HETATM   24  C   UNL     1      -8.333  14.254  67.279  1.00  0.00    -0.204 C  
ENDBRANCH   1  18
TORSDOF 6
ENDMDL
MODEL      100
REMARK 921   NORMALIZED FREE ENERGY PREDICTED BY IDOCK:   -4.51 KCAL/MOL
REMARK 922        TOTAL FREE ENERGY PREDICTED BY IDOCK:   -7.21 KCAL/MOL
REMARK 923 INTER-LIGAND FREE ENERGY PREDICTED BY IDOCK:   -5.88 KCAL/MOL
REMARK 924 INTRA-LIGAND FREE ENERGY PREDICTED BY IDOCK:   -1.33 KCAL/MOL
REMARK 927      BINDING AFFINITY PREDICTED BY RF-SCORE:    0.00 PKD
ROOT
HETATM    1  C   UNL     1     -11.142   9.517  70.318  1.00  0.00    -0.271 C  
ENDROOT
BRANCH   1   2
HETATM    2  C   UNL     1     -11.312  10.770  69.471  1.00  0.00    -0.355 A  
HETATM    3  C   UNL     1     -11.863  13.134  69.299  1.00  0.00    -0.377 A  
HETATM    4  C   UNL     1     -11.312  10.699  68.067  1.00  0.00    -0.350 A  
HETATM    5  C   UNL     1     -11.612  11.819  67.294  1.00  0.00    -0.344 A  
HETATM    6  C   UNL     1     -11.899  13.036  67.909  1.00  0.00    -0.389 A  
HETATM    7  C   UNL     1     -11.569  12.010  70.075  1.00  0.00    -0.275 A  
ENDBRANCH   1   2
BRANCH   1   8
HETATM    8  O   UNL     1      -9.749   9.448  70.692  1.00  0.00    -0.248 OA 
BRANCH   8   9
HETATM    9  C   UNL     1      -8.860   8.653  70.025  1.00  0.00    -0.142 A  
HETATM   10  C   UNL     1      -7.770   6.535  69.524  1.00  0.00    -0.100 A  
HETATM   11  C   UNL     1      -6.922   8.564  68.555  1.00  0.00    -0.065 A  
HETATM   12  C   UNL     1      -6.828   7.188  68.736  1.00  0.00    -0.076 A  
HETATM   13  C   UNL     1      -8.780   7.263  70.163  1.00  0.00    -0.140 A  
HETATM   14  C   UNL     1      -7.947   9.296  69.167  1.00  0.00    -0.097 A  
BRANCH  14  15
HETATM   15  O   UNL     1      -7.911  10.637  68.871  1.00  0.00    -0.114 OA 
BRANCH  15  16
HETATM   16  C   UNL     1      -7.189  10.992  67.690  1.00  0.00    -0.093 C  
HETATM   17  C   UNL     1      -8.003  12.027  66.930  1.00  0.00    -0.112 C  
ENDBRANCH  15  16
ENDBRANCH  14  15
ENDBRANCH   8   9
ENDBRANCH   1   8
BRANCH   1  18
HETATM   18  C   UNL     1     -11.957   9.510  71.646  1.00  0.00    -0.401 C  
HETATM   19  N   UNL     1     -14.048   8.212  70.992  1.00  0.00    -0.622 NA 
HETATM   20  O   UNL     1     -11.570   8.411  72.506  1.00  0.00    -0.384 OA 
HETATM   21  H   UNL     1     -13.859   8.060  70.002  1.00  0.00     0.000 HD 
HETATM   22  C   UNL     1     -13.543   7.113  71.830  1.00  0.00    -0.263 C  
HETATM   23  C   UNL     1     -13.496   9.493  71.476  1.00  0.00    -0.368 C  
HETATM   24  C   UNL     1     -12.020   7.141  72.023  1.00  0.00    -0.295 C  
ENDBRANCH   1  18
TORSDOF 6
ENDMDL
MODEL      101
REMARK 921   NORMALIZED FREE ENERGY PREDICTED BY IDOCK:   -4.51 KCAL/MOL
REMARK 922        TOTAL FREE ENERGY PREDICTED BY IDOCK:   -7.21 KCAL/MOL
REMARK 923 INTER-LIGAND FREE ENERGY PREDICTED BY IDOCK:   -6.07 KCAL/MOL
REMARK 924 INTRA-LIGAND FREE ENERGY PREDICTED BY IDOCK:   -1.14 KCAL/MOL
REMARK 927      BINDING AFFINITY PREDICTED BY RF-SCORE:    0.00 PKD
ROOT
HETATM    1  C   UNL     1      -9.829   9.800  68.592  1.00  0.00    -0.157 C  
ENDROOT
BRANCH   1   2
HETATM    2  C   UNL     1      -9.939  11.265  68.192  1.00  0.00    -0.191 A  
HETATM    3  C   UNL     1     -11.299  13.161  67.504  1.00  0.00    -0.336 A  
HETATM    4  C   UNL     1      -8.790  12.025  67.910  1.00  0.00    -0.174 A  
HETATM    5  C   UNL     1      -8.896  13.320  67.405  1.00  0.00    -0.204 A  
HETATM    6  C   UNL     1     -10.151  13.886  67.191  1.00  0.00    -0.252 A  
HETATM    7  C   UNL     1     -11.195  11.861  68.004  1.00  0.00    -0.317 A  
ENDBRANCH   1   2
BRANCH   1   8
HETATM    8  O   UNL     1     -10.768   9.586  69.668  1.00  0.00    -0.223 OA 
BRANCH   8   9
HETATM    9  C   UNL     1     -10.382   9.063  70.870  1.00  0.00    -0.256 A  
HETATM   10  C   UNL     1      -8.738   8.352  72.519  1.00  0.00    -0.277 A  
HETATM   11  C   UNL     1     -11.062   7.852  72.869  1.00  0.00    -0.442 A  
HETATM   12  C   UNL     1      -9.738   7.760  73.283  1.00  0.00    -0.357 A  
HETATM   13  C   UNL     1      -9.059   9.001  71.321  1.00  0.00    -0.302 A  
HETATM   14  C   UNL     1     -11.395   8.525  71.686  1.00  0.00    -0.295 A  
BRANCH  14  15
HETATM   15  O   UNL     1     -12.745   8.544  71.431  1.00  0.00    -0.312 OA 
BRANCH  15  16
HETATM   16  C   UNL     1     -13.520   9.417  72.255  1.00  0.00    -0.465 C  
HETATM   17  C   UNL     1     -13.280  10.844  71.791  1.00  0.00    -0.513 C  
ENDBRANCH  15  16
ENDBRANCH  14  15
ENDBRANCH   8   9
ENDBRANCH   1   8
BRANCH   1  18
HETATM   18  C   UNL     1     -10.205   8.786  67.469  1.00  0.00    -0.246 C  
HETATM   19  N   UNL     1      -8.004   8.526  66.215  1.00  0.00    -0.100 NA 
HETATM   20  O   UNL     1     -10.083   7.416  67.922  1.00  0.00    -0.161 OA 
HETATM   21  H   UNL     1      -7.428   9.193  66.728  1.00  0.00     0.000 HD 
HETATM   22  C   UNL     1      -7.923   7.170  66.781  1.00  0.00    -0.108 C  
HETATM   23  C   UNL     1      -9.418   8.946  66.145  1.00  0.00    -0.251 C  
HETATM   24  C   UNL     1      -8.724   7.000  68.080  1.00  0.00    -0.126 C  
ENDBRANCH   1  18
TORSDOF 6
ENDMDL
MODEL      102
REMARK 921   NORMALIZED FREE ENERGY PREDICTED BY IDOCK:   -4.50 KCAL/MOL
REMARK 922        TOTAL FREE ENERGY PREDICTED BY IDOCK:   -7.20 KCAL/MOL
REMARK 923 INTER-LIGAND FREE ENERGY PREDICTED BY IDOCK:   -5.83 KCAL/MOL
REMARK 924 INTRA-LIGAND FREE ENERGY PREDICTED BY IDOCK:   -1.37 KCAL/MOL
REMARK 927      BINDING AFFINITY PREDICTED BY RF-SCORE:    0.00 PKD
ROOT
HETATM    1  C   UNL     1      -9.936  10.237  67.223  1.00  0.00    -0.190 C  
ENDROOT
BRANCH   1   2
HETATM    2  C   UNL     1     -10.303  11.714  67.285  1.00  0.00    -0.232 A  
HETATM    3  C   UNL     1      -9.855  13.960  68.105  1.00  0.00    -0.240 A  
HETATM    4  C   UNL     1     -11.536  12.173  66.788  1.00  0.00    -0.418 A  
HETATM    5  C   UNL     1     -11.933  13.496  66.973  1.00  0.00    -0.440 A  
HETATM    6  C   UNL     1     -11.098  14.389  67.642  1.00  0.00    -0.311 A  
HETATM    7  C   UNL     1      -9.459  12.633  67.925  1.00  0.00    -0.204 A  
ENDBRANCH   1   2
BRANCH   1   8
HETATM    8  O   UNL     1     -11.031   9.507  67.818  1.00  0.00    -0.244 OA 
BRANCH   8   9
HETATM    9  C   UNL     1     -10.825   8.518  68.737  1.00  0.00     0.043 A  
HETATM   10  C   UNL     1     -10.550   6.201  69.432  1.00  0.00    -0.349 A  
HETATM   11  C   UNL     1     -10.751   7.923  71.096  1.00  0.00    -0.251 A  
HETATM   12  C   UNL     1     -10.621   6.577  70.769  1.00  0.00    -0.278 A  
HETATM   13  C   UNL     1     -10.650   7.166  68.424  1.00  0.00    -0.223 A  
HETATM   14  C   UNL     1     -10.822   8.898  70.093  1.00  0.00    -0.231 A  
BRANCH  14  15
HETATM   15  O   UNL     1     -10.927  10.178  70.583  1.00  0.00    -0.308 OA 
BRANCH  15  16
HETATM   16  C   UNL     1     -12.252  10.707  70.651  1.00  0.00    -0.365 C  
HETATM   17  C   UNL     1     -12.163  12.222  70.551  1.00  0.00    -0.387 C  
ENDBRANCH  15  16
ENDBRANCH  14  15
ENDBRANCH   8   9
ENDBRANCH   1   8
BRANCH   1  18
HETATM   18  C   UNL     1      -9.757   9.669  65.783  1.00  0.00    -0.280 C  
HETATM   19  N   UNL     1      -7.575  10.753  65.041  1.00  0.00    -0.356 NA 
HETATM   20  O   UNL     1      -9.089   8.384  65.794  1.00  0.00    -0.185 OA 
HETATM   21  H   UNL     1      -7.381  11.336  65.855  1.00  0.00     0.000 HD 
HETATM   22  C   UNL     1      -6.957   9.422  65.152  1.00  0.00    -0.092 C  
HETATM   23  C   UNL     1      -9.022  10.605  64.791  1.00  0.00    -0.199 C  
HETATM   24  C   UNL     1      -7.698   8.482  66.114  1.00  0.00    -0.093 C  
ENDBRANCH   1  18
TORSDOF 6
ENDMDL
MODEL      103
REMARK 921   NORMALIZED FREE ENERGY PREDICTED BY IDOCK:   -4.49 KCAL/MOL
REMARK 922        TOTAL FREE ENERGY PREDICTED BY IDOCK:   -7.19 KCAL/MOL
REMARK 923 INTER-LIGAND FREE ENERGY PREDICTED BY IDOCK:   -6.31 KCAL/MOL
REMARK 924 INTRA-LIGAND FREE ENERGY PREDICTED BY IDOCK:   -0.87 KCAL/MOL
REMARK 927      BINDING AFFINITY PREDICTED BY RF-SCORE:    0.00 PKD
ROOT
HETATM    1  C   UNL     1     -11.379  10.073  70.133  1.00  0.00    -0.291 C  
ENDROOT
BRANCH   1   2
HETATM    2  C   UNL     1     -11.553  11.393  69.395  1.00  0.00    -0.391 A  
HETATM    3  C   UNL     1     -12.133  13.756  69.417  1.00  0.00    -0.377 A  
HETATM    4  C   UNL     1     -11.526  11.443  67.989  1.00  0.00    -0.377 A  
HETATM    5  C   UNL     1     -11.828  12.623  67.311  1.00  0.00    -0.395 A  
HETATM    6  C   UNL     1     -12.143  13.778  68.023  1.00  0.00    -0.315 A  
HETATM    7  C   UNL     1     -11.837  12.572  70.099  1.00  0.00    -0.336 A  
ENDBRANCH   1   2
BRANCH   1   8
HETATM    8  O   UNL     1      -9.969   9.924  70.403  1.00  0.00    -0.259 OA 
BRANCH   8   9
HETATM    9  C   UNL     1      -9.055   9.758  69.402  1.00  0.00    -0.201 A  
HETATM   10  C   UNL     1      -7.259  10.501  67.934  1.00  0.00    -0.084 A  
HETATM   11  C   UNL     1      -8.308   8.374  67.544  1.00  0.00    -0.129 A  
HETATM   12  C   UNL     1      -7.382   9.344  67.173  1.00  0.00    -0.087 A  
HETATM   13  C   UNL     1      -8.089  10.705  69.043  1.00  0.00    -0.148 A  
HETATM   14  C   UNL     1      -9.121   8.558  68.669  1.00  0.00    -0.139 A  
BRANCH  14  15
HETATM   15  O   UNL     1      -9.964   7.500  68.911  1.00  0.00    -0.160 OA 
BRANCH  15  16
HETATM   16  C   UNL     1      -9.342   6.313  69.408  1.00  0.00    -0.140 C  
HETATM   17  C   UNL     1     -10.410   5.240  69.545  1.00  0.00    -0.333 C  
ENDBRANCH  15  16
ENDBRANCH  14  15
ENDBRANCH   8   9
ENDBRANCH   1   8
BRANCH   1  18
HETATM   18  C   UNL     1     -12.104   9.995  71.510  1.00  0.00    -0.387 C  
HETATM   19  N   UNL     1     -14.112   8.519  70.984  1.00  0.00    -0.606 NA 
HETATM   20  O   UNL     1     -11.569   8.934  72.338  1.00  0.00    -0.324 OA 
HETATM   21  H   UNL     1     -13.974   8.384  69.983  1.00  0.00     0.000 HD 
HETATM   22  C   UNL     1     -13.460   7.469  71.782  1.00  0.00    -0.317 C  
HETATM   23  C   UNL     1     -13.644   9.844  71.438  1.00  0.00    -0.223 C  
HETATM   24  C   UNL     1     -11.936   7.630  71.878  1.00  0.00    -0.295 C  
ENDBRANCH   1  18
TORSDOF 6
ENDMDL
MODEL      104
REMARK 921   NORMALIZED FREE ENERGY PREDICTED BY IDOCK:   -4.48 KCAL/MOL
REMARK 922        TOTAL FREE ENERGY PREDICTED BY IDOCK:   -7.17 KCAL/MOL
REMARK 923 INTER-LIGAND FREE ENERGY PREDICTED BY IDOCK:   -6.67 KCAL/MOL
REMARK 924 INTRA-LIGAND FREE ENERGY PREDICTED BY IDOCK:   -0.50 KCAL/MOL
REMARK 927      BINDING AFFINITY PREDICTED BY RF-SCORE:    0.00 PKD
ROOT
HETATM    1  C   UNL     1      -9.674  12.477  67.809  1.00  0.00    -0.202 C  
ENDROOT
BRANCH   1   2
HETATM    2  C   UNL     1     -10.427  12.907  66.557  1.00  0.00    -0.275 A  
HETATM    3  C   UNL     1     -10.888  14.576  64.849  1.00  0.00    -0.436 A  
HETATM    4  C   UNL     1     -11.515  12.157  66.076  1.00  0.00    -0.427 A  
HETATM    5  C   UNL     1     -12.293  12.625  65.018  1.00  0.00    -0.561 A  
HETATM    6  C   UNL     1     -11.988  13.841  64.410  1.00  0.00    -0.480 A  
HETATM    7  C   UNL     1     -10.111  14.112  65.913  1.00  0.00    -0.337 A  
ENDBRANCH   1   2
BRANCH   1   8
HETATM    8  O   UNL     1     -10.406  11.371  68.380  1.00  0.00    -0.181 OA 
BRANCH   8   9
HETATM    9  C   UNL     1     -11.245  11.533  69.446  1.00  0.00    -0.259 A  
HETATM   10  C   UNL     1     -12.525  12.856  71.040  1.00  0.00    -0.374 A  
HETATM   11  C   UNL     1     -12.330  10.482  71.354  1.00  0.00    -0.477 A  
HETATM   12  C   UNL     1     -12.795  11.718  71.791  1.00  0.00    -0.403 A  
HETATM   13  C   UNL     1     -11.756  12.763  69.874  1.00  0.00    -0.321 A  
HETATM   14  C   UNL     1     -11.585  10.376  70.173  1.00  0.00    -0.312 A  
BRANCH  14  15
HETATM   15  O   UNL     1     -11.221   9.086  69.871  1.00  0.00    -0.195 OA 
BRANCH  15  16
HETATM   16  C   UNL     1     -11.675   8.085  70.783  1.00  0.00    -0.206 C  
HETATM   17  C   UNL     1     -10.985   6.776  70.432  1.00  0.00    -0.330 C  
ENDBRANCH  15  16
ENDBRANCH  14  15
ENDBRANCH   8   9
ENDBRANCH   1   8
BRANCH   1  18
HETATM   18  C   UNL     1      -8.224  11.964  67.555  1.00  0.00    -0.155 C  
HETATM   19  N   UNL     1      -7.765  10.580  69.643  1.00  0.00    -0.286 NA 
HETATM   20  O   UNL     1      -8.217  10.745  66.772  1.00  0.00    -0.126 OA 
HETATM   21  H   UNL     1      -8.630  10.746  70.158  1.00  0.00     0.000 HD 
HETATM   22  C   UNL     1      -7.849   9.387  68.785  1.00  0.00    -0.084 C  
HETATM   23  C   UNL     1      -7.369  11.745  68.827  1.00  0.00    -0.114 C  
HETATM   24  C   UNL     1      -8.674   9.607  67.509  1.00  0.00    -0.125 C  
ENDBRANCH   1  18
TORSDOF 6
ENDMDL
MODEL      105
REMARK 921   NORMALIZED FREE ENERGY PREDICTED BY IDOCK:   -4.47 KCAL/MOL
REMARK 922        TOTAL FREE ENERGY PREDICTED BY IDOCK:   -7.17 KCAL/MOL
REMARK 923 INTER-LIGAND FREE ENERGY PREDICTED BY IDOCK:   -5.68 KCAL/MOL
REMARK 924 INTRA-LIGAND FREE ENERGY PREDICTED BY IDOCK:   -1.49 KCAL/MOL
REMARK 927      BINDING AFFINITY PREDICTED BY RF-SCORE:    0.00 PKD
ROOT
HETATM    1  C   UNL     1      -9.819   6.715  68.062  1.00  0.00    -0.131 C  
ENDROOT
BRANCH   1   2
HETATM    2  C   UNL     1      -9.798   8.228  68.230  1.00  0.00    -0.192 A  
HETATM    3  C   UNL     1      -9.064  10.199  69.453  1.00  0.00    -0.217 A  
HETATM    4  C   UNL     1     -10.660   9.050  67.482  1.00  0.00    -0.306 A  
HETATM    5  C   UNL     1     -10.744  10.418  67.738  1.00  0.00    -0.327 A  
HETATM    6  C   UNL     1      -9.954  10.993  68.731  1.00  0.00    -0.215 A  
HETATM    7  C   UNL     1      -8.984   8.827  69.202  1.00  0.00    -0.137 A  
ENDBRANCH   1   2
BRANCH   1   8
HETATM    8  O   UNL     1     -10.936   6.222  68.834  1.00  0.00    -0.306 OA 
BRANCH   8   9
HETATM    9  C   UNL     1     -10.782   5.752  70.107  1.00  0.00    -0.320 A  
HETATM   10  C   UNL     1      -9.986   4.161  71.770  1.00  0.00    -0.246 A  
HETATM   11  C   UNL     1     -11.484   5.920  72.432  1.00  0.00    -0.358 A  
HETATM   12  C   UNL     1     -10.741   4.789  72.754  1.00  0.00    -0.282 A  
HETATM   13  C   UNL     1     -10.005   4.642  70.455  1.00  0.00    -0.295 A  
HETATM   14  C   UNL     1     -11.485   6.424  71.125  1.00  0.00    -0.323 A  
BRANCH  14  15
HETATM   15  O   UNL     1     -12.250   7.556  70.978  1.00  0.00    -0.309 OA 
BRANCH  15  16
HETATM   16  C   UNL     1     -11.883   8.663  71.804  1.00  0.00    -0.337 C  
HETATM   17  C   UNL     1     -12.379   9.937  71.137  1.00  0.00    -0.466 C  
ENDBRANCH  15  16
ENDBRANCH  14  15
ENDBRANCH   8   9
ENDBRANCH   1   8
BRANCH   1  18
HETATM   18  C   UNL     1     -10.042   6.224  66.599  1.00  0.00    -0.155 C  
HETATM   19  N   UNL     1      -7.734   5.357  65.961  1.00  0.00    -0.090 NA 
HETATM   20  O   UNL     1     -10.539   4.864  66.561  1.00  0.00    -0.280 OA 
HETATM   21  H   UNL     1      -7.217   5.594  66.808  1.00  0.00     0.000 HD 
HETATM   22  C   UNL     1      -8.304   4.002  66.019  1.00  0.00    -0.109 C  
HETATM   23  C   UNL     1      -8.807   6.330  65.672  1.00  0.00    -0.074 C  
HETATM   24  C   UNL     1      -9.546   3.898  66.917  1.00  0.00    -0.200 C  
ENDBRANCH   1  18
TORSDOF 6
ENDMDL
MODEL      106
REMARK 921   NORMALIZED FREE ENERGY PREDICTED BY IDOCK:   -4.47 KCAL/MOL
REMARK 922        TOTAL FREE ENERGY PREDICTED BY IDOCK:   -7.16 KCAL/MOL
REMARK 923 INTER-LIGAND FREE ENERGY PREDICTED BY IDOCK:   -6.90 KCAL/MOL
REMARK 924 INTRA-LIGAND FREE ENERGY PREDICTED BY IDOCK:   -0.26 KCAL/MOL
REMARK 927      BINDING AFFINITY PREDICTED BY RF-SCORE:    0.00 PKD
ROOT
HETATM    1  C   UNL     1     -10.946   9.768  71.164  1.00  0.00    -0.316 C  
ENDROOT
BRANCH   1   2
HETATM    2  C   UNL     1     -10.180   9.268  69.947  1.00  0.00    -0.235 A  
HETATM    3  C   UNL     1      -8.087   8.584  68.914  1.00  0.00    -0.119 A  
HETATM    4  C   UNL     1     -10.781   9.245  68.676  1.00  0.00    -0.180 A  
HETATM    5  C   UNL     1     -10.038   8.926  67.540  1.00  0.00    -0.285 A  
HETATM    6  C   UNL     1      -8.687   8.606  67.656  1.00  0.00    -0.136 A  
HETATM    7  C   UNL     1      -8.828   8.910  70.053  1.00  0.00    -0.165 A  
ENDBRANCH   1   2
BRANCH   1   8
HETATM    8  O   UNL     1     -12.161  10.377  70.676  1.00  0.00    -0.295 OA 
BRANCH   8   9
HETATM    9  C   UNL     1     -12.497  11.665  70.983  1.00  0.00    -0.334 A  
HETATM   10  C   UNL     1     -13.658  13.375  72.270  1.00  0.00    -0.703 A  
HETATM   11  C   UNL     1     -12.471  13.993  70.274  1.00  0.00    -0.403 A  
HETATM   12  C   UNL     1     -13.275  14.347  71.352  1.00  0.00    -0.418 A  
HETATM   13  C   UNL     1     -13.270  12.043  72.086  1.00  0.00    -0.400 A  
HETATM   14  C   UNL     1     -12.053  12.668  70.100  1.00  0.00    -0.294 A  
BRANCH  14  15
HETATM   15  O   UNL     1     -11.247  12.490  69.001  1.00  0.00    -0.252 OA 
BRANCH  15  16
HETATM   16  C   UNL     1     -11.584  13.271  67.853  1.00  0.00    -0.334 C  
HETATM   17  C   UNL     1     -11.832  12.324  66.691  1.00  0.00    -0.362 C  
ENDBRANCH  15  16
ENDBRANCH  14  15
ENDBRANCH   8   9
ENDBRANCH   1   8
BRANCH   1  18
HETATM   18  C   UNL     1     -11.382   8.654  72.164  1.00  0.00    -0.364 C  
HETATM   19  N   UNL     1     -13.805   8.243  71.497  1.00  0.00    -0.510 NA 
HETATM   20  O   UNL     1     -11.046   7.333  71.674  1.00  0.00    -0.230 OA 
HETATM   21  H   UNL     1     -13.910   8.949  70.769  1.00  0.00     0.000 HD 
HETATM   22  C   UNL     1     -13.362   6.948  70.955  1.00  0.00     0.099 C  
HETATM   23  C   UNL     1     -12.878   8.673  72.563  1.00  0.00    -0.292 C  
HETATM   24  C   UNL     1     -11.872   6.917  70.584  1.00  0.00    -0.368 C  
ENDBRANCH   1  18
TORSDOF 6
ENDMDL
MODEL      107
REMARK 921   NORMALIZED FREE ENERGY PREDICTED BY IDOCK:   -4.44 KCAL/MOL
REMARK 922        TOTAL FREE ENERGY PREDICTED BY IDOCK:   -7.12 KCAL/MOL
REMARK 923 INTER-LIGAND FREE ENERGY PREDICTED BY IDOCK:   -6.09 KCAL/MOL
REMARK 924 INTRA-LIGAND FREE ENERGY PREDICTED BY IDOCK:   -1.03 KCAL/MOL
REMARK 927      BINDING AFFINITY PREDICTED BY RF-SCORE:    0.00 PKD
ROOT
HETATM    1  C   UNL     1     -10.040  11.301  66.238  1.00  0.00    -0.230 C  
ENDROOT
BRANCH   1   2
HETATM    2  C   UNL     1     -10.486  12.722  66.551  1.00  0.00    -0.276 A  
HETATM    3  C   UNL     1     -10.016  15.108  66.619  1.00  0.00    -0.261 A  
HETATM    4  C   UNL     1     -11.669  12.965  67.271  1.00  0.00    -0.431 A  
HETATM    5  C   UNL     1     -12.003  14.254  67.683  1.00  0.00    -0.400 A  
HETATM    6  C   UNL     1     -11.171  15.327  67.367  1.00  0.00    -0.311 A  
HETATM    7  C   UNL     1      -9.676  13.816  66.211  1.00  0.00    -0.297 A  
ENDBRANCH   1   2
BRANCH   1   8
HETATM    8  O   UNL     1     -10.544  10.458  67.297  1.00  0.00    -0.235 OA 
BRANCH   8   9
HETATM    9  C   UNL     1      -9.710   9.818  68.170  1.00  0.00    -0.145 A  
HETATM   10  C   UNL     1      -7.853   8.353  68.744  1.00  0.00    -0.115 A  
HETATM   11  C   UNL     1      -9.301   9.168  70.480  1.00  0.00    -0.287 A  
HETATM   12  C   UNL     1      -8.219   8.389  70.085  1.00  0.00    -0.117 A  
HETATM   13  C   UNL     1      -8.593   9.065  67.794  1.00  0.00    -0.121 A  
HETATM   14  C   UNL     1     -10.029   9.907  69.539  1.00  0.00    -0.222 A  
BRANCH  14  15
HETATM   15  O   UNL     1     -11.051  10.640  70.093  1.00  0.00    -0.288 OA 
BRANCH  15  16
HETATM   16  C   UNL     1     -11.608  10.113  71.298  1.00  0.00    -0.306 C  
HETATM   17  C   UNL     1     -13.114  10.010  71.121  1.00  0.00    -0.472 C  
ENDBRANCH  15  16
ENDBRANCH  14  15
ENDBRANCH   8   9
ENDBRANCH   1   8
BRANCH   1  18
HETATM   18  C   UNL     1     -10.601  10.719  64.905  1.00  0.00    -0.188 C  
HETATM   19  N   UNL     1      -9.348  12.075  63.151  1.00  0.00    -0.651 NA 
HETATM   20  O   UNL     1      -9.871   9.541  64.485  1.00  0.00     0.036 OA 
HETATM   21  H   UNL     1      -8.822  12.704  63.757  1.00  0.00     0.000 HD 
HETATM   22  C   UNL     1      -8.598  10.847  62.840  1.00  0.00    -0.163 C  
HETATM   23  C   UNL     1     -10.661  11.717  63.723  1.00  0.00    -0.419 C  
HETATM   24  C   UNL     1      -8.559   9.843  64.001  1.00  0.00    -0.190 C  
ENDBRANCH   1  18
TORSDOF 6
ENDMDL
MODEL      108
REMARK 921   NORMALIZED FREE ENERGY PREDICTED BY IDOCK:   -4.44 KCAL/MOL
REMARK 922        TOTAL FREE ENERGY PREDICTED BY IDOCK:   -7.12 KCAL/MOL
REMARK 923 INTER-LIGAND FREE ENERGY PREDICTED BY IDOCK:   -6.80 KCAL/MOL
REMARK 924 INTRA-LIGAND FREE ENERGY PREDICTED BY IDOCK:   -0.32 KCAL/MOL
REMARK 927      BINDING AFFINITY PREDICTED BY RF-SCORE:    0.00 PKD
ROOT
HETATM    1  C   UNL     1      -9.659  13.607  66.683  1.00  0.00    -0.283 C  
ENDROOT
BRANCH   1   2
HETATM    2  C   UNL     1     -10.641  13.277  65.567  1.00  0.00    -0.295 A  
HETATM    3  C   UNL     1     -11.308  11.866  63.701  1.00  0.00    -0.536 A  
HETATM    4  C   UNL     1     -11.654  14.182  65.207  1.00  0.00    -0.341 A  
HETATM    5  C   UNL     1     -12.461  13.946  64.094  1.00  0.00    -0.286 A  
HETATM    6  C   UNL     1     -12.281  12.793  63.333  1.00  0.00    -0.594 A  
HETATM    7  C   UNL     1     -10.495  12.104  64.812  1.00  0.00    -0.332 A  
ENDBRANCH   1   2
BRANCH   1   8
HETATM    8  O   UNL     1      -9.474  15.039  66.670  1.00  0.00    -0.236 OA 
BRANCH   8   9
HETATM    9  C   UNL     1      -8.389  15.633  67.251  1.00  0.00    -0.184 A  
HETATM   10  C   UNL     1      -6.039  15.759  67.877  1.00  0.00    -0.159 A  
HETATM   11  C   UNL     1      -7.588  17.379  68.746  1.00  0.00    -0.252 A  
HETATM   12  C   UNL     1      -6.298  16.862  68.684  1.00  0.00    -0.161 A  
HETATM   13  C   UNL     1      -7.079  15.150  67.164  1.00  0.00    -0.043 A  
HETATM   14  C   UNL     1      -8.627  16.793  68.012  1.00  0.00    -0.210 A  
BRANCH  14  15
HETATM   15  O   UNL     1      -9.832  17.435  68.166  1.00  0.00    -0.275 OA 
BRANCH  15  16
HETATM   16  C   UNL     1     -10.070  18.528  67.277  1.00  0.00    -0.352 C  
HETATM   17  C   UNL     1     -10.080  19.810  68.093  1.00  0.00    -0.574 C  
ENDBRANCH  15  16
ENDBRANCH  14  15
ENDBRANCH   8   9
ENDBRANCH   1   8
BRANCH   1  18
HETATM   18  C   UNL     1     -10.150  13.238  68.116  1.00  0.00    -0.241 C  
HETATM   19  N   UNL     1     -11.863  11.413  67.647  1.00  0.00    -0.636 NA 
HETATM   20  O   UNL     1      -9.296  12.246  68.735  1.00  0.00    -0.058 OA 
HETATM   21  H   UNL     1     -11.843  11.409  66.627  1.00  0.00     0.000 HD 
HETATM   22  C   UNL     1     -10.903  10.460  68.225  1.00  0.00    -0.254 C  
HETATM   23  C   UNL     1     -11.619  12.757  68.206  1.00  0.00    -0.334 C  
HETATM   24  C   UNL     1      -9.446  10.944  68.161  1.00  0.00    -0.165 C  
ENDBRANCH   1  18
TORSDOF 6
ENDMDL
MODEL      109
REMARK 921   NORMALIZED FREE ENERGY PREDICTED BY IDOCK:   -4.43 KCAL/MOL
REMARK 922        TOTAL FREE ENERGY PREDICTED BY IDOCK:   -7.11 KCAL/MOL
REMARK 923 INTER-LIGAND FREE ENERGY PREDICTED BY IDOCK:   -6.61 KCAL/MOL
REMARK 924 INTRA-LIGAND FREE ENERGY PREDICTED BY IDOCK:   -0.50 KCAL/MOL
REMARK 927      BINDING AFFINITY PREDICTED BY RF-SCORE:    0.00 PKD
ROOT
HETATM    1  C   UNL     1     -10.107  11.449  68.558  1.00  0.00    -0.206 C  
ENDROOT
BRANCH   1   2
HETATM    2  C   UNL     1     -10.986  12.116  67.509  1.00  0.00    -0.304 A  
HETATM    3  C   UNL     1     -11.952  12.134  65.276  1.00  0.00    -0.313 A  
HETATM    4  C   UNL     1     -11.461  13.427  67.692  1.00  0.00    -0.353 A  
HETATM    5  C   UNL     1     -12.143  14.089  66.673  1.00  0.00    -0.487 A  
HETATM    6  C   UNL     1     -12.380  13.447  65.458  1.00  0.00    -0.528 A  
HETATM    7  C   UNL     1     -11.262  11.471  66.294  1.00  0.00    -0.286 A  
ENDBRANCH   1   2
BRANCH   1   8
HETATM    8  O   UNL     1     -10.650  10.131  68.785  1.00  0.00    -0.193 OA 
BRANCH   8   9
HETATM    9  C   UNL     1     -11.474   9.862  69.841  1.00  0.00    -0.179 A  
HETATM   10  C   UNL     1     -13.152  10.440  71.508  1.00  0.00    -0.532 A  
HETATM   11  C   UNL     1     -12.043   8.311  71.629  1.00  0.00    -0.346 A  
HETATM   12  C   UNL     1     -12.948   9.226  72.156  1.00  0.00    -0.503 A  
HETATM   13  C   UNL     1     -12.420  10.754  70.357  1.00  0.00    -0.430 A  
HETATM   14  C   UNL     1     -11.329   8.606  70.461  1.00  0.00    -0.218 A  
BRANCH  14  15
HETATM   15  O   UNL     1     -10.494   7.591  70.061  1.00  0.00    -0.217 OA 
BRANCH  15  16
HETATM   16  C   UNL     1     -11.138   6.384  69.650  1.00  0.00    -0.401 C  
HETATM   17  C   UNL     1     -11.065   6.299  68.134  1.00  0.00    -0.364 C  
ENDBRANCH  15  16
ENDBRANCH  14  15
ENDBRANCH   8   9
ENDBRANCH   1   8
BRANCH   1  18
HETATM   18  C   UNL     1      -8.621  11.248  68.131  1.00  0.00    -0.150 C  
HETATM   19  N   UNL     1      -7.952   9.180  69.459  1.00  0.00    -0.093 NA 
HETATM   20  O   UNL     1      -8.514  10.472  66.912  1.00  0.00    -0.124 OA 
HETATM   21  H   UNL     1      -8.811   9.023  69.986  1.00  0.00     0.000 HD 
HETATM   22  C   UNL     1      -7.940   8.450  68.182  1.00  0.00    -0.119 C  
HETATM   23  C   UNL     1      -7.706  10.614  69.208  1.00  0.00    -0.142 C  
HETATM   24  C   UNL     1      -8.826   9.090  67.103  1.00  0.00    -0.119 C  
ENDBRANCH   1  18
TORSDOF 6
ENDMDL
MODEL      110
REMARK 921   NORMALIZED FREE ENERGY PREDICTED BY IDOCK:   -4.42 KCAL/MOL
REMARK 922        TOTAL FREE ENERGY PREDICTED BY IDOCK:   -7.09 KCAL/MOL
REMARK 923 INTER-LIGAND FREE ENERGY PREDICTED BY IDOCK:   -6.65 KCAL/MOL
REMARK 924 INTRA-LIGAND FREE ENERGY PREDICTED BY IDOCK:   -0.44 KCAL/MOL
REMARK 927      BINDING AFFINITY PREDICTED BY RF-SCORE:    0.00 PKD
ROOT
HETATM    1  C   UNL     1     -10.056  13.310  66.010  1.00  0.00    -0.299 C  
ENDROOT
BRANCH   1   2
HETATM    2  C   UNL     1      -9.593  14.530  66.794  1.00  0.00    -0.274 A  
HETATM    3  C   UNL     1      -7.852  15.704  68.024  1.00  0.00    -0.135 A  
HETATM    4  C   UNL     1     -10.511  15.504  67.222  1.00  0.00    -0.279 A  
HETATM    5  C   UNL     1     -10.112  16.544  68.061  1.00  0.00    -0.255 A  
HETATM    6  C   UNL     1      -8.784  16.639  68.472  1.00  0.00    -0.242 A  
HETATM    7  C   UNL     1      -8.253  14.658  67.188  1.00  0.00    -0.227 A  
ENDBRANCH   1   2
BRANCH   1   8
HETATM    8  O   UNL     1     -11.201  12.772  66.706  1.00  0.00    -0.271 OA 
BRANCH   8   9
HETATM    9  C   UNL     1     -11.085  11.749  67.605  1.00  0.00    -0.252 A  
HETATM   10  C   UNL     1     -10.922   9.404  68.239  1.00  0.00    -0.085 A  
HETATM   11  C   UNL     1     -11.189  11.079  69.942  1.00  0.00    -0.327 A  
HETATM   12  C   UNL     1     -11.074   9.741  69.580  1.00  0.00    -0.251 A  
HETATM   13  C   UNL     1     -10.926  10.403  67.259  1.00  0.00    -0.306 A  
HETATM   14  C   UNL     1     -11.164  12.086  68.970  1.00  0.00    -0.258 A  
BRANCH  14  15
HETATM   15  O   UNL     1     -11.268  13.352  69.493  1.00  0.00    -0.214 OA 
BRANCH  15  16
HETATM   16  C   UNL     1     -12.442  13.610  70.265  1.00  0.00    -0.265 C  
HETATM   17  C   UNL     1     -12.443  15.080  70.652  1.00  0.00    -0.422 C  
ENDBRANCH  15  16
ENDBRANCH  14  15
ENDBRANCH   8   9
ENDBRANCH   1   8
BRANCH   1  18
HETATM   18  C   UNL     1     -10.525  13.609  64.554  1.00  0.00    -0.390 C  
HETATM   19  N   UNL     1     -11.493  11.369  63.824  1.00  0.00    -0.513 NA 
HETATM   20  O   UNL     1     -11.861  14.170  64.526  1.00  0.00    -0.397 OA 
HETATM   21  H   UNL     1     -11.286  10.810  64.652  1.00  0.00     0.000 HD 
HETATM   22  C   UNL     1     -12.820  11.999  63.895  1.00  0.00    -0.284 C  
HETATM   23  C   UNL     1     -10.469  12.406  63.582  1.00  0.00    -0.426 C  
HETATM   24  C   UNL     1     -12.874  13.210  64.838  1.00  0.00    -0.280 C  
ENDBRANCH   1  18
TORSDOF 6
ENDMDL
MODEL      111
REMARK 921   NORMALIZED FREE ENERGY PREDICTED BY IDOCK:   -4.39 KCAL/MOL
REMARK 922        TOTAL FREE ENERGY PREDICTED BY IDOCK:   -7.05 KCAL/MOL
REMARK 923 INTER-LIGAND FREE ENERGY PREDICTED BY IDOCK:   -6.54 KCAL/MOL
REMARK 924 INTRA-LIGAND FREE ENERGY PREDICTED BY IDOCK:   -0.51 KCAL/MOL
REMARK 927      BINDING AFFINITY PREDICTED BY RF-SCORE:    0.00 PKD
ROOT
HETATM    1  C   UNL     1     -10.075  10.103  67.870  1.00  0.00    -0.176 C  
ENDROOT
BRANCH   1   2
HETATM    2  C   UNL     1     -10.727   9.572  69.139  1.00  0.00    -0.228 A  
HETATM    3  C   UNL     1     -11.868   9.982  71.248  1.00  0.00    -0.471 A  
HETATM    4  C   UNL     1     -10.599   8.220  69.505  1.00  0.00    -0.216 A  
HETATM    5  C   UNL     1     -11.071   7.765  70.735  1.00  0.00    -0.265 A  
HETATM    6  C   UNL     1     -11.697   8.647  71.613  1.00  0.00    -0.380 A  
HETATM    7  C   UNL     1     -11.390  10.441  70.019  1.00  0.00    -0.384 A  
ENDBRANCH   1   2
BRANCH   1   8
HETATM    8  O   UNL     1     -10.105  11.545  67.953  1.00  0.00    -0.181 OA 
BRANCH   8   9
HETATM    9  C   UNL     1     -10.942  12.295  67.177  1.00  0.00    -0.262 A  
HETATM   10  C   UNL     1     -12.150  12.807  65.126  1.00  0.00    -0.498 A  
HETATM   11  C   UNL     1     -12.108  14.415  66.912  1.00  0.00    -0.386 A  
HETATM   12  C   UNL     1     -12.498  14.058  65.625  1.00  0.00    -0.531 A  
HETATM   13  C   UNL     1     -11.379  11.932  65.898  1.00  0.00    -0.365 A  
HETATM   14  C   UNL     1     -11.361  13.533  67.702  1.00  0.00    -0.296 A  
BRANCH  14  15
HETATM   15  O   UNL     1     -11.075  14.028  68.952  1.00  0.00    -0.250 OA 
BRANCH  15  16
HETATM   16  C   UNL     1     -12.183  14.118  69.850  1.00  0.00    -0.359 C  
HETATM   17  C   UNL     1     -11.675  14.660  71.176  1.00  0.00    -0.332 C  
ENDBRANCH  15  16
ENDBRANCH  14  15
ENDBRANCH   8   9
ENDBRANCH   1   8
BRANCH   1  18
HETATM   18  C   UNL     1      -8.579   9.703  67.688  1.00  0.00    -0.126 C  
HETATM   19  N   UNL     1      -7.751  11.441  66.022  1.00  0.00    -0.373 NA 
HETATM   20  O   UNL     1      -7.736  10.304  68.701  1.00  0.00    -0.086 OA 
HETATM   21  H   UNL     1      -8.621  11.943  65.843  1.00  0.00     0.000 HD 
HETATM   22  C   UNL     1      -6.984  12.034  67.129  1.00  0.00    -0.134 C  
HETATM   23  C   UNL     1      -7.979  10.008  66.294  1.00  0.00    -0.111 C  
HETATM   24  C   UNL     1      -7.560  11.712  68.515  1.00  0.00    -0.127 C  
ENDBRANCH   1  18
TORSDOF 6
ENDMDL
MODEL      112
REMARK 921   NORMALIZED FREE ENERGY PREDICTED BY IDOCK:   -4.38 KCAL/MOL
REMARK 922        TOTAL FREE ENERGY PREDICTED BY IDOCK:   -7.04 KCAL/MOL
REMARK 923 INTER-LIGAND FREE ENERGY PREDICTED BY IDOCK:   -5.89 KCAL/MOL
REMARK 924 INTRA-LIGAND FREE ENERGY PREDICTED BY IDOCK:   -1.16 KCAL/MOL
REMARK 927      BINDING AFFINITY PREDICTED BY RF-SCORE:    0.00 PKD
ROOT
HETATM    1  C   UNL     1     -10.612   8.786  69.897  1.00  0.00    -0.224 C  
ENDROOT
BRANCH   1   2
HETATM    2  C   UNL     1     -10.064   9.651  68.771  1.00  0.00    -0.193 A  
HETATM    3  C   UNL     1      -8.494  11.336  67.985  1.00  0.00    -0.138 A  
HETATM    4  C   UNL     1     -10.743   9.754  67.544  1.00  0.00    -0.327 A  
HETATM    5  C   UNL     1     -10.321  10.656  66.567  1.00  0.00    -0.299 A  
HETATM    6  C   UNL     1      -9.202  11.456  66.791  1.00  0.00    -0.185 A  
HETATM    7  C   UNL     1      -8.920  10.439  68.968  1.00  0.00    -0.184 A  
ENDBRANCH   1   2
BRANCH   1   8
HETATM    8  O   UNL     1      -9.540   7.916  70.319  1.00  0.00    -0.171 OA 
BRANCH   8   9
HETATM    9  C   UNL     1      -9.321   6.703  69.730  1.00  0.00    -0.145 A  
HETATM   10  C   UNL     1      -8.458   5.245  67.981  1.00  0.00    -0.097 A  
HETATM   11  C   UNL     1      -9.881   4.335  69.690  1.00  0.00    -0.244 A  
HETATM   12  C   UNL     1      -9.142   4.163  68.524  1.00  0.00    -0.182 A  
HETATM   13  C   UNL     1      -8.546   6.506  68.582  1.00  0.00    -0.124 A  
HETATM   14  C   UNL     1      -9.950   5.586  70.314  1.00  0.00    -0.216 A  
BRANCH  14  15
HETATM   15  O   UNL     1     -10.700   5.582  71.465  1.00  0.00    -0.243 OA 
BRANCH  15  16
HETATM   16  C   UNL     1     -10.380   4.559  72.409  1.00  0.00    -0.191 C  
HETATM   17  C   UNL     1     -10.694   5.083  73.801  1.00  0.00    -0.358 C  
ENDBRANCH  15  16
ENDBRANCH  14  15
ENDBRANCH   8   9
ENDBRANCH   1   8
BRANCH   1  18
HETATM   18  C   UNL     1     -11.067   9.574  71.163  1.00  0.00    -0.379 C  
HETATM   19  N   UNL     1     -13.523  10.027  70.667  1.00  0.00    -0.529 NA 
HETATM   20  O   UNL     1     -11.470   8.683  72.232  1.00  0.00    -0.365 OA 
HETATM   21  H   UNL     1     -13.592   9.624  69.733  1.00  0.00     0.000 HD 
HETATM   22  C   UNL     1     -13.843   9.050  71.719  1.00  0.00    -0.399 C  
HETATM   23  C   UNL     1     -12.192  10.611  70.927  1.00  0.00    -0.395 C  
HETATM   24  C   UNL     1     -12.719   8.036  71.976  1.00  0.00    -0.302 C  
ENDBRANCH   1  18
TORSDOF 6
ENDMDL
MODEL      113
REMARK 921   NORMALIZED FREE ENERGY PREDICTED BY IDOCK:   -4.34 KCAL/MOL
REMARK 922        TOTAL FREE ENERGY PREDICTED BY IDOCK:   -6.99 KCAL/MOL
REMARK 923 INTER-LIGAND FREE ENERGY PREDICTED BY IDOCK:   -7.25 KCAL/MOL
REMARK 924 INTRA-LIGAND FREE ENERGY PREDICTED BY IDOCK:    0.26 KCAL/MOL
REMARK 927      BINDING AFFINITY PREDICTED BY RF-SCORE:    0.00 PKD
ROOT
HETATM    1  C   UNL     1      -9.936  12.679  68.178  1.00  0.00    -0.225 C  
ENDROOT
BRANCH   1   2
HETATM    2  C   UNL     1     -10.948  12.108  69.162  1.00  0.00    -0.215 A  
HETATM    3  C   UNL     1     -12.650  12.451  70.867  1.00  0.00    -0.337 A  
HETATM    4  C   UNL     1     -10.970  10.734  69.459  1.00  0.00    -0.317 A  
HETATM    5  C   UNL     1     -11.796  10.233  70.464  1.00  0.00    -0.419 A  
HETATM    6  C   UNL     1     -12.630  11.092  71.177  1.00  0.00    -0.513 A  
HETATM    7  C   UNL     1     -11.818  12.956  69.865  1.00  0.00    -0.373 A  
ENDBRANCH   1   2
BRANCH   1   8
HETATM    8  O   UNL     1     -10.559  12.660  66.876  1.00  0.00    -0.238 OA 
BRANCH   8   9
HETATM    9  C   UNL     1     -10.225  11.735  65.929  1.00  0.00    -0.237 A  
HETATM   10  C   UNL     1      -9.291   9.616  65.175  1.00  0.00    -0.322 A  
HETATM   11  C   UNL     1      -9.943  11.268  63.556  1.00  0.00    -0.417 A  
HETATM   12  C   UNL     1      -9.390  10.026  63.850  1.00  0.00    -0.315 A  
HETATM   13  C   UNL     1      -9.707  10.465  66.207  1.00  0.00    -0.256 A  
HETATM   14  C   UNL     1     -10.390  12.111  64.582  1.00  0.00    -0.297 A  
BRANCH  14  15
HETATM   15  O   UNL     1     -10.929  13.289  64.124  1.00  0.00    -0.385 OA 
BRANCH  15  16
HETATM   16  C   UNL     1     -12.351  13.393  64.206  1.00  0.00    -0.335 C  
HETATM   17  C   UNL     1     -12.956  12.193  63.494  1.00  0.00    -0.315 C  
ENDBRANCH  15  16
ENDBRANCH  14  15
ENDBRANCH   8   9
ENDBRANCH   1   8
BRANCH   1  18
HETATM   18  C   UNL     1      -9.525  14.158  68.450  1.00  0.00    -0.214 C  
HETATM   19  N   UNL     1      -9.030  15.022  66.106  1.00  0.00    -0.485 NA 
HETATM   20  O   UNL     1     -10.677  15.034  68.506  1.00  0.00    -0.233 OA 
HETATM   21  H   UNL     1      -9.174  14.168  65.569  1.00  0.00     0.000 HD 
HETATM   22  C   UNL     1     -10.259  15.823  66.218  1.00  0.00    -0.303 C  
HETATM   23  C   UNL     1      -8.496  14.750  67.456  1.00  0.00    -0.192 C  
HETATM   24  C   UNL     1     -11.271  15.254  67.224  1.00  0.00    -0.306 C  
ENDBRANCH   1  18
TORSDOF 6
ENDMDL
MODEL      114
REMARK 921   NORMALIZED FREE ENERGY PREDICTED BY IDOCK:   -4.33 KCAL/MOL
REMARK 922        TOTAL FREE ENERGY PREDICTED BY IDOCK:   -6.97 KCAL/MOL
REMARK 923 INTER-LIGAND FREE ENERGY PREDICTED BY IDOCK:   -6.20 KCAL/MOL
REMARK 924 INTRA-LIGAND FREE ENERGY PREDICTED BY IDOCK:   -0.77 KCAL/MOL
REMARK 927      BINDING AFFINITY PREDICTED BY RF-SCORE:    0.00 PKD
ROOT
HETATM    1  C   UNL     1     -10.336  14.889  66.386  1.00  0.00    -0.286 C  
ENDROOT
BRANCH   1   2
HETATM    2  C   UNL     1      -9.756  16.294  66.464  1.00  0.00    -0.281 A  
HETATM    3  C   UNL     1      -7.848  17.795  66.301  1.00  0.00    -0.299 A  
HETATM    4  C   UNL     1     -10.510  17.358  66.991  1.00  0.00    -0.284 A  
HETATM    5  C   UNL     1      -9.932  18.610  67.196  1.00  0.00    -0.360 A  
HETATM    6  C   UNL     1      -8.597  18.828  66.862  1.00  0.00    -0.290 A  
HETATM    7  C   UNL     1      -8.423  16.538  66.100  1.00  0.00    -0.320 A  
ENDBRANCH   1   2
BRANCH   1   8
HETATM    8  O   UNL     1     -10.238  14.319  67.709  1.00  0.00    -0.231 OA 
BRANCH   8   9
HETATM    9  C   UNL     1      -9.035  14.005  68.274  1.00  0.00    -0.190 A  
HETATM   10  C   UNL     1      -6.993  14.516  69.498  1.00  0.00    -0.147 A  
HETATM   11  C   UNL     1      -7.245  12.365  68.457  1.00  0.00    -0.103 A  
HETATM   12  C   UNL     1      -6.474  13.264  69.187  1.00  0.00    -0.106 A  
HETATM   13  C   UNL     1      -8.266  14.883  69.046  1.00  0.00    -0.168 A  
HETATM   14  C   UNL     1      -8.532  12.713  68.026  1.00  0.00    -0.177 A  
BRANCH  14  15
HETATM   15  O   UNL     1      -9.167  11.708  67.338  1.00  0.00    -0.164 OA 
BRANCH  15  16
HETATM   16  C   UNL     1      -8.570  11.335  66.095  1.00  0.00    -0.156 C  
HETATM   17  C   UNL     1      -9.398  10.213  65.489  1.00  0.00    -0.260 C  
ENDBRANCH  15  16
ENDBRANCH  14  15
ENDBRANCH   8   9
ENDBRANCH   1   8
BRANCH   1  18
HETATM   18  C   UNL     1     -11.841  14.825  65.987  1.00  0.00    -0.200 C  
HETATM   19  N   UNL     1     -11.758  13.618  63.747  1.00  0.00    -0.665 NA 
HETATM   20  O   UNL     1     -12.499  13.669  66.561  1.00  0.00    -0.381 OA 
HETATM   21  H   UNL     1     -10.749  13.519  63.637  1.00  0.00     0.000 HD 
HETATM   22  C   UNL     1     -12.360  12.461  64.427  1.00  0.00    -0.447 C  
HETATM   23  C   UNL     1     -12.123  14.856  64.465  1.00  0.00    -0.407 C  
HETATM   24  C   UNL     1     -12.106  12.441  65.942  1.00  0.00    -0.281 C  
ENDBRANCH   1  18
TORSDOF 6
ENDMDL
MODEL      115
REMARK 921   NORMALIZED FREE ENERGY PREDICTED BY IDOCK:   -4.33 KCAL/MOL
REMARK 922        TOTAL FREE ENERGY PREDICTED BY IDOCK:   -6.97 KCAL/MOL
REMARK 923 INTER-LIGAND FREE ENERGY PREDICTED BY IDOCK:   -5.77 KCAL/MOL
REMARK 924 INTRA-LIGAND FREE ENERGY PREDICTED BY IDOCK:   -1.20 KCAL/MOL
REMARK 927      BINDING AFFINITY PREDICTED BY RF-SCORE:    0.00 PKD
ROOT
HETATM    1  C   UNL     1      -8.638  15.605  68.121  1.00  0.00    -0.159 C  
ENDROOT
BRANCH   1   2
HETATM    2  C   UNL     1      -7.398  14.790  68.460  1.00  0.00    -0.118 A  
HETATM    3  C   UNL     1      -5.702  13.170  67.812  1.00  0.00    -0.129 A  
HETATM    4  C   UNL     1      -6.928  14.708  69.783  1.00  0.00    -0.130 A  
HETATM    5  C   UNL     1      -5.882  13.849  70.118  1.00  0.00    -0.143 A  
HETATM    6  C   UNL     1      -5.275  13.070  69.135  1.00  0.00    -0.069 A  
HETATM    7  C   UNL     1      -6.754  14.026  67.475  1.00  0.00    -0.128 A  
ENDBRANCH   1   2
BRANCH   1   8
HETATM    8  O   UNL     1      -8.237  16.598  67.152  1.00  0.00    -0.163 OA 
BRANCH   8   9
HETATM    9  C   UNL     1      -7.452  17.663  67.491  1.00  0.00    -0.194 A  
HETATM   10  C   UNL     1      -5.371  18.928  67.511  1.00  0.00    -0.163 A  
HETATM   11  C   UNL     1      -7.206  19.639  68.892  1.00  0.00    -0.381 A  
HETATM   12  C   UNL     1      -5.895  19.803  68.457  1.00  0.00    -0.260 A  
HETATM   13  C   UNL     1      -6.146  17.866  67.031  1.00  0.00    -0.178 A  
HETATM   14  C   UNL     1      -7.997  18.596  68.393  1.00  0.00    -0.324 A  
BRANCH  14  15
HETATM   15  O   UNL     1      -9.272  18.586  68.907  1.00  0.00    -0.285 OA 
BRANCH  15  16
HETATM   16  C   UNL     1     -10.129  19.638  68.459  1.00  0.00    -0.453 C  
HETATM   17  C   UNL     1     -10.744  19.217  67.134  1.00  0.00    -0.567 C  
ENDBRANCH  15  16
ENDBRANCH  14  15
ENDBRANCH   8   9
ENDBRANCH   1   8
BRANCH   1  18
HETATM   18  C   UNL     1      -9.795  14.791  67.466  1.00  0.00    -0.218 C  
HETATM   19  N   UNL     1     -10.782  13.552  69.461  1.00  0.00    -0.436 NA 
HETATM   20  O   UNL     1     -11.014  15.570  67.376  1.00  0.00    -0.310 OA 
HETATM   21  H   UNL     1     -10.139  13.856  70.192  1.00  0.00     0.000 HD 
HETATM   22  C   UNL     1     -11.950  14.438  69.344  1.00  0.00    -0.328 C  
HETATM   23  C   UNL     1     -10.117  13.438  68.147  1.00  0.00    -0.244 C  
HETATM   24  C   UNL     1     -11.641  15.771  68.646  1.00  0.00    -0.386 C  
ENDBRANCH   1  18
TORSDOF 6
ENDMDL
MODEL      116
REMARK 921   NORMALIZED FREE ENERGY PREDICTED BY IDOCK:   -4.32 KCAL/MOL
REMARK 922        TOTAL FREE ENERGY PREDICTED BY IDOCK:   -6.95 KCAL/MOL
REMARK 923 INTER-LIGAND FREE ENERGY PREDICTED BY IDOCK:   -6.22 KCAL/MOL
REMARK 924 INTRA-LIGAND FREE ENERGY PREDICTED BY IDOCK:   -0.73 KCAL/MOL
REMARK 927      BINDING AFFINITY PREDICTED BY RF-SCORE:    0.00 PKD
ROOT
HETATM    1  C   UNL     1     -10.241  11.037  68.195  1.00  0.00    -0.182 C  
ENDROOT
BRANCH   1   2
HETATM    2  C   UNL     1     -11.097  12.019  67.407  1.00  0.00    -0.337 A  
HETATM    3  C   UNL     1     -12.136  12.696  65.313  1.00  0.00    -0.519 A  
HETATM    4  C   UNL     1     -11.452  13.266  67.951  1.00  0.00    -0.341 A  
HETATM    5  C   UNL     1     -12.111  14.222  67.180  1.00  0.00    -0.412 A  
HETATM    6  C   UNL     1     -12.444  13.942  65.856  1.00  0.00    -0.519 A  
HETATM    7  C   UNL     1     -11.470  11.740  66.084  1.00  0.00    -0.288 A  
ENDBRANCH   1   2
BRANCH   1   8
HETATM    8  O   UNL     1     -10.923   9.765  68.162  1.00  0.00    -0.239 OA 
BRANCH   8   9
HETATM    9  C   UNL     1     -11.081   9.001  69.284  1.00  0.00     0.060 A  
HETATM   10  C   UNL     1     -10.970   6.924  70.549  1.00  0.00    -0.313 A  
HETATM   11  C   UNL     1     -12.047   8.844  71.512  1.00  0.00    -0.395 A  
HETATM   12  C   UNL     1     -11.675   7.507  71.597  1.00  0.00    -0.313 A  
HETATM   13  C   UNL     1     -10.675   7.668  69.401  1.00  0.00    -0.188 A  
HETATM   14  C   UNL     1     -11.729   9.604  70.379  1.00  0.00    -0.202 A  
BRANCH  14  15
HETATM   15  O   UNL     1     -12.148  10.910  70.462  1.00  0.00    -0.309 OA 
BRANCH  15  16
HETATM   16  C   UNL     1     -13.084  11.195  71.503  1.00  0.00    -0.385 C  
HETATM   17  C   UNL     1     -13.090  12.697  71.738  1.00  0.00    -0.461 C  
ENDBRANCH  15  16
ENDBRANCH  14  15
ENDBRANCH   8   9
ENDBRANCH   1   8
BRANCH   1  18
HETATM   18  C   UNL     1      -8.819  10.793  67.605  1.00  0.00    -0.132 C  
HETATM   19  N   UNL     1      -7.445  12.621  68.727  1.00  0.00    -0.236 NA 
HETATM   20  O   UNL     1      -8.086   9.804  68.369  1.00  0.00    -0.102 OA 
HETATM   21  H   UNL     1      -8.180  13.098  69.249  1.00  0.00     0.000 HD 
HETATM   22  C   UNL     1      -6.804  11.557  69.516  1.00  0.00    -0.075 C  
HETATM   23  C   UNL     1      -7.940  12.059  67.454  1.00  0.00    -0.165 C  
HETATM   24  C   UNL     1      -7.661  10.290  69.646  1.00  0.00    -0.164 C  
ENDBRANCH   1  18
TORSDOF 6
ENDMDL
MODEL      117
REMARK 921   NORMALIZED FREE ENERGY PREDICTED BY IDOCK:   -4.31 KCAL/MOL
REMARK 922        TOTAL FREE ENERGY PREDICTED BY IDOCK:   -6.95 KCAL/MOL
REMARK 923 INTER-LIGAND FREE ENERGY PREDICTED BY IDOCK:   -6.14 KCAL/MOL
REMARK 924 INTRA-LIGAND FREE ENERGY PREDICTED BY IDOCK:   -0.81 KCAL/MOL
REMARK 927      BINDING AFFINITY PREDICTED BY RF-SCORE:    0.00 PKD
ROOT
HETATM    1  C   UNL     1      -9.859  14.483  67.795  1.00  0.00    -0.220 C  
ENDROOT
BRANCH   1   2
HETATM    2  C   UNL     1      -9.228  13.123  67.533  1.00  0.00    -0.206 A  
HETATM    3  C   UNL     1      -9.013  11.135  66.147  1.00  0.00    -0.205 A  
HETATM    4  C   UNL     1      -8.463  12.479  68.522  1.00  0.00    -0.061 A  
HETATM    5  C   UNL     1      -8.008  11.175  68.338  1.00  0.00    -0.137 A  
HETATM    6  C   UNL     1      -8.291  10.496  67.154  1.00  0.00    -0.127 A  
HETATM    7  C   UNL     1      -9.476  12.440  66.333  1.00  0.00    -0.240 A  
ENDBRANCH   1   2
BRANCH   1   8
HETATM    8  O   UNL     1      -9.610  15.294  66.626  1.00  0.00    -0.231 OA 
BRANCH   8   9
HETATM    9  C   UNL     1      -9.777  16.650  66.638  1.00  0.00    -0.266 A  
HETATM   10  C   UNL     1      -9.591  18.867  67.627  1.00  0.00    -0.351 A  
HETATM   11  C   UNL     1     -10.853  18.572  65.603  1.00  0.00     0.023 A  
HETATM   12  C   UNL     1     -10.392  19.399  66.622  1.00  0.00    -0.555 A  
HETATM   13  C   UNL     1      -9.285  17.501  67.633  1.00  0.00    -0.243 A  
HETATM   14  C   UNL     1     -10.526  17.211  65.585  1.00  0.00    -0.197 A  
BRANCH  14  15
HETATM   15  O   UNL     1     -11.040  16.540  64.502  1.00  0.00    -0.821 OA 
BRANCH  15  16
HETATM   16  C   UNL     1     -12.218  15.772  64.751  1.00  0.00     0.342 C  
HETATM   17  C   UNL     1     -11.931  14.327  64.377  1.00  0.00    -0.476 C  
ENDBRANCH  15  16
ENDBRANCH  14  15
ENDBRANCH   8   9
ENDBRANCH   1   8
BRANCH   1  18
HETATM   18  C   UNL     1     -11.404  14.459  67.995  1.00  0.00    -0.294 C  
HETATM   19  N   UNL     1     -11.650  13.126  70.152  1.00  0.00    -0.533 NA 
HETATM   20  O   UNL     1     -11.873  15.637  68.696  1.00  0.00    -0.372 OA 
HETATM   21  H   UNL     1     -10.673  12.891  70.326  1.00  0.00     0.000 HD 
HETATM   22  C   UNL     1     -12.044  14.386  70.802  1.00  0.00    -0.338 C  
HETATM   23  C   UNL     1     -11.957  13.201  68.709  1.00  0.00    -0.280 C  
HETATM   24  C   UNL     1     -11.520  15.637  70.082  1.00  0.00    -0.348 C  
ENDBRANCH   1  18
TORSDOF 6
ENDMDL
MODEL      118
REMARK 921   NORMALIZED FREE ENERGY PREDICTED BY IDOCK:   -4.31 KCAL/MOL
REMARK 922        TOTAL FREE ENERGY PREDICTED BY IDOCK:   -6.95 KCAL/MOL
REMARK 923 INTER-LIGAND FREE ENERGY PREDICTED BY IDOCK:   -5.66 KCAL/MOL
REMARK 924 INTRA-LIGAND FREE ENERGY PREDICTED BY IDOCK:   -1.28 KCAL/MOL
REMARK 927      BINDING AFFINITY PREDICTED BY RF-SCORE:    0.00 PKD
ROOT
HETATM    1  C   UNL     1     -10.700   6.120  71.098  1.00  0.00    -0.256 C  
ENDROOT
BRANCH   1   2
HETATM    2  C   UNL     1     -11.632   7.315  71.242  1.00  0.00    -0.316 A  
HETATM    3  C   UNL     1     -11.953   9.710  71.523  1.00  0.00    -0.485 A  
HETATM    4  C   UNL     1     -13.008   7.134  71.464  1.00  0.00    -0.431 A  
HETATM    5  C   UNL     1     -13.837   8.221  71.740  1.00  0.00    -0.450 A  
HETATM    6  C   UNL     1     -13.308   9.510  71.781  1.00  0.00    -0.501 A  
HETATM    7  C   UNL     1     -11.121   8.621  71.253  1.00  0.00    -0.336 A  
ENDBRANCH   1   2
BRANCH   1   8
HETATM    8  O   UNL     1      -9.761   6.443  70.049  1.00  0.00    -0.163 OA 
BRANCH   8   9
HETATM    9  C   UNL     1      -9.908   5.970  68.776  1.00  0.00    -0.139 A  
HETATM   10  C   UNL     1     -10.973   5.875  66.588  1.00  0.00    -0.228 A  
HETATM   11  C   UNL     1      -9.306   4.244  67.170  1.00  0.00    -0.187 A  
HETATM   12  C   UNL     1     -10.236   4.741  66.262  1.00  0.00    -0.315 A  
HETATM   13  C   UNL     1     -10.808   6.485  67.837  1.00  0.00    -0.383 A  
HETATM   14  C   UNL     1      -9.114   4.867  68.409  1.00  0.00    -0.114 A  
BRANCH  14  15
HETATM   15  O   UNL     1      -8.147   4.266  69.178  1.00  0.00    -0.067 OA 
BRANCH  15  16
HETATM   16  C   UNL     1      -8.022   2.851  69.023  1.00  0.00    -0.055 C  
HETATM   17  C   UNL     1      -6.970   2.357  70.003  1.00  0.00    -0.033 C  
ENDBRANCH  15  16
ENDBRANCH  14  15
ENDBRANCH   8   9
ENDBRANCH   1   8
BRANCH   1  18
HETATM   18  C   UNL     1      -9.853   5.795  72.365  1.00  0.00    -0.163 C  
HETATM   19  N   UNL     1     -11.530   4.571  73.839  1.00  0.00    -0.264 NA 
HETATM   20  O   UNL     1      -9.115   4.557  72.214  1.00  0.00    -0.123 OA 
HETATM   21  H   UNL     1     -12.363   4.640  73.254  1.00  0.00     0.000 HD 
HETATM   22  C   UNL     1     -10.764   3.344  73.571  1.00  0.00    -0.214 C  
HETATM   23  C   UNL     1     -10.646   5.745  73.694  1.00  0.00    -0.276 C  
HETATM   24  C   UNL     1      -9.954   3.400  72.267  1.00  0.00    -0.163 C  
ENDBRANCH   1  18
TORSDOF 6
ENDMDL
MODEL      119
REMARK 921   NORMALIZED FREE ENERGY PREDICTED BY IDOCK:   -4.30 KCAL/MOL
REMARK 922        TOTAL FREE ENERGY PREDICTED BY IDOCK:   -6.94 KCAL/MOL
REMARK 923 INTER-LIGAND FREE ENERGY PREDICTED BY IDOCK:   -6.04 KCAL/MOL
REMARK 924 INTRA-LIGAND FREE ENERGY PREDICTED BY IDOCK:   -0.90 KCAL/MOL
REMARK 927      BINDING AFFINITY PREDICTED BY RF-SCORE:    0.00 PKD
ROOT
HETATM    1  C   UNL     1      -9.113  12.198  67.580  1.00  0.00    -0.181 C  
ENDROOT
BRANCH   1   2
HETATM    2  C   UNL     1     -10.319  12.410  68.483  1.00  0.00    -0.232 A  
HETATM    3  C   UNL     1     -11.729  13.897  69.796  1.00  0.00    -0.372 A  
HETATM    4  C   UNL     1     -11.008  11.317  69.037  1.00  0.00    -0.288 A  
HETATM    5  C   UNL     1     -12.020  11.510  69.977  1.00  0.00    -0.435 A  
HETATM    6  C   UNL     1     -12.375  12.801  70.366  1.00  0.00    -0.324 A  
HETATM    7  C   UNL     1     -10.711  13.704  68.859  1.00  0.00    -0.237 A  
ENDBRANCH   1   2
BRANCH   1   8
HETATM    8  O   UNL     1      -9.200  13.178  66.523  1.00  0.00    -0.241 OA 
BRANCH   8   9
HETATM    9  C   UNL     1     -10.144  13.096  65.539  1.00  0.00    -0.261 A  
HETATM   10  C   UNL     1     -12.085  13.887  64.299  1.00  0.00    -0.477 A  
HETATM   11  C   UNL     1     -11.203  11.696  63.853  1.00  0.00    -0.479 A  
HETATM   12  C   UNL     1     -12.157  12.680  63.612  1.00  0.00    -0.632 A  
HETATM   13  C   UNL     1     -11.083  14.094  65.255  1.00  0.00    -0.331 A  
HETATM   14  C   UNL     1     -10.180  11.907  64.786  1.00  0.00    -0.276 A  
BRANCH  14  15
HETATM   15  O   UNL     1      -9.310  10.849  64.890  1.00  0.00    -0.208 OA 
BRANCH  15  16
HETATM   16  C   UNL     1      -9.883   9.616  65.330  1.00  0.00    -0.252 C  
HETATM   17  C   UNL     1      -8.751   8.677  65.714  1.00  0.00    -0.212 C  
ENDBRANCH  15  16
ENDBRANCH  14  15
ENDBRANCH   8   9
ENDBRANCH   1   8
BRANCH   1  18
HETATM   18  C   UNL     1      -7.733  12.415  68.272  1.00  0.00    -0.140 C  
HETATM   19  N   UNL     1      -6.908  10.028  68.599  1.00  0.00    -0.054 NA 
HETATM   20  O   UNL     1      -6.676  12.624  67.304  1.00  0.00    -0.155 OA 
HETATM   21  H   UNL     1      -7.712   9.513  68.242  1.00  0.00     0.000 HD 
HETATM   22  C   UNL     1      -5.913  10.303  67.551  1.00  0.00    -0.053 C  
HETATM   23  C   UNL     1      -7.301  11.295  69.249  1.00  0.00    -0.068 C  
HETATM   24  C   UNL     1      -6.326  11.432  66.595  1.00  0.00    -0.127 C  
ENDBRANCH   1  18
TORSDOF 6
ENDMDL
MODEL      120
REMARK 921   NORMALIZED FREE ENERGY PREDICTED BY IDOCK:   -4.30 KCAL/MOL
REMARK 922        TOTAL FREE ENERGY PREDICTED BY IDOCK:   -6.94 KCAL/MOL
REMARK 923 INTER-LIGAND FREE ENERGY PREDICTED BY IDOCK:   -6.38 KCAL/MOL
REMARK 924 INTRA-LIGAND FREE ENERGY PREDICTED BY IDOCK:   -0.56 KCAL/MOL
REMARK 927      BINDING AFFINITY PREDICTED BY RF-SCORE:    0.00 PKD
ROOT
HETATM    1  C   UNL     1     -10.370  14.873  67.329  1.00  0.00    -0.251 C  
ENDROOT
BRANCH   1   2
HETATM    2  C   UNL     1      -9.991  16.339  67.172  1.00  0.00    -0.257 A  
HETATM    3  C   UNL     1     -10.517  18.693  67.487  1.00  0.00    -0.473 A  
HETATM    4  C   UNL     1      -8.896  16.720  66.376  1.00  0.00    -0.331 A  
HETATM    5  C   UNL     1      -8.636  18.065  66.116  1.00  0.00    -0.127 A  
HETATM    6  C   UNL     1      -9.452  19.053  66.662  1.00  0.00    -0.375 A  
HETATM    7  C   UNL     1     -10.783  17.346  67.743  1.00  0.00    -0.332 A  
ENDBRANCH   1   2
BRANCH   1   8
HETATM    8  O   UNL     1      -9.718  14.153  66.260  1.00  0.00    -0.284 OA 
BRANCH   8   9
HETATM    9  C   UNL     1     -10.425  13.541  65.264  1.00  0.00    -0.336 A  
HETATM   10  C   UNL     1     -12.222  13.398  63.628  1.00  0.00    -0.480 A  
HETATM   11  C   UNL     1     -10.842  11.476  64.046  1.00  0.00    -0.453 A  
HETATM   12  C   UNL     1     -11.916  12.064  63.385  1.00  0.00    -0.571 A  
HETATM   13  C   UNL     1     -11.480  14.132  64.561  1.00  0.00    -0.380 A  
HETATM   14  C   UNL     1     -10.076  12.211  64.958  1.00  0.00    -0.263 A  
BRANCH  14  15
HETATM   15  O   UNL     1      -9.041  11.492  65.507  1.00  0.00    -0.187 OA 
BRANCH  15  16
HETATM   16  C   UNL     1      -9.174  10.071  65.445  1.00  0.00    -0.210 C  
HETATM   17  C   UNL     1      -9.407   9.555  66.855  1.00  0.00    -0.185 C  
ENDBRANCH  15  16
ENDBRANCH  14  15
ENDBRANCH   8   9
ENDBRANCH   1   8
BRANCH   1  18
HETATM   18  C   UNL     1      -9.896  14.214  68.659  1.00  0.00    -0.206 C  
HETATM   19  N   UNL     1      -7.841  12.907  67.915  1.00  0.00    -0.136 NA 
HETATM   20  O   UNL     1      -9.033  15.097  69.417  1.00  0.00    -0.225 OA 
HETATM   21  H   UNL     1      -7.864  13.097  66.913  1.00  0.00     0.000 HD 
HETATM   22  C   UNL     1      -7.034  13.895  68.648  1.00  0.00    -0.108 C  
HETATM   23  C   UNL     1      -9.193  12.843  68.503  1.00  0.00    -0.062 C  
HETATM   24  C   UNL     1      -7.737  15.248  68.829  1.00  0.00    -0.147 C  
ENDBRANCH   1  18
TORSDOF 6
ENDMDL
MODEL      121
REMARK 921   NORMALIZED FREE ENERGY PREDICTED BY IDOCK:   -4.30 KCAL/MOL
REMARK 922        TOTAL FREE ENERGY PREDICTED BY IDOCK:   -6.93 KCAL/MOL
REMARK 923 INTER-LIGAND FREE ENERGY PREDICTED BY IDOCK:   -5.31 KCAL/MOL
REMARK 924 INTRA-LIGAND FREE ENERGY PREDICTED BY IDOCK:   -1.62 KCAL/MOL
REMARK 927      BINDING AFFINITY PREDICTED BY RF-SCORE:    0.00 PKD
ROOT
HETATM    1  C   UNL     1     -10.305   7.716  70.390  1.00  0.00    -0.214 C  
ENDROOT
BRANCH   1   2
HETATM    2  C   UNL     1      -9.627   7.728  69.027  1.00  0.00    -0.155 A  
HETATM    3  C   UNL     1      -9.764   7.511  66.607  1.00  0.00    -0.273 A  
HETATM    4  C   UNL     1      -8.225   7.731  68.918  1.00  0.00    -0.127 A  
HETATM    5  C   UNL     1      -7.605   7.596  67.677  1.00  0.00    -0.109 A  
HETATM    6  C   UNL     1      -8.373   7.474  66.520  1.00  0.00    -0.126 A  
HETATM    7  C   UNL     1     -10.387   7.639  67.851  1.00  0.00    -0.270 A  
ENDBRANCH   1   2
BRANCH   1   8
HETATM    8  O   UNL     1      -9.495   6.891  71.255  1.00  0.00    -0.165 OA 
BRANCH   8   9
HETATM    9  C   UNL     1      -9.951   5.704  71.756  1.00  0.00    -0.176 A  
HETATM   10  C   UNL     1     -11.312   4.335  73.240  1.00  0.00    -0.301 A  
HETATM   11  C   UNL     1      -9.631   3.294  71.873  1.00  0.00    -0.221 A  
HETATM   12  C   UNL     1     -10.625   3.194  72.842  1.00  0.00    -0.210 A  
HETATM   13  C   UNL     1     -10.978   5.582  72.698  1.00  0.00    -0.320 A  
HETATM   14  C   UNL     1      -9.311   4.533  71.305  1.00  0.00    -0.148 A  
BRANCH  14  15
HETATM   15  O   UNL     1      -8.325   4.458  70.351  1.00  0.00    -0.072 OA 
BRANCH  15  16
HETATM   16  C   UNL     1      -8.517   3.468  69.339  1.00  0.00    -0.065 C  
HETATM   17  C   UNL     1      -9.528   4.003  68.337  1.00  0.00    -0.211 C  
ENDBRANCH  15  16
ENDBRANCH  14  15
ENDBRANCH   8   9
ENDBRANCH   1   8
BRANCH   1  18
HETATM   18  C   UNL     1     -10.410   9.110  71.079  1.00  0.00    -0.293 C  
HETATM   19  N   UNL     1     -12.337  10.195  69.817  1.00  0.00    -0.502 NA 
HETATM   20  O   UNL     1     -11.242   9.061  72.264  1.00  0.00    -0.306 OA 
HETATM   21  H   UNL     1     -12.533   9.465  69.132  1.00  0.00     0.000 HD 
HETATM   22  C   UNL     1     -13.136  10.037  71.043  1.00  0.00    -0.356 C  
HETATM   23  C   UNL     1     -10.904  10.260  70.169  1.00  0.00    -0.302 C  
HETATM   24  C   UNL     1     -12.632   8.914  71.961  1.00  0.00    -0.394 C  
ENDBRANCH   1  18
TORSDOF 6
ENDMDL
MODEL      122
REMARK 921   NORMALIZED FREE ENERGY PREDICTED BY IDOCK:   -4.29 KCAL/MOL
REMARK 922        TOTAL FREE ENERGY PREDICTED BY IDOCK:   -6.92 KCAL/MOL
REMARK 923 INTER-LIGAND FREE ENERGY PREDICTED BY IDOCK:   -6.77 KCAL/MOL
REMARK 924 INTRA-LIGAND FREE ENERGY PREDICTED BY IDOCK:   -0.15 KCAL/MOL
REMARK 927      BINDING AFFINITY PREDICTED BY RF-SCORE:    0.00 PKD
ROOT
HETATM    1  C   UNL     1     -11.099  14.571  68.889  1.00  0.00    -0.256 C  
ENDROOT
BRANCH   1   2
HETATM    2  C   UNL     1     -12.117  14.310  69.990  1.00  0.00    -0.400 A  
HETATM    3  C   UNL     1     -13.674  15.154  71.659  1.00  0.00    -0.578 A  
HETATM    4  C   UNL     1     -12.286  13.022  70.528  1.00  0.00    -0.392 A  
HETATM    5  C   UNL     1     -13.111  12.810  71.632  1.00  0.00    -0.428 A  
HETATM    6  C   UNL     1     -13.798  13.878  72.206  1.00  0.00    -0.669 A  
HETATM    7  C   UNL     1     -12.842  15.369  70.557  1.00  0.00    -0.425 A  
ENDBRANCH   1   2
BRANCH   1   8
HETATM    8  O   UNL     1     -11.376  13.629  67.829  1.00  0.00    -0.279 OA 
BRANCH   8   9
HETATM    9  C   UNL     1     -10.703  12.445  67.721  1.00  0.00    -0.221 A  
HETATM   10  C   UNL     1     -10.511  10.082  67.168  1.00  0.00    -0.305 A  
HETATM   11  C   UNL     1      -8.707  11.183  68.310  1.00  0.00    -0.151 A  
HETATM   12  C   UNL     1      -9.259  10.027  67.769  1.00  0.00    -0.143 A  
HETATM   13  C   UNL     1     -11.227  11.284  67.143  1.00  0.00    -0.344 A  
HETATM   14  C   UNL     1      -9.404  12.397  68.263  1.00  0.00    -0.199 A  
BRANCH  14  15
HETATM   15  O   UNL     1      -8.713  13.446  68.820  1.00  0.00    -0.035 OA 
BRANCH  15  16
HETATM   16  C   UNL     1      -7.299  13.432  68.619  1.00  0.00    -0.106 C  
HETATM   17  C   UNL     1      -6.656  14.273  69.710  1.00  0.00    -0.125 C  
ENDBRANCH  15  16
ENDBRANCH  14  15
ENDBRANCH   8   9
ENDBRANCH   1   8
BRANCH   1  18
HETATM   18  C   UNL     1     -11.176  15.990  68.250  1.00  0.00    -0.350 C  
HETATM   19  N   UNL     1      -8.827  16.891  68.644  1.00  0.00    -0.257 NA 
HETATM   20  O   UNL     1     -10.900  15.954  66.829  1.00  0.00    -0.309 OA 
HETATM   21  H   UNL     1      -8.427  16.115  69.172  1.00  0.00     0.000 HD 
HETATM   22  C   UNL     1      -8.606  16.750  67.197  1.00  0.00    -0.196 C  
HETATM   23  C   UNL     1     -10.270  17.060  68.908  1.00  0.00    -0.322 C  
HETATM   24  C   UNL     1      -9.522  15.709  66.535  1.00  0.00    -0.274 C  
ENDBRANCH   1  18
TORSDOF 6
ENDMDL
MODEL      123
REMARK 921   NORMALIZED FREE ENERGY PREDICTED BY IDOCK:   -4.28 KCAL/MOL
REMARK 922        TOTAL FREE ENERGY PREDICTED BY IDOCK:   -6.90 KCAL/MOL
REMARK 923 INTER-LIGAND FREE ENERGY PREDICTED BY IDOCK:   -5.75 KCAL/MOL
REMARK 924 INTRA-LIGAND FREE ENERGY PREDICTED BY IDOCK:   -1.16 KCAL/MOL
REMARK 927      BINDING AFFINITY PREDICTED BY RF-SCORE:    0.00 PKD
ROOT
HETATM    1  C   UNL     1     -10.664   7.236  70.937  1.00  0.00    -0.234 C  
ENDROOT
BRANCH   1   2
HETATM    2  C   UNL     1     -11.531   8.480  71.072  1.00  0.00    -0.313 A  
HETATM    3  C   UNL     1     -11.916  10.838  70.610  1.00  0.00    -0.466 A  
HETATM    4  C   UNL     1     -12.620   8.508  71.962  1.00  0.00    -0.414 A  
HETATM    5  C   UNL     1     -13.324   9.688  72.193  1.00  0.00    -0.545 A  
HETATM    6  C   UNL     1     -12.966  10.858  71.526  1.00  0.00    -0.556 A  
HETATM    7  C   UNL     1     -11.204   9.657  70.382  1.00  0.00    -0.342 A  
ENDBRANCH   1   2
BRANCH   1   8
HETATM    8  O   UNL     1     -10.611   6.617  72.240  1.00  0.00    -0.207 OA 
BRANCH   8   9
HETATM    9  C   UNL     1      -9.521   6.740  73.054  1.00  0.00    -0.140 A  
HETATM   10  C   UNL     1      -7.805   8.001  74.235  1.00  0.00    -0.280 A  
HETATM   11  C   UNL     1      -7.684   5.602  74.174  1.00  0.00    -0.099 A  
HETATM   12  C   UNL     1      -7.142   6.823  74.561  1.00  0.00    -0.098 A  
HETATM   13  C   UNL     1      -8.988   7.959  73.488  1.00  0.00    -0.343 A  
HETATM   14  C   UNL     1      -8.883   5.550  73.452  1.00  0.00    -0.116 A  
BRANCH  14  15
HETATM   15  O   UNL     1      -9.293   4.270  73.167  1.00  0.00    -0.113 OA 
BRANCH  15  16
HETATM   16  C   UNL     1      -9.150   3.323  74.227  1.00  0.00    -0.085 C  
HETATM   17  C   UNL     1     -10.411   2.475  74.279  1.00  0.00    -0.210 C  
ENDBRANCH  15  16
ENDBRANCH  14  15
ENDBRANCH   8   9
ENDBRANCH   1   8
BRANCH   1  18
HETATM   18  C   UNL     1     -11.218   6.158  69.957  1.00  0.00    -0.401 C  
HETATM   19  N   UNL     1      -9.769   6.507  67.891  1.00  0.00    -0.121 NA 
HETATM   20  O   UNL     1     -10.580   4.873  70.159  1.00  0.00    -0.184 OA 
HETATM   21  H   UNL     1      -9.215   7.306  68.198  1.00  0.00     0.000 HD 
HETATM   22  C   UNL     1      -9.123   5.226  68.214  1.00  0.00    -0.110 C  
HETATM   23  C   UNL     1     -11.134   6.526  68.455  1.00  0.00    -0.254 C  
HETATM   24  C   UNL     1      -9.227   4.844  69.698  1.00  0.00    -0.118 C  
ENDBRANCH   1  18
TORSDOF 6
ENDMDL
MODEL      124
REMARK 921   NORMALIZED FREE ENERGY PREDICTED BY IDOCK:   -4.27 KCAL/MOL
REMARK 922        TOTAL FREE ENERGY PREDICTED BY IDOCK:   -6.89 KCAL/MOL
REMARK 923 INTER-LIGAND FREE ENERGY PREDICTED BY IDOCK:   -6.32 KCAL/MOL
REMARK 924 INTRA-LIGAND FREE ENERGY PREDICTED BY IDOCK:   -0.58 KCAL/MOL
REMARK 927      BINDING AFFINITY PREDICTED BY RF-SCORE:    0.00 PKD
ROOT
HETATM    1  C   UNL     1      -9.053  16.161  67.831  1.00  0.00    -0.192 C  
ENDROOT
BRANCH   1   2
HETATM    2  C   UNL     1      -9.700  17.530  67.674  1.00  0.00    -0.275 A  
HETATM    3  C   UNL     1     -10.716  19.227  66.258  1.00  0.00    -0.477 A  
HETATM    4  C   UNL     1      -9.679  18.463  68.726  1.00  0.00    -0.369 A  
HETATM    5  C   UNL     1     -10.141  19.764  68.537  1.00  0.00    -0.555 A  
HETATM    6  C   UNL     1     -10.650  20.152  67.299  1.00  0.00    -0.340 A  
HETATM    7  C   UNL     1     -10.247  17.924  66.444  1.00  0.00    -0.372 A  
ENDBRANCH   1   2
BRANCH   1   8
HETATM    8  O   UNL     1      -7.654  16.386  68.109  1.00  0.00    -0.148 OA 
BRANCH   8   9
HETATM    9  C   UNL     1      -6.924  17.320  67.430  1.00  0.00    -0.161 A  
HETATM   10  C   UNL     1      -5.957  18.306  65.425  1.00  0.00    -0.241 A  
HETATM   11  C   UNL     1      -5.342  19.164  67.584  1.00  0.00    -0.172 A  
HETATM   12  C   UNL     1      -5.207  19.184  66.200  1.00  0.00    -0.171 A  
HETATM   13  C   UNL     1      -6.811  17.382  66.037  1.00  0.00    -0.220 A  
HETATM   14  C   UNL     1      -6.217  18.262  68.203  1.00  0.00    -0.183 A  
BRANCH  14  15
HETATM   15  O   UNL     1      -6.250  18.384  69.571  1.00  0.00    -0.257 OA 
BRANCH  15  16
HETATM   16  C   UNL     1      -6.617  19.672  70.069  1.00  0.00    -0.210 C  
HETATM   17  C   UNL     1      -6.023  19.830  71.459  1.00  0.00    -0.196 C  
ENDBRANCH  15  16
ENDBRANCH  14  15
ENDBRANCH   8   9
ENDBRANCH   1   8
BRANCH   1  18
HETATM   18  C   UNL     1      -9.607  15.308  69.013  1.00  0.00    -0.237 C  
HETATM   19  N   UNL     1     -12.023  14.912  68.310  1.00  0.00    -0.541 NA 
HETATM   20  O   UNL     1      -9.344  13.896  68.825  1.00  0.00    -0.149 OA 
HETATM   21  H   UNL     1     -12.047  15.455  67.447  1.00  0.00     0.000 HD 
HETATM   22  C   UNL     1     -11.649  13.509  68.072  1.00  0.00    -0.337 C  
HETATM   23  C   UNL     1     -11.114  15.499  69.314  1.00  0.00    -0.285 C  
HETATM   24  C   UNL     1     -10.151  13.311  67.799  1.00  0.00    -0.229 C  
ENDBRANCH   1  18
TORSDOF 6
ENDMDL
MODEL      125
REMARK 921   NORMALIZED FREE ENERGY PREDICTED BY IDOCK:   -4.27 KCAL/MOL
REMARK 922        TOTAL FREE ENERGY PREDICTED BY IDOCK:   -6.89 KCAL/MOL
REMARK 923 INTER-LIGAND FREE ENERGY PREDICTED BY IDOCK:   -5.74 KCAL/MOL
REMARK 924 INTRA-LIGAND FREE ENERGY PREDICTED BY IDOCK:   -1.15 KCAL/MOL
REMARK 927      BINDING AFFINITY PREDICTED BY RF-SCORE:    0.00 PKD
ROOT
HETATM    1  C   UNL     1      -9.749  10.843  68.080  1.00  0.00    -0.165 C  
ENDROOT
BRANCH   1   2
HETATM    2  C   UNL     1     -10.682  11.888  67.483  1.00  0.00    -0.263 A  
HETATM    3  C   UNL     1     -11.942  12.746  65.588  1.00  0.00    -0.503 A  
HETATM    4  C   UNL     1     -10.967  13.079  68.175  1.00  0.00    -0.269 A  
HETATM    5  C   UNL     1     -11.703  14.097  67.570  1.00  0.00    -0.418 A  
HETATM    6  C   UNL     1     -12.182  13.937  66.271  1.00  0.00    -0.498 A  
HETATM    7  C   UNL     1     -11.200  11.727  66.190  1.00  0.00    -0.363 A  
ENDBRANCH   1   2
BRANCH   1   8
HETATM    8  O   UNL     1     -10.237   9.552  67.656  1.00  0.00    -0.191 OA 
BRANCH   8   9
HETATM    9  C   UNL     1     -10.654   8.607  68.551  1.00  0.00    -0.119 A  
HETATM   10  C   UNL     1     -11.190   7.796  70.782  1.00  0.00    -0.281 A  
HETATM   11  C   UNL     1     -11.142   6.255  68.939  1.00  0.00    -0.434 A  
HETATM   12  C   UNL     1     -11.308   6.497  70.299  1.00  0.00    -0.456 A  
HETATM   13  C   UNL     1     -10.867   8.844  69.913  1.00  0.00    -0.219 A  
HETATM   14  C   UNL     1     -10.847   7.302  68.058  1.00  0.00    -0.095 A  
BRANCH  14  15
HETATM   15  O   UNL     1     -10.735   6.900  66.749  1.00  0.00    -0.297 OA 
BRANCH  15  16
HETATM   16  C   UNL     1      -9.791   5.857  66.500  1.00  0.00    -0.152 C  
HETATM   17  C   UNL     1      -8.425   6.493  66.297  1.00  0.00    -0.129 C  
ENDBRANCH  15  16
ENDBRANCH  14  15
ENDBRANCH   8   9
ENDBRANCH   1   8
BRANCH   1  18
HETATM   18  C   UNL     1      -8.270  10.936  67.597  1.00  0.00    -0.116 C  
HETATM   19  N   UNL     1      -7.264  12.594  69.248  1.00  0.00    -0.320 NA 
HETATM   20  O   UNL     1      -7.449   9.894  68.178  1.00  0.00    -0.080 OA 
HETATM   21  H   UNL     1      -8.095  12.830  69.790  1.00  0.00     0.000 HD 
HETATM   22  C   UNL     1      -6.525  11.462  69.827  1.00  0.00    -0.133 C  
HETATM   23  C   UNL     1      -7.583  12.303  67.836  1.00  0.00    -0.127 C  
HETATM   24  C   UNL     1      -7.189  10.101  69.569  1.00  0.00    -0.115 C  
ENDBRANCH   1  18
TORSDOF 6
ENDMDL
MODEL      126
REMARK 921   NORMALIZED FREE ENERGY PREDICTED BY IDOCK:   -4.26 KCAL/MOL
REMARK 922        TOTAL FREE ENERGY PREDICTED BY IDOCK:   -6.87 KCAL/MOL
REMARK 923 INTER-LIGAND FREE ENERGY PREDICTED BY IDOCK:   -6.37 KCAL/MOL
REMARK 924 INTRA-LIGAND FREE ENERGY PREDICTED BY IDOCK:   -0.50 KCAL/MOL
REMARK 927      BINDING AFFINITY PREDICTED BY RF-SCORE:    0.00 PKD
ROOT
HETATM    1  C   UNL     1     -10.958   9.726  67.626  1.00  0.00    -0.162 C  
ENDROOT
BRANCH   1   2
HETATM    2  C   UNL     1     -10.265   8.371  67.677  1.00  0.00    -0.298 A  
HETATM    3  C   UNL     1      -8.224   7.057  67.833  1.00  0.00    -0.115 A  
HETATM    4  C   UNL     1     -10.969   7.189  67.386  1.00  0.00    -0.296 A  
HETATM    5  C   UNL     1     -10.305   5.967  67.291  1.00  0.00    -0.275 A  
HETATM    6  C   UNL     1      -8.929   5.901  67.504  1.00  0.00    -0.107 A  
HETATM    7  C   UNL     1      -8.887   8.283  67.923  1.00  0.00    -0.138 A  
ENDBRANCH   1   2
BRANCH   1   8
HETATM    8  O   UNL     1     -10.636  10.410  68.857  1.00  0.00    -0.190 OA 
BRANCH   8   9
HETATM    9  C   UNL     1     -11.351  10.207  70.003  1.00  0.00    -0.287 A  
HETATM   10  C   UNL     1     -12.241   8.843  71.813  1.00  0.00    -0.429 A  
HETATM   11  C   UNL     1     -12.972  11.120  71.573  1.00  0.00    -0.542 A  
HETATM   12  C   UNL     1     -13.043   9.898  72.235  1.00  0.00    -0.419 A  
HETATM   13  C   UNL     1     -11.400   8.998  70.705  1.00  0.00    -0.329 A  
HETATM   14  C   UNL     1     -12.111  11.292  70.482  1.00  0.00    -0.387 A  
BRANCH  14  15
HETATM   15  O   UNL     1     -12.144  12.560  69.955  1.00  0.00    -0.304 OA 
BRANCH  15  16
HETATM   16  C   UNL     1     -12.189  13.625  70.906  1.00  0.00    -0.328 C  
HETATM   17  C   UNL     1     -12.064  14.940  70.153  1.00  0.00    -0.379 C  
ENDBRANCH  15  16
ENDBRANCH  14  15
ENDBRANCH   8   9
ENDBRANCH   1   8
BRANCH   1  18
HETATM   18  C   UNL     1     -10.487  10.657  66.467  1.00  0.00    -0.224 C  
HETATM   19  N   UNL     1     -11.188  12.958  67.302  1.00  0.00    -0.275 NA 
HETATM   20  O   UNL     1      -9.101  11.047  66.623  1.00  0.00    -0.159 OA 
HETATM   21  H   UNL     1     -11.653  12.697  68.171  1.00  0.00     0.000 HD 
HETATM   22  C   UNL     1      -9.759  13.244  67.502  1.00  0.00    -0.224 C  
HETATM   23  C   UNL     1     -11.343  11.929  66.255  1.00  0.00    -0.334 C  
HETATM   24  C   UNL     1      -8.902  11.983  67.687  1.00  0.00    -0.172 C  
ENDBRANCH   1  18
TORSDOF 6
ENDMDL
MODEL      127
REMARK 921   NORMALIZED FREE ENERGY PREDICTED BY IDOCK:   -4.22 KCAL/MOL
REMARK 922        TOTAL FREE ENERGY PREDICTED BY IDOCK:   -6.83 KCAL/MOL
REMARK 923 INTER-LIGAND FREE ENERGY PREDICTED BY IDOCK:   -6.20 KCAL/MOL
REMARK 924 INTRA-LIGAND FREE ENERGY PREDICTED BY IDOCK:   -0.63 KCAL/MOL
REMARK 927      BINDING AFFINITY PREDICTED BY RF-SCORE:    0.00 PKD
ROOT
HETATM    1  C   UNL     1     -11.131  11.945  67.051  1.00  0.00    -0.302 C  
ENDROOT
BRANCH   1   2
HETATM    2  C   UNL     1     -10.233  11.345  65.978  1.00  0.00    -0.289 A  
HETATM    3  C   UNL     1      -9.888  10.640  63.675  1.00  0.00    -0.392 A  
HETATM    4  C   UNL     1      -9.015  10.730  66.318  1.00  0.00    -0.184 A  
HETATM    5  C   UNL     1      -8.263  10.055  65.357  1.00  0.00    -0.149 A  
HETATM    6  C   UNL     1      -8.704   9.999  64.036  1.00  0.00    -0.222 A  
HETATM    7  C   UNL     1     -10.646  11.311  64.638  1.00  0.00    -0.392 A  
ENDBRANCH   1   2
BRANCH   1   8
HETATM    8  O   UNL     1     -10.455  11.765  68.314  1.00  0.00    -0.192 OA 
BRANCH   8   9
HETATM    9  C   UNL     1     -10.931  10.917  69.274  1.00  0.00    -0.244 A  
HETATM   10  C   UNL     1     -12.605  10.116  70.850  1.00  0.00    -0.454 A  
HETATM   11  C   UNL     1     -10.403   9.154  70.867  1.00  0.00    -0.349 A  
HETATM   12  C   UNL     1     -11.685   9.231  71.401  1.00  0.00    -0.431 A  
HETATM   13  C   UNL     1     -12.230  10.952  69.792  1.00  0.00    -0.381 A  
HETATM   14  C   UNL     1     -10.029   9.966  69.789  1.00  0.00    -0.243 A  
BRANCH  14  15
HETATM   15  O   UNL     1      -8.738   9.753  69.367  1.00  0.00    -0.146 OA 
BRANCH  15  16
HETATM   16  C   UNL     1      -8.235   8.429  69.557  1.00  0.00    -0.118 C  
HETATM   17  C   UNL     1      -7.106   8.204  68.565  1.00  0.00    -0.076 C  
ENDBRANCH  15  16
ENDBRANCH  14  15
ENDBRANCH   8   9
ENDBRANCH   1   8
BRANCH   1  18
HETATM   18  C   UNL     1     -11.393  13.474  66.903  1.00  0.00    -0.326 C  
HETATM   19  N   UNL     1     -10.987  14.325  69.269  1.00  0.00    -0.287 NA 
HETATM   20  O   UNL     1     -10.206  14.182  66.469  1.00  0.00    -0.267 OA 
HETATM   21  H   UNL     1     -10.802  13.441  69.745  1.00  0.00     0.000 HD 
HETATM   22  C   UNL     1      -9.757  14.949  68.758  1.00  0.00    -0.225 C  
HETATM   23  C   UNL     1     -11.956  14.172  68.166  1.00  0.00    -0.332 C  
HETATM   24  C   UNL     1      -9.210  14.276  67.491  1.00  0.00    -0.197 C  
ENDBRANCH   1  18
TORSDOF 6
ENDMDL
MODEL      128
REMARK 921   NORMALIZED FREE ENERGY PREDICTED BY IDOCK:   -4.22 KCAL/MOL
REMARK 922        TOTAL FREE ENERGY PREDICTED BY IDOCK:   -6.82 KCAL/MOL
REMARK 923 INTER-LIGAND FREE ENERGY PREDICTED BY IDOCK:   -6.49 KCAL/MOL
REMARK 924 INTRA-LIGAND FREE ENERGY PREDICTED BY IDOCK:   -0.33 KCAL/MOL
REMARK 927      BINDING AFFINITY PREDICTED BY RF-SCORE:    0.00 PKD
ROOT
HETATM    1  C   UNL     1      -9.836  15.605  65.939  1.00  0.00    -0.350 C  
ENDROOT
BRANCH   1   2
HETATM    2  C   UNL     1     -10.235  16.957  66.515  1.00  0.00    -0.320 A  
HETATM    3  C   UNL     1     -10.639  19.337  66.214  1.00  0.00    -0.545 A  
HETATM    4  C   UNL     1     -10.344  17.144  67.905  1.00  0.00    -0.350 A  
HETATM    5  C   UNL     1     -10.567  18.412  68.439  1.00  0.00    -0.166 A  
HETATM    6  C   UNL     1     -10.704  19.513  67.595  1.00  0.00    -0.527 A  
HETATM    7  C   UNL     1     -10.409  18.067  65.677  1.00  0.00    -0.055 A  
ENDBRANCH   1   2
BRANCH   1   8
HETATM    8  O   UNL     1      -8.518  15.304  66.446  1.00  0.00    -0.238 OA 
BRANCH   8   9
HETATM    9  C   UNL     1      -7.643  16.287  66.813  1.00  0.00    -0.250 A  
HETATM   10  C   UNL     1      -6.187  18.191  66.383  1.00  0.00    -0.226 A  
HETATM   11  C   UNL     1      -6.176  17.154  68.551  1.00  0.00    -0.151 A  
HETATM   12  C   UNL     1      -5.678  18.113  67.675  1.00  0.00    -0.150 A  
HETATM   13  C   UNL     1      -7.164  17.284  65.956  1.00  0.00    -0.219 A  
HETATM   14  C   UNL     1      -7.176  16.263  68.141  1.00  0.00    -0.142 A  
BRANCH  14  15
HETATM   15  O   UNL     1      -7.572  15.395  69.130  1.00  0.00    -0.163 OA 
BRANCH  15  16
HETATM   16  C   UNL     1      -6.552  14.539  69.648  1.00  0.00    -0.153 C  
HETATM   17  C   UNL     1      -6.672  13.188  68.961  1.00  0.00    -0.103 C  
ENDBRANCH  15  16
ENDBRANCH  14  15
ENDBRANCH   8   9
ENDBRANCH   1   8
BRANCH   1  18
HETATM   18  C   UNL     1     -10.754  14.418  66.360  1.00  0.00    -0.306 C  
HETATM   19  N   UNL     1     -12.560  14.465  64.565  1.00  0.00    -0.673 NA 
HETATM   20  O   UNL     1     -10.283  13.159  65.822  1.00  0.00    -0.282 OA 
HETATM   21  H   UNL     1     -12.263  15.287  64.038  1.00  0.00     0.000 HD 
HETATM   22  C   UNL     1     -11.969  13.225  64.038  1.00  0.00    -0.465 C  
HETATM   23  C   UNL     1     -12.252  14.584  66.004  1.00  0.00    -0.252 C  
HETATM   24  C   UNL     1     -10.491  13.043  64.412  1.00  0.00    -0.404 C  
ENDBRANCH   1  18
TORSDOF 6
ENDMDL
MODEL      129
REMARK 921   NORMALIZED FREE ENERGY PREDICTED BY IDOCK:   -4.22 KCAL/MOL
REMARK 922        TOTAL FREE ENERGY PREDICTED BY IDOCK:   -6.82 KCAL/MOL
REMARK 923 INTER-LIGAND FREE ENERGY PREDICTED BY IDOCK:   -5.50 KCAL/MOL
REMARK 924 INTRA-LIGAND FREE ENERGY PREDICTED BY IDOCK:   -1.31 KCAL/MOL
REMARK 927      BINDING AFFINITY PREDICTED BY RF-SCORE:    0.00 PKD
ROOT
HETATM    1  C   UNL     1      -9.595   9.565  68.816  1.00  0.00    -0.157 C  
ENDROOT
BRANCH   1   2
HETATM    2  C   UNL     1      -8.971   9.603  67.428  1.00  0.00    -0.141 A  
HETATM    3  C   UNL     1      -7.229  10.394  65.925  1.00  0.00    -0.135 A  
HETATM    4  C   UNL     1      -9.659   9.092  66.314  1.00  0.00    -0.327 A  
HETATM    5  C   UNL     1      -9.154   9.256  65.025  1.00  0.00    -0.245 A  
HETATM    6  C   UNL     1      -7.944   9.917  64.827  1.00  0.00    -0.143 A  
HETATM    7  C   UNL     1      -7.738  10.236  67.217  1.00  0.00    -0.095 A  
ENDBRANCH   1   2
BRANCH   1   8
HETATM    8  O   UNL     1     -10.954  10.033  68.680  1.00  0.00    -0.227 OA 
BRANCH   8   9
HETATM    9  C   UNL     1     -11.333  11.281  69.085  1.00  0.00    -0.282 A  
HETATM   10  C   UNL     1     -11.185  13.711  69.108  1.00  0.00    -0.309 A  
HETATM   11  C   UNL     1     -12.616  12.595  70.683  1.00  0.00    -0.241 A  
HETATM   12  C   UNL     1     -12.067  13.770  70.182  1.00  0.00    -0.429 A  
HETATM   13  C   UNL     1     -10.822  12.474  68.563  1.00  0.00    -0.271 A  
HETATM   14  C   UNL     1     -12.281  11.355  70.124  1.00  0.00    -0.321 A  
BRANCH  14  15
HETATM   15  O   UNL     1     -12.925  10.296  70.718  1.00  0.00    -0.370 OA 
BRANCH  15  16
HETATM   16  C   UNL     1     -13.081  10.383  72.135  1.00  0.00    -0.324 C  
HETATM   17  C   UNL     1     -13.675   9.074  72.628  1.00  0.00    -0.422 C  
ENDBRANCH  15  16
ENDBRANCH  14  15
ENDBRANCH   8   9
ENDBRANCH   1   8
BRANCH   1  18
HETATM   18  C   UNL     1      -9.678   8.146  69.456  1.00  0.00    -0.170 C  
HETATM   19  N   UNL     1      -7.593   8.087  70.918  1.00  0.00    -0.075 NA 
HETATM   20  O   UNL     1     -10.491   8.145  70.654  1.00  0.00    -0.204 OA 
HETATM   21  H   UNL     1      -7.188   8.994  70.684  1.00  0.00     0.000 HD 
HETATM   22  C   UNL     1      -8.492   8.165  72.080  1.00  0.00    -0.161 C  
HETATM   23  C   UNL     1      -8.314   7.487  69.778  1.00  0.00    -0.134 C  
HETATM   24  C   UNL     1      -9.856   8.794  71.759  1.00  0.00    -0.321 C  
ENDBRANCH   1  18
TORSDOF 6
ENDMDL
MODEL      130
REMARK 921   NORMALIZED FREE ENERGY PREDICTED BY IDOCK:   -4.20 KCAL/MOL
REMARK 922        TOTAL FREE ENERGY PREDICTED BY IDOCK:   -6.80 KCAL/MOL
REMARK 923 INTER-LIGAND FREE ENERGY PREDICTED BY IDOCK:   -5.84 KCAL/MOL
REMARK 924 INTRA-LIGAND FREE ENERGY PREDICTED BY IDOCK:   -0.96 KCAL/MOL
REMARK 927      BINDING AFFINITY PREDICTED BY RF-SCORE:    0.00 PKD
ROOT
HETATM    1  C   UNL     1      -9.129   7.960  69.909  1.00  0.00    -0.146 C  
ENDROOT
BRANCH   1   2
HETATM    2  C   UNL     1      -9.395   7.039  68.727  1.00  0.00    -0.134 A  
HETATM    3  C   UNL     1      -8.587   5.836  66.773  1.00  0.00    -0.112 A  
HETATM    4  C   UNL     1     -10.710   6.720  68.342  1.00  0.00    -0.284 A  
HETATM    5  C   UNL     1     -10.958   5.996  67.177  1.00  0.00    -0.360 A  
HETATM    6  C   UNL     1      -9.897   5.563  66.384  1.00  0.00    -0.192 A  
HETATM    7  C   UNL     1      -8.337   6.566  67.937  1.00  0.00    -0.115 A  
ENDBRANCH   1   2
BRANCH   1   8
HETATM    8  O   UNL     1     -10.412   8.438  70.368  1.00  0.00    -0.205 OA 
BRANCH   8   9
HETATM    9  C   UNL     1     -10.907   9.654  69.992  1.00  0.00    -0.264 A  
HETATM   10  C   UNL     1     -11.072  11.589  68.523  1.00  0.00    -0.287 A  
HETATM   11  C   UNL     1     -12.186  11.617  70.652  1.00  0.00    -0.461 A  
HETATM   12  C   UNL     1     -11.845  12.258  69.465  1.00  0.00    -0.380 A  
HETATM   13  C   UNL     1     -10.608  10.294  68.784  1.00  0.00    -0.231 A  
HETATM   14  C   UNL     1     -11.750  10.311  70.909  1.00  0.00    -0.379 A  
BRANCH  14  15
HETATM   15  O   UNL     1     -12.190   9.816  72.112  1.00  0.00    -0.286 OA 
BRANCH  15  16
HETATM   16  C   UNL     1     -13.589   9.541  72.195  1.00  0.00    -0.424 C  
HETATM   17  C   UNL     1     -13.837   8.161  71.608  1.00  0.00    -0.434 C  
ENDBRANCH  15  16
ENDBRANCH  14  15
ENDBRANCH   8   9
ENDBRANCH   1   8
BRANCH   1  18
HETATM   18  C   UNL     1      -8.450   7.273  71.132  1.00  0.00    -0.116 C  
HETATM   19  N   UNL     1      -9.801   8.187  73.087  1.00  0.00    -0.260 NA 
HETATM   20  O   UNL     1      -9.009   5.961  71.388  1.00  0.00    -0.139 OA 
HETATM   21  H   UNL     1     -10.424   8.823  72.589  1.00  0.00     0.000 HD 
HETATM   22  C   UNL     1     -10.376   6.841  73.229  1.00  0.00    -0.269 C  
HETATM   23  C   UNL     1      -8.474   8.091  72.446  1.00  0.00    -0.156 C  
HETATM   24  C   UNL     1     -10.330   6.016  71.934  1.00  0.00    -0.209 C  
ENDBRANCH   1  18
TORSDOF 6
ENDMDL
MODEL      131
REMARK 921   NORMALIZED FREE ENERGY PREDICTED BY IDOCK:   -4.20 KCAL/MOL
REMARK 922        TOTAL FREE ENERGY PREDICTED BY IDOCK:   -6.80 KCAL/MOL
REMARK 923 INTER-LIGAND FREE ENERGY PREDICTED BY IDOCK:   -6.41 KCAL/MOL
REMARK 924 INTRA-LIGAND FREE ENERGY PREDICTED BY IDOCK:   -0.39 KCAL/MOL
REMARK 927      BINDING AFFINITY PREDICTED BY RF-SCORE:    0.00 PKD
ROOT
HETATM    1  C   UNL     1      -9.876  11.319  68.523  1.00  0.00    -0.197 C  
ENDROOT
BRANCH   1   2
HETATM    2  C   UNL     1     -10.445  12.592  67.912  1.00  0.00    -0.225 A  
HETATM    3  C   UNL     1     -10.409  15.014  67.683  1.00  0.00    -0.243 A  
HETATM    4  C   UNL     1     -11.660  12.573  67.205  1.00  0.00    -0.437 A  
HETATM    5  C   UNL     1     -12.253  13.758  66.771  1.00  0.00    -0.440 A  
HETATM    6  C   UNL     1     -11.634  14.981  67.019  1.00  0.00    -0.248 A  
HETATM    7  C   UNL     1      -9.816  13.828  68.124  1.00  0.00    -0.239 A  
ENDBRANCH   1   2
BRANCH   1   8
HETATM    8  O   UNL     1     -10.961  10.368  68.600  1.00  0.00    -0.215 OA 
BRANCH   8   9
HETATM    9  C   UNL     1     -11.384   9.851  69.791  1.00  0.00    -0.193 A  
HETATM   10  C   UNL     1     -11.572   8.097  71.470  1.00  0.00    -0.315 A  
HETATM   11  C   UNL     1     -12.866  10.109  71.705  1.00  0.00    -0.554 A  
HETATM   12  C   UNL     1     -12.516   8.845  72.167  1.00  0.00    -0.459 A  
HETATM   13  C   UNL     1     -11.009   8.599  70.291  1.00  0.00    -0.251 A  
HETATM   14  C   UNL     1     -12.285  10.631  70.543  1.00  0.00    -0.358 A  
BRANCH  14  15
HETATM   15  O   UNL     1     -12.720  11.897  70.235  1.00  0.00    -0.052 OA 
BRANCH  15  16
HETATM   16  C   UNL     1     -12.854  12.791  71.341  1.00  0.00    -0.275 C  
HETATM   17  C   UNL     1     -12.294  14.143  70.929  1.00  0.00    -0.438 C  
ENDBRANCH  15  16
ENDBRANCH  14  15
ENDBRANCH   8   9
ENDBRANCH   1   8
BRANCH   1  18
HETATM   18  C   UNL     1      -8.751  10.639  67.685  1.00  0.00    -0.121 C  
HETATM   19  N   UNL     1     -10.058   8.960  66.285  1.00  0.00    -0.359 NA 
HETATM   20  O   UNL     1      -8.457  11.384  66.478  1.00  0.00    -0.167 OA 
HETATM   21  H   UNL     1     -10.995   9.112  66.657  1.00  0.00     0.000 HD 
HETATM   22  C   UNL     1      -9.776   9.817  65.122  1.00  0.00    -0.268 C  
HETATM   23  C   UNL     1      -9.012   9.160  67.308  1.00  0.00    -0.123 C  
HETATM   24  C   UNL     1      -9.491  11.280  65.494  1.00  0.00    -0.229 C  
ENDBRANCH   1  18
TORSDOF 6
ENDMDL
MODEL      132
REMARK 921   NORMALIZED FREE ENERGY PREDICTED BY IDOCK:   -4.20 KCAL/MOL
REMARK 922        TOTAL FREE ENERGY PREDICTED BY IDOCK:   -6.80 KCAL/MOL
REMARK 923 INTER-LIGAND FREE ENERGY PREDICTED BY IDOCK:   -5.86 KCAL/MOL
REMARK 924 INTRA-LIGAND FREE ENERGY PREDICTED BY IDOCK:   -0.93 KCAL/MOL
REMARK 927      BINDING AFFINITY PREDICTED BY RF-SCORE:    0.00 PKD
ROOT
HETATM    1  C   UNL     1     -10.202  11.428  67.174  1.00  0.00    -0.202 C  
ENDROOT
BRANCH   1   2
HETATM    2  C   UNL     1     -10.852  11.803  65.850  1.00  0.00    -0.339 A  
HETATM    3  C   UNL     1     -10.718  12.035  63.432  1.00  0.00    -0.475 A  
HETATM    4  C   UNL     1     -12.086  12.477  65.816  1.00  0.00    -0.443 A  
HETATM    5  C   UNL     1     -12.611  12.948  64.614  1.00  0.00    -0.459 A  
HETATM    6  C   UNL     1     -11.922  12.737  63.421  1.00  0.00    -0.613 A  
HETATM    7  C   UNL     1     -10.188  11.568  64.637  1.00  0.00    -0.334 A  
ENDBRANCH   1   2
BRANCH   1   8
HETATM    8  O   UNL     1     -10.262  12.598  68.018  1.00  0.00    -0.217 OA 
BRANCH   8   9
HETATM    9  C   UNL     1      -9.533  13.721  67.748  1.00  0.00    -0.216 A  
HETATM   10  C   UNL     1      -9.264  16.038  67.048  1.00  0.00    -0.229 A  
HETATM   11  C   UNL     1      -7.319  14.666  67.384  1.00  0.00    -0.195 A  
HETATM   12  C   UNL     1      -7.882  15.883  67.013  1.00  0.00    -0.267 A  
HETATM   13  C   UNL     1     -10.083  14.964  67.414  1.00  0.00    -0.228 A  
HETATM   14  C   UNL     1      -8.131  13.596  67.781  1.00  0.00    -0.173 A  
BRANCH  14  15
HETATM   15  O   UNL     1      -7.420  12.474  68.135  1.00  0.00    -0.097 OA 
BRANCH  15  16
HETATM   16  C   UNL     1      -6.160  12.713  68.765  1.00  0.00    -0.071 C  
HETATM   17  C   UNL     1      -6.123  11.927  70.066  1.00  0.00    -0.153 C  
ENDBRANCH  15  16
ENDBRANCH  14  15
ENDBRANCH   8   9
ENDBRANCH   1   8
BRANCH   1  18
HETATM   18  C   UNL     1     -10.921  10.284  67.953  1.00  0.00    -0.292 C  
HETATM   19  N   UNL     1      -9.380   8.298  67.544  1.00  0.00    -0.139 NA 
HETATM   20  O   UNL     1     -10.538  10.265  69.350  1.00  0.00    -0.206 OA 
HETATM   21  H   UNL     1      -8.695   8.731  66.924  1.00  0.00     0.000 HD 
HETATM   22  C   UNL     1      -8.990   8.398  68.959  1.00  0.00    -0.147 C  
HETATM   23  C   UNL     1     -10.732   8.865  67.364  1.00  0.00    -0.155 C  
HETATM   24  C   UNL     1      -9.201   9.798  69.555  1.00  0.00    -0.213 C  
ENDBRANCH   1  18
TORSDOF 6
ENDMDL
MODEL      133
REMARK 921   NORMALIZED FREE ENERGY PREDICTED BY IDOCK:   -4.20 KCAL/MOL
REMARK 922        TOTAL FREE ENERGY PREDICTED BY IDOCK:   -6.79 KCAL/MOL
REMARK 923 INTER-LIGAND FREE ENERGY PREDICTED BY IDOCK:   -5.99 KCAL/MOL
REMARK 924 INTRA-LIGAND FREE ENERGY PREDICTED BY IDOCK:   -0.80 KCAL/MOL
REMARK 927      BINDING AFFINITY PREDICTED BY RF-SCORE:    0.00 PKD
ROOT
HETATM    1  C   UNL     1      -9.323  10.509  66.752  1.00  0.00    -0.157 C  
ENDROOT
BRANCH   1   2
HETATM    2  C   UNL     1      -9.914  11.411  65.678  1.00  0.00    -0.282 A  
HETATM    3  C   UNL     1     -10.636  13.616  64.946  1.00  0.00    -0.421 A  
HETATM    4  C   UNL     1     -10.501  10.868  64.522  1.00  0.00    -0.393 A  
HETATM    5  C   UNL     1     -11.170  11.682  63.609  1.00  0.00    -0.497 A  
HETATM    6  C   UNL     1     -11.247  13.057  63.825  1.00  0.00    -0.396 A  
HETATM    7  C   UNL     1      -9.971  12.800  65.864  1.00  0.00    -0.273 A  
ENDBRANCH   1   2
BRANCH   1   8
HETATM    8  O   UNL     1     -10.361   9.585  67.143  1.00  0.00    -0.229 OA 
BRANCH   8   9
HETATM    9  C   UNL     1     -10.513   9.174  68.437  1.00  0.00    -0.199 A  
HETATM   10  C   UNL     1     -10.794   7.499  70.182  1.00  0.00    -0.259 A  
HETATM   11  C   UNL     1     -10.993   9.830  70.732  1.00  0.00    -0.406 A  
HETATM   12  C   UNL     1     -11.048   8.495  71.119  1.00  0.00    -0.312 A  
HETATM   13  C   UNL     1     -10.527   7.837  68.850  1.00  0.00    -0.208 A  
HETATM   14  C   UNL     1     -10.697  10.178  69.408  1.00  0.00    -0.238 A  
BRANCH  14  15
HETATM   15  O   UNL     1     -10.661  11.535  69.195  1.00  0.00    -0.214 OA 
BRANCH  15  16
HETATM   16  C   UNL     1     -11.877  12.236  69.463  1.00  0.00    -0.315 C  
HETATM   17  C   UNL     1     -11.605  13.726  69.328  1.00  0.00    -0.362 C  
ENDBRANCH  15  16
ENDBRANCH  14  15
ENDBRANCH   8   9
ENDBRANCH   1   8
BRANCH   1  18
HETATM   18  C   UNL     1      -8.113   9.644  66.285  1.00  0.00    -0.112 C  
HETATM   19  N   UNL     1      -6.331  11.405  65.828  1.00  0.00    -0.384 NA 
HETATM   20  O   UNL     1      -7.327   9.171  67.406  1.00  0.00    -0.083 OA 
HETATM   21  H   UNL     1      -6.868  12.252  66.015  1.00  0.00     0.000 HD 
HETATM   22  C   UNL     1      -5.636  10.911  67.026  1.00  0.00    -0.058 C  
HETATM   23  C   UNL     1      -7.169  10.326  65.265  1.00  0.00    -0.134 C  
HETATM   24  C   UNL     1      -6.565  10.210  68.028  1.00  0.00    -0.058 C  
ENDBRANCH   1  18
TORSDOF 6
ENDMDL
MODEL      134
REMARK 921   NORMALIZED FREE ENERGY PREDICTED BY IDOCK:   -4.19 KCAL/MOL
REMARK 922        TOTAL FREE ENERGY PREDICTED BY IDOCK:   -6.79 KCAL/MOL
REMARK 923 INTER-LIGAND FREE ENERGY PREDICTED BY IDOCK:   -6.61 KCAL/MOL
REMARK 924 INTRA-LIGAND FREE ENERGY PREDICTED BY IDOCK:   -0.18 KCAL/MOL
REMARK 927      BINDING AFFINITY PREDICTED BY RF-SCORE:    0.00 PKD
ROOT
HETATM    1  C   UNL     1      -9.969  12.862  67.416  1.00  0.00    -0.217 C  
ENDROOT
BRANCH   1   2
HETATM    2  C   UNL     1      -8.745  13.278  68.220  1.00  0.00    -0.168 A  
HETATM    3  C   UNL     1      -7.291  15.025  69.087  1.00  0.00    -0.164 A  
HETATM    4  C   UNL     1      -7.802  12.324  68.645  1.00  0.00    -0.063 A  
HETATM    5  C   UNL     1      -6.611  12.718  69.253  1.00  0.00    -0.086 A  
HETATM    6  C   UNL     1      -6.349  14.070  69.465  1.00  0.00    -0.121 A  
HETATM    7  C   UNL     1      -8.482  14.632  68.471  1.00  0.00    -0.161 A  
ENDBRANCH   1   2
BRANCH   1   8
HETATM    8  O   UNL     1     -11.128  13.248  68.186  1.00  0.00    -0.239 OA 
BRANCH   8   9
HETATM    9  C   UNL     1     -11.577  12.504  69.239  1.00  0.00    -0.319 A  
HETATM   10  C   UNL     1     -12.125  10.416  70.365  1.00  0.00    -0.402 A  
HETATM   11  C   UNL     1     -12.734  12.507  71.381  1.00  0.00    -0.345 A  
HETATM   12  C   UNL     1     -12.736  11.116  71.400  1.00  0.00    -0.524 A  
HETATM   13  C   UNL     1     -11.548  11.106  69.293  1.00  0.00    -0.388 A  
HETATM   14  C   UNL     1     -12.132  13.206  70.327  1.00  0.00    -0.328 A  
BRANCH  14  15
HETATM   15  O   UNL     1     -12.197  14.571  70.469  1.00  0.00    -0.289 OA 
BRANCH  15  16
HETATM   16  C   UNL     1     -11.214  15.151  71.328  1.00  0.00    -0.275 C  
HETATM   17  C   UNL     1     -11.907  15.603  72.604  1.00  0.00    -0.590 C  
ENDBRANCH  15  16
ENDBRANCH  14  15
ENDBRANCH   8   9
ENDBRANCH   1   8
BRANCH   1  18
HETATM   18  C   UNL     1     -10.107  13.559  66.029  1.00  0.00    -0.310 C  
HETATM   19  N   UNL     1     -12.206  12.471  65.082  1.00  0.00    -0.494 NA 
HETATM   20  O   UNL     1     -10.828  14.812  66.128  1.00  0.00    -0.308 OA 
HETATM   21  H   UNL     1     -12.411  11.806  65.827  1.00  0.00     0.000 HD 
HETATM   22  C   UNL     1     -12.882  13.761  65.287  1.00  0.00    -0.384 C  
HETATM   23  C   UNL     1     -10.756  12.697  64.918  1.00  0.00    -0.299 C  
HETATM   24  C   UNL     1     -12.226  14.632  66.369  1.00  0.00    -0.137 C  
ENDBRANCH   1  18
TORSDOF 6
ENDMDL
MODEL      135
REMARK 921   NORMALIZED FREE ENERGY PREDICTED BY IDOCK:   -4.19 KCAL/MOL
REMARK 922        TOTAL FREE ENERGY PREDICTED BY IDOCK:   -6.78 KCAL/MOL
REMARK 923 INTER-LIGAND FREE ENERGY PREDICTED BY IDOCK:   -5.80 KCAL/MOL
REMARK 924 INTRA-LIGAND FREE ENERGY PREDICTED BY IDOCK:   -0.98 KCAL/MOL
REMARK 927      BINDING AFFINITY PREDICTED BY RF-SCORE:    0.00 PKD
ROOT
HETATM    1  C   UNL     1     -10.167   8.762  68.741  1.00  0.00    -0.206 C  
ENDROOT
BRANCH   1   2
HETATM    2  C   UNL     1      -8.809   9.444  68.646  1.00  0.00    -0.132 A  
HETATM    3  C   UNL     1      -6.919  10.529  69.728  1.00  0.00    -0.144 A  
HETATM    4  C   UNL     1      -8.284   9.834  67.402  1.00  0.00    -0.114 A  
HETATM    5  C   UNL     1      -7.112  10.586  67.325  1.00  0.00    -0.088 A  
HETATM    6  C   UNL     1      -6.434  10.943  68.489  1.00  0.00    -0.054 A  
HETATM    7  C   UNL     1      -8.097   9.782  69.806  1.00  0.00    -0.174 A  
ENDBRANCH   1   2
BRANCH   1   8
HETATM    8  O   UNL     1     -11.105   9.590  68.020  1.00  0.00    -0.157 OA 
BRANCH   8   9
HETATM    9  C   UNL     1     -11.366  10.878  68.392  1.00  0.00    -0.304 A  
HETATM   10  C   UNL     1     -12.016  12.608  69.977  1.00  0.00    -0.377 A  
HETATM   11  C   UNL     1     -11.759  13.164  67.654  1.00  0.00    -0.414 A  
HETATM   12  C   UNL     1     -12.087  13.544  68.951  1.00  0.00    -0.315 A  
HETATM   13  C   UNL     1     -11.656  11.284  69.699  1.00  0.00    -0.401 A  
HETATM   14  C   UNL     1     -11.369  11.849  67.372  1.00  0.00    -0.324 A  
BRANCH  14  15
HETATM   15  O   UNL     1     -11.058  11.644  66.049  1.00  0.00    -0.301 OA 
BRANCH  15  16
HETATM   16  C   UNL     1     -11.806  12.417  65.110  1.00  0.00    -0.388 C  
HETATM   17  C   UNL     1     -11.437  11.951  63.711  1.00  0.00    -0.542 C  
ENDBRANCH  15  16
ENDBRANCH  14  15
ENDBRANCH   8   9
ENDBRANCH   1   8
BRANCH   1  18
HETATM   18  C   UNL     1     -10.235   7.347  68.090  1.00  0.00    -0.187 C  
HETATM   19  N   UNL     1      -8.706   5.981  69.601  1.00  0.00    -0.132 NA 
HETATM   20  O   UNL     1     -11.365   6.585  68.581  1.00  0.00    -0.265 OA 
HETATM   21  H   UNL     1      -8.384   6.713  70.234  1.00  0.00     0.000 HD 
HETATM   22  C   UNL     1      -9.916   5.309  70.099  1.00  0.00    -0.243 C  
HETATM   23  C   UNL     1      -8.953   6.491  68.237  1.00  0.00    -0.121 C  
HETATM   24  C   UNL     1     -11.194   6.144  69.931  1.00  0.00    -0.414 C  
ENDBRANCH   1  18
TORSDOF 6
ENDMDL
MODEL      136
REMARK 921   NORMALIZED FREE ENERGY PREDICTED BY IDOCK:   -4.18 KCAL/MOL
REMARK 922        TOTAL FREE ENERGY PREDICTED BY IDOCK:   -6.77 KCAL/MOL
REMARK 923 INTER-LIGAND FREE ENERGY PREDICTED BY IDOCK:   -6.37 KCAL/MOL
REMARK 924 INTRA-LIGAND FREE ENERGY PREDICTED BY IDOCK:   -0.40 KCAL/MOL
REMARK 927      BINDING AFFINITY PREDICTED BY RF-SCORE:    0.00 PKD
ROOT
HETATM    1  C   UNL     1     -10.715   9.148  70.505  1.00  0.00    -0.238 C  
ENDROOT
BRANCH   1   2
HETATM    2  C   UNL     1     -10.239   7.740  70.175  1.00  0.00    -0.205 A  
HETATM    3  C   UNL     1     -10.651   5.558  69.180  1.00  0.00    -0.300 A  
HETATM    4  C   UNL     1      -9.062   7.224  70.746  1.00  0.00    -0.152 A  
HETATM    5  C   UNL     1      -8.703   5.890  70.560  1.00  0.00    -0.140 A  
HETATM    6  C   UNL     1      -9.503   5.052  69.786  1.00  0.00    -0.215 A  
HETATM    7  C   UNL     1     -11.016   6.894  69.370  1.00  0.00    -0.274 A  
ENDBRANCH   1   2
BRANCH   1   8
HETATM    8  O   UNL     1     -11.644   9.531  69.468  1.00  0.00     0.008 OA 
BRANCH   8   9
HETATM    9  C   UNL     1     -11.417  10.608  68.657  1.00  0.00    -0.263 A  
HETATM   10  C   UNL     1     -11.583  12.959  68.046  1.00  0.00    -0.385 A  
HETATM   11  C   UNL     1     -10.694  11.382  66.466  1.00  0.00    -0.325 A  
HETATM   12  C   UNL     1     -11.072  12.682  66.783  1.00  0.00    -0.318 A  
HETATM   13  C   UNL     1     -11.752  11.928  68.978  1.00  0.00    -0.391 A  
HETATM   14  C   UNL     1     -10.832  10.350  67.402  1.00  0.00    -0.286 A  
BRANCH  14  15
HETATM   15  O   UNL     1     -10.394   9.132  66.941  1.00  0.00    -0.254 OA 
BRANCH  15  16
HETATM   16  C   UNL     1      -8.978   8.994  66.807  1.00  0.00    -0.135 C  
HETATM   17  C   UNL     1      -8.674   7.546  66.457  1.00  0.00    -0.151 C  
ENDBRANCH  15  16
ENDBRANCH  14  15
ENDBRANCH   8   9
ENDBRANCH   1   8
BRANCH   1  18
HETATM   18  C   UNL     1     -11.483   9.278  71.856  1.00  0.00    -0.311 C  
HETATM   19  N   UNL     1     -13.913   9.319  71.096  1.00  0.00    -0.461 NA 
HETATM   20  O   UNL     1     -11.718   7.985  72.465  1.00  0.00    -0.367 OA 
HETATM   21  H   UNL     1     -13.783   9.293  70.085  1.00  0.00     0.000 HD 
HETATM   22  C   UNL     1     -14.044   7.974  71.676  1.00  0.00    -0.431 C  
HETATM   23  C   UNL     1     -12.825  10.046  71.780  1.00  0.00    -0.446 C  
HETATM   24  C   UNL     1     -12.711   7.218  71.777  1.00  0.00    -0.335 C  
ENDBRANCH   1  18
TORSDOF 6
ENDMDL
MODEL      137
REMARK 921   NORMALIZED FREE ENERGY PREDICTED BY IDOCK:   -4.18 KCAL/MOL
REMARK 922        TOTAL FREE ENERGY PREDICTED BY IDOCK:   -6.77 KCAL/MOL
REMARK 923 INTER-LIGAND FREE ENERGY PREDICTED BY IDOCK:   -5.52 KCAL/MOL
REMARK 924 INTRA-LIGAND FREE ENERGY PREDICTED BY IDOCK:   -1.26 KCAL/MOL
REMARK 927      BINDING AFFINITY PREDICTED BY RF-SCORE:    0.00 PKD
ROOT
HETATM    1  C   UNL     1      -9.357  10.937  67.183  1.00  0.00    -0.159 C  
ENDROOT
BRANCH   1   2
HETATM    2  C   UNL     1      -9.767  12.259  66.550  1.00  0.00    -0.242 A  
HETATM    3  C   UNL     1      -9.835  14.690  66.614  1.00  0.00    -0.280 A  
HETATM    4  C   UNL     1     -10.649  12.293  65.456  1.00  0.00    -0.304 A  
HETATM    5  C   UNL     1     -11.139  13.504  64.969  1.00  0.00    -0.338 A  
HETATM    6  C   UNL     1     -10.741  14.705  65.554  1.00  0.00    -0.360 A  
HETATM    7  C   UNL     1      -9.349  13.477  67.107  1.00  0.00    -0.240 A  
ENDBRANCH   1   2
BRANCH   1   8
HETATM    8  O   UNL     1     -10.574  10.231  67.509  1.00  0.00    -0.229 OA 
BRANCH   8   9
HETATM    9  C   UNL     1     -11.154  10.322  68.742  1.00  0.00    -0.228 A  
HETATM   10  C   UNL     1     -12.348  11.487  70.516  1.00  0.00    -0.432 A  
HETATM   11  C   UNL     1     -11.426   9.308  70.938  1.00  0.00    -0.367 A  
HETATM   12  C   UNL     1     -12.105  10.434  71.391  1.00  0.00    -0.424 A  
HETATM   13  C   UNL     1     -11.877  11.430  69.199  1.00  0.00    -0.413 A  
HETATM   14  C   UNL     1     -10.977   9.231  69.614  1.00  0.00    -0.175 A  
BRANCH  14  15
HETATM   15  O   UNL     1     -10.344   8.047  69.320  1.00  0.00    -0.214 OA 
BRANCH  15  16
HETATM   16  C   UNL     1     -10.699   6.934  70.144  1.00  0.00    -0.237 C  
HETATM   17  C   UNL     1     -10.199   5.667  69.470  1.00  0.00    -0.320 C  
ENDBRANCH  15  16
ENDBRANCH  14  15
ENDBRANCH   8   9
ENDBRANCH   1   8
BRANCH   1  18
HETATM   18  C   UNL     1      -8.535   9.995  66.251  1.00  0.00    -0.130 C  
HETATM   19  N   UNL     1      -6.172  10.907  66.506  1.00  0.00    -0.109 NA 
HETATM   20  O   UNL     1      -8.121   8.789  66.939  1.00  0.00    -0.100 OA 
HETATM   21  H   UNL     1      -6.354  11.702  67.119  1.00  0.00     0.000 HD 
HETATM   22  C   UNL     1      -5.856   9.684  67.261  1.00  0.00    -0.051 C  
HETATM   23  C   UNL     1      -7.296  10.642  65.586  1.00  0.00    -0.087 C  
HETATM   24  C   UNL     1      -7.087   9.024  67.900  1.00  0.00    -0.079 C  
ENDBRANCH   1  18
TORSDOF 6
ENDMDL
MODEL      138
REMARK 921   NORMALIZED FREE ENERGY PREDICTED BY IDOCK:   -4.15 KCAL/MOL
REMARK 922        TOTAL FREE ENERGY PREDICTED BY IDOCK:   -6.73 KCAL/MOL
REMARK 923 INTER-LIGAND FREE ENERGY PREDICTED BY IDOCK:   -6.06 KCAL/MOL
REMARK 924 INTRA-LIGAND FREE ENERGY PREDICTED BY IDOCK:   -0.68 KCAL/MOL
REMARK 927      BINDING AFFINITY PREDICTED BY RF-SCORE:    0.00 PKD
ROOT
HETATM    1  C   UNL     1     -10.272  15.298  66.239  1.00  0.00    -0.287 C  
ENDROOT
BRANCH   1   2
HETATM    2  C   UNL     1      -9.996  16.784  66.426  1.00  0.00    -0.317 A  
HETATM    3  C   UNL     1      -8.426  18.642  66.483  1.00  0.00    -0.302 A  
HETATM    4  C   UNL     1     -10.985  17.642  66.938  1.00  0.00     0.116 A  
HETATM    5  C   UNL     1     -10.690  18.970  67.245  1.00  0.00    -0.556 A  
HETATM    6  C   UNL     1      -9.407  19.469  67.028  1.00  0.00    -0.416 A  
HETATM    7  C   UNL     1      -8.719  17.309  66.181  1.00  0.00    -0.198 A  
ENDBRANCH   1   2
BRANCH   1   8
HETATM    8  O   UNL     1      -9.940  14.649  67.486  1.00  0.00    -0.222 OA 
BRANCH   8   9
HETATM    9  C   UNL     1      -8.658  14.596  67.954  1.00  0.00    -0.165 A  
HETATM   10  C   UNL     1      -6.340  13.851  67.905  1.00  0.00    -0.167 A  
HETATM   11  C   UNL     1      -7.149  15.087  69.800  1.00  0.00    -0.170 A  
HETATM   12  C   UNL     1      -6.120  14.403  69.162  1.00  0.00    -0.094 A  
HETATM   13  C   UNL     1      -7.601  13.949  67.304  1.00  0.00    -0.079 A  
HETATM   14  C   UNL     1      -8.405  15.216  69.193  1.00  0.00    -0.221 A  
BRANCH  14  15
HETATM   15  O   UNL     1      -9.302  15.937  69.943  1.00  0.00    -0.110 OA 
BRANCH  15  16
HETATM   16  C   UNL     1     -10.425  15.205  70.437  1.00  0.00    -0.075 C  
HETATM   17  C   UNL     1     -11.666  16.067  70.266  1.00  0.00    -0.304 C  
ENDBRANCH  15  16
ENDBRANCH  14  15
ENDBRANCH   8   9
ENDBRANCH   1   8
BRANCH   1  18
HETATM   18  C   UNL     1     -11.759  14.943  65.938  1.00  0.00    -0.175 C  
HETATM   19  N   UNL     1     -11.575  13.645  63.755  1.00  0.00    -0.640 NA 
HETATM   20  O   UNL     1     -12.164  13.722  66.604  1.00  0.00    -0.426 OA 
HETATM   21  H   UNL     1     -10.572  13.723  63.587  1.00  0.00     0.000 HD 
HETATM   22  C   UNL     1     -11.919  12.440  64.524  1.00  0.00    -0.402 C  
HETATM   23  C   UNL     1     -12.121  14.836  64.436  1.00  0.00    -0.440 C  
HETATM   24  C   UNL     1     -11.587  12.551  66.019  1.00  0.00    -0.406 C  
ENDBRANCH   1  18
TORSDOF 6
ENDMDL
MODEL      139
REMARK 921   NORMALIZED FREE ENERGY PREDICTED BY IDOCK:   -4.15 KCAL/MOL
REMARK 922        TOTAL FREE ENERGY PREDICTED BY IDOCK:   -6.72 KCAL/MOL
REMARK 923 INTER-LIGAND FREE ENERGY PREDICTED BY IDOCK:   -6.26 KCAL/MOL
REMARK 924 INTRA-LIGAND FREE ENERGY PREDICTED BY IDOCK:   -0.47 KCAL/MOL
REMARK 927      BINDING AFFINITY PREDICTED BY RF-SCORE:    0.00 PKD
ROOT
HETATM    1  C   UNL     1      -9.775  14.286  66.509  1.00  0.00    -0.291 C  
ENDROOT
BRANCH   1   2
HETATM    2  C   UNL     1      -8.665  15.272  66.843  1.00  0.00    -0.288 A  
HETATM    3  C   UNL     1      -7.431  17.305  66.328  1.00  0.00    -0.354 A  
HETATM    4  C   UNL     1      -7.698  14.967  67.817  1.00  0.00    -0.168 A  
HETATM    5  C   UNL     1      -6.601  15.803  68.022  1.00  0.00    -0.147 A  
HETATM    6  C   UNL     1      -6.460  16.968  67.270  1.00  0.00    -0.194 A  
HETATM    7  C   UNL     1      -8.527  16.465  66.118  1.00  0.00    -0.329 A  
ENDBRANCH   1   2
BRANCH   1   8
HETATM    8  O   UNL     1      -9.481  13.064  67.220  1.00  0.00    -0.210 OA 
BRANCH   8   9
HETATM    9  C   UNL     1      -8.820  12.025  66.629  1.00  0.00    -0.191 A  
HETATM   10  C   UNL     1      -6.895  10.578  66.270  1.00  0.00    -0.127 A  
HETATM   11  C   UNL     1      -8.798  10.404  64.813  1.00  0.00    -0.211 A  
HETATM   12  C   UNL     1      -7.513  10.003  65.165  1.00  0.00    -0.139 A  
HETATM   13  C   UNL     1      -7.545  11.582  66.997  1.00  0.00    -0.154 A  
HETATM   14  C   UNL     1      -9.468  11.386  65.554  1.00  0.00    -0.227 A  
BRANCH  14  15
HETATM   15  O   UNL     1     -10.733  11.651  65.090  1.00  0.00    -0.282 OA 
BRANCH  15  16
HETATM   16  C   UNL     1     -10.823  12.025  63.714  1.00  0.00    -0.420 C  
HETATM   17  C   UNL     1     -12.163  12.709  63.494  1.00  0.00    -0.638 C  
ENDBRANCH  15  16
ENDBRANCH  14  15
ENDBRANCH   8   9
ENDBRANCH   1   8
BRANCH   1  18
HETATM   18  C   UNL     1     -11.200  14.729  66.961  1.00  0.00    -0.345 C  
HETATM   19  N   UNL     1     -12.153  12.577  67.933  1.00  0.00    -0.373 NA 
HETATM   20  O   UNL     1     -11.186  15.298  68.293  1.00  0.00    -0.285 OA 
HETATM   21  H   UNL     1     -11.382  11.938  67.738  1.00  0.00     0.000 HD 
HETATM   22  C   UNL     1     -12.034  13.205  69.258  1.00  0.00    -0.292 C  
HETATM   23  C   UNL     1     -12.284  13.625  66.902  1.00  0.00    -0.352 C  
HETATM   24  C   UNL     1     -10.978  14.318  69.315  1.00  0.00    -0.241 C  
ENDBRANCH   1  18
TORSDOF 6
ENDMDL
MODEL      140
REMARK 921   NORMALIZED FREE ENERGY PREDICTED BY IDOCK:   -4.13 KCAL/MOL
REMARK 922        TOTAL FREE ENERGY PREDICTED BY IDOCK:   -6.70 KCAL/MOL
REMARK 923 INTER-LIGAND FREE ENERGY PREDICTED BY IDOCK:   -6.09 KCAL/MOL
REMARK 924 INTRA-LIGAND FREE ENERGY PREDICTED BY IDOCK:   -0.61 KCAL/MOL
REMARK 927      BINDING AFFINITY PREDICTED BY RF-SCORE:    0.00 PKD
ROOT
HETATM    1  C   UNL     1     -10.534  10.032  66.376  1.00  0.00    -0.129 C  
ENDROOT
BRANCH   1   2
HETATM    2  C   UNL     1      -9.951   8.629  66.467  1.00  0.00    -0.353 A  
HETATM    3  C   UNL     1      -8.125   7.078  66.046  1.00  0.00    -0.122 A  
HETATM    4  C   UNL     1     -10.756   7.535  66.832  1.00  0.00    -0.299 A  
HETATM    5  C   UNL     1     -10.262   6.233  66.776  1.00  0.00    -0.262 A  
HETATM    6  C   UNL     1      -8.948   6.001  66.372  1.00  0.00    -0.150 A  
HETATM    7  C   UNL     1      -8.621   8.383  66.096  1.00  0.00    -0.157 A  
ENDBRANCH   1   2
BRANCH   1   8
HETATM    8  O   UNL     1     -10.589  10.553  67.722  1.00  0.00    -0.206 OA 
BRANCH   8   9
HETATM    9  C   UNL     1      -9.570  10.361  68.613  1.00  0.00    -0.166 A  
HETATM   10  C   UNL     1      -7.288  10.632  69.416  1.00  0.00    -0.133 A  
HETATM   11  C   UNL     1      -8.773   9.118  70.547  1.00  0.00    -0.258 A  
HETATM   12  C   UNL     1      -7.513   9.693  70.417  1.00  0.00    -0.168 A  
HETATM   13  C   UNL     1      -8.311  10.965  68.521  1.00  0.00    -0.142 A  
HETATM   14  C   UNL     1      -9.810   9.468  69.674  1.00  0.00    -0.205 A  
BRANCH  14  15
HETATM   15  O   UNL     1     -10.994   8.827  69.950  1.00  0.00    -0.239 OA 
BRANCH  15  16
HETATM   16  C   UNL     1     -10.913   7.751  70.886  1.00  0.00    -0.250 C  
HETATM   17  C   UNL     1     -11.639   6.553  70.295  1.00  0.00    -0.473 C  
ENDBRANCH  15  16
ENDBRANCH  14  15
ENDBRANCH   8   9
ENDBRANCH   1   8
BRANCH   1  18
HETATM   18  C   UNL     1      -9.682  11.041  65.547  1.00  0.00    -0.229 C  
HETATM   19  N   UNL     1     -10.930  11.107  63.328  1.00  0.00    -0.794 NA 
HETATM   20  O   UNL     1     -10.086  12.410  65.790  1.00  0.00    -0.247 OA 
HETATM   21  H   UNL     1     -11.655  10.414  63.512  1.00  0.00     0.000 HD 
HETATM   22  C   UNL     1     -11.357  12.468  63.689  1.00  0.00    -0.485 C  
HETATM   23  C   UNL     1      -9.665  10.789  64.019  1.00  0.00    -0.313 C  
HETATM   24  C   UNL     1     -11.351  12.730  65.202  1.00  0.00    -0.311 C  
ENDBRANCH   1  18
TORSDOF 6
ENDMDL
MODEL      141
REMARK 921   NORMALIZED FREE ENERGY PREDICTED BY IDOCK:   -4.11 KCAL/MOL
REMARK 922        TOTAL FREE ENERGY PREDICTED BY IDOCK:   -6.67 KCAL/MOL
REMARK 923 INTER-LIGAND FREE ENERGY PREDICTED BY IDOCK:   -5.80 KCAL/MOL
REMARK 924 INTRA-LIGAND FREE ENERGY PREDICTED BY IDOCK:   -0.87 KCAL/MOL
REMARK 927      BINDING AFFINITY PREDICTED BY RF-SCORE:    0.00 PKD
ROOT
HETATM    1  C   UNL     1      -9.720  13.453  67.012  1.00  0.00    -0.239 C  
ENDROOT
BRANCH   1   2
HETATM    2  C   UNL     1     -10.607  13.144  65.814  1.00  0.00    -0.293 A  
HETATM    3  C   UNL     1     -12.782  12.537  64.907  1.00  0.00    -0.371 A  
HETATM    4  C   UNL     1     -10.053  12.946  64.537  1.00  0.00    -0.259 A  
HETATM    5  C   UNL     1     -10.845  12.522  63.471  1.00  0.00    -0.443 A  
HETATM    6  C   UNL     1     -12.209  12.306  63.657  1.00  0.00    -0.665 A  
HETATM    7  C   UNL     1     -11.987  12.956  65.978  1.00  0.00    -0.505 A  
ENDBRANCH   1   2
BRANCH   1   8
HETATM    8  O   UNL     1     -10.320  14.569  67.703  1.00  0.00    -0.236 OA 
BRANCH   8   9
HETATM    9  C   UNL     1      -9.924  15.857  67.476  1.00  0.00    -0.238 A  
HETATM   10  C   UNL     1     -10.034  18.012  66.348  1.00  0.00    -0.362 A  
HETATM   11  C   UNL     1      -8.227  17.557  67.866  1.00  0.00    -0.231 A  
HETATM   12  C   UNL     1      -8.853  18.411  66.964  1.00  0.00    -0.271 A  
HETATM   13  C   UNL     1     -10.566  16.743  66.604  1.00  0.00    -0.198 A  
HETATM   14  C   UNL     1      -8.770  16.298  68.151  1.00  0.00    -0.182 A  
BRANCH  14  15
HETATM   15  O   UNL     1      -8.044  15.588  69.077  1.00  0.00    -0.182 OA 
BRANCH  15  16
HETATM   16  C   UNL     1      -6.637  15.832  69.080  1.00  0.00    -0.134 C  
HETATM   17  C   UNL     1      -6.014  15.000  70.190  1.00  0.00    -0.147 C  
ENDBRANCH  15  16
ENDBRANCH  14  15
ENDBRANCH   8   9
ENDBRANCH   1   8
BRANCH   1  18
HETATM   18  C   UNL     1      -9.604  12.298  68.053  1.00  0.00    -0.206 C  
HETATM   19  N   UNL     1      -9.021  10.300  66.585  1.00  0.00    -0.140 NA 
HETATM   20  O   UNL     1      -8.278  12.231  68.632  1.00  0.00    -0.115 OA 
HETATM   21  H   UNL     1      -9.058  10.740  65.665  1.00  0.00     0.000 HD 
HETATM   22  C   UNL     1      -7.673  10.352  67.172  1.00  0.00    -0.100 C  
HETATM   23  C   UNL     1      -9.990  10.894  67.527  1.00  0.00    -0.174 C  
HETATM   24  C   UNL     1      -7.295  11.736  67.718  1.00  0.00    -0.106 C  
ENDBRANCH   1  18
TORSDOF 6
ENDMDL
MODEL      142
REMARK 921   NORMALIZED FREE ENERGY PREDICTED BY IDOCK:   -4.07 KCAL/MOL
REMARK 922        TOTAL FREE ENERGY PREDICTED BY IDOCK:   -6.63 KCAL/MOL
REMARK 923 INTER-LIGAND FREE ENERGY PREDICTED BY IDOCK:   -6.13 KCAL/MOL
REMARK 924 INTRA-LIGAND FREE ENERGY PREDICTED BY IDOCK:   -0.50 KCAL/MOL
REMARK 927      BINDING AFFINITY PREDICTED BY RF-SCORE:    0.00 PKD
ROOT
HETATM    1  C   UNL     1      -9.139  10.187  67.715  1.00  0.00    -0.130 C  
ENDROOT
BRANCH   1   2
HETATM    2  C   UNL     1     -10.004  10.192  68.968  1.00  0.00    -0.216 A  
HETATM    3  C   UNL     1     -10.547   9.273  71.154  1.00  0.00    -0.402 A  
HETATM    4  C   UNL     1     -11.193  10.941  69.020  1.00  0.00    -0.327 A  
HETATM    5  C   UNL     1     -12.058  10.833  70.108  1.00  0.00    -0.427 A  
HETATM    6  C   UNL     1     -11.742   9.990  71.172  1.00  0.00    -0.472 A  
HETATM    7  C   UNL     1      -9.682   9.375  70.061  1.00  0.00    -0.255 A  
ENDBRANCH   1   2
BRANCH   1   8
HETATM    8  O   UNL     1      -9.203  11.516  67.154  1.00  0.00    -0.165 OA 
BRANCH   8   9
HETATM    9  C   UNL     1      -9.907  11.786  66.015  1.00  0.00    -0.232 A  
HETATM   10  C   UNL     1     -10.859  11.219  63.847  1.00  0.00    -0.427 A  
HETATM   11  C   UNL     1     -10.908  13.499  64.605  1.00  0.00    -0.416 A  
HETATM   12  C   UNL     1     -11.182  12.553  63.623  1.00  0.00    -0.545 A  
HETATM   13  C   UNL     1     -10.227  10.839  65.036  1.00  0.00    -0.373 A  
HETATM   14  C   UNL     1     -10.303  13.122  65.811  1.00  0.00    -0.289 A  
BRANCH  14  15
HETATM   15  O   UNL     1     -10.122  14.169  66.682  1.00  0.00    -0.262 OA 
BRANCH  15  16
HETATM   16  C   UNL     1     -11.299  14.636  67.343  1.00  0.00    -0.356 C  
HETATM   17  C   UNL     1     -11.001  16.006  67.931  1.00  0.00    -0.327 C  
ENDBRANCH  15  16
ENDBRANCH  14  15
ENDBRANCH   8   9
ENDBRANCH   1   8
BRANCH   1  18
HETATM   18  C   UNL     1      -7.630   9.885  67.965  1.00  0.00    -0.085 C  
HETATM   19  N   UNL     1      -7.290   7.716  66.676  1.00  0.00    -0.086 NA 
HETATM   20  O   UNL     1      -6.782  10.563  67.006  1.00  0.00    -0.076 OA 
HETATM   21  H   UNL     1      -8.243   7.550  66.354  1.00  0.00     0.000 HD 
HETATM   22  C   UNL     1      -6.504   8.497  65.708  1.00  0.00    -0.053 C  
HETATM   23  C   UNL     1      -7.253   8.384  67.992  1.00  0.00    -0.091 C  
HETATM   24  C   UNL     1      -6.856   9.992  65.697  1.00  0.00    -0.114 C  
ENDBRANCH   1  18
TORSDOF 6
ENDMDL
MODEL      143
REMARK 921   NORMALIZED FREE ENERGY PREDICTED BY IDOCK:   -4.07 KCAL/MOL
REMARK 922        TOTAL FREE ENERGY PREDICTED BY IDOCK:   -6.62 KCAL/MOL
REMARK 923 INTER-LIGAND FREE ENERGY PREDICTED BY IDOCK:   -5.82 KCAL/MOL
REMARK 924 INTRA-LIGAND FREE ENERGY PREDICTED BY IDOCK:   -0.81 KCAL/MOL
REMARK 927      BINDING AFFINITY PREDICTED BY RF-SCORE:    0.00 PKD
ROOT
HETATM    1  C   UNL     1      -9.630  12.601  67.750  1.00  0.00    -0.197 C  
ENDROOT
BRANCH   1   2
HETATM    2  C   UNL     1     -10.694  12.853  66.692  1.00  0.00    -0.280 A  
HETATM    3  C   UNL     1     -11.513  12.558  64.420  1.00  0.00    -0.406 A  
HETATM    4  C   UNL     1     -11.721  13.789  66.908  1.00  0.00    -0.424 A  
HETATM    5  C   UNL     1     -12.609  14.126  65.888  1.00  0.00    -0.447 A  
HETATM    6  C   UNL     1     -12.500  13.519  64.638  1.00  0.00    -0.372 A  
HETATM    7  C   UNL     1     -10.618  12.225  65.439  1.00  0.00    -0.309 A  
ENDBRANCH   1   2
BRANCH   1   8
HETATM    8  O   UNL     1      -9.696  11.199  68.089  1.00  0.00    -0.169 OA 
BRANCH   8   9
HETATM    9  C   UNL     1     -10.440  10.744  69.141  1.00  0.00    -0.218 A  
HETATM   10  C   UNL     1     -12.339  10.803  70.664  1.00  0.00    -0.465 A  
HETATM   11  C   UNL     1     -10.523   9.288  71.089  1.00  0.00    -0.401 A  
HETATM   12  C   UNL     1     -11.745   9.834  71.465  1.00  0.00    -0.450 A  
HETATM   13  C   UNL     1     -11.690  11.253  69.508  1.00  0.00    -0.415 A  
HETATM   14  C   UNL     1      -9.881   9.712  69.918  1.00  0.00    -0.239 A  
BRANCH  14  15
HETATM   15  O   UNL     1      -8.696   9.060  69.679  1.00  0.00    -0.132 OA 
BRANCH  15  16
HETATM   16  C   UNL     1      -8.749   7.634  69.747  1.00  0.00    -0.140 C  
HETATM   17  C   UNL     1      -7.333   7.099  69.597  1.00  0.00    -0.085 C  
ENDBRANCH  15  16
ENDBRANCH  14  15
ENDBRANCH   8   9
ENDBRANCH   1   8
BRANCH   1  18
HETATM   18  C   UNL     1      -8.168  12.875  67.284  1.00  0.00    -0.176 C  
HETATM   19  N   UNL     1      -7.380  14.619  68.963  1.00  0.00    -0.128 NA 
HETATM   20  O   UNL     1      -7.235  11.929  67.862  1.00  0.00    -0.083 OA 
HETATM   21  H   UNL     1      -8.238  14.748  69.500  1.00  0.00     0.000 HD 
HETATM   22  C   UNL     1      -6.517  13.575  69.538  1.00  0.00    -0.089 C  
HETATM   23  C   UNL     1      -7.649  14.310  67.545  1.00  0.00    -0.184 C  
HETATM   24  C   UNL     1      -7.014  12.149  69.258  1.00  0.00    -0.010 C  
ENDBRANCH   1  18
TORSDOF 6
ENDMDL
MODEL      144
REMARK 921   NORMALIZED FREE ENERGY PREDICTED BY IDOCK:   -4.07 KCAL/MOL
REMARK 922        TOTAL FREE ENERGY PREDICTED BY IDOCK:   -6.62 KCAL/MOL
REMARK 923 INTER-LIGAND FREE ENERGY PREDICTED BY IDOCK:   -6.21 KCAL/MOL
REMARK 924 INTRA-LIGAND FREE ENERGY PREDICTED BY IDOCK:   -0.40 KCAL/MOL
REMARK 927      BINDING AFFINITY PREDICTED BY RF-SCORE:    0.00 PKD
ROOT
HETATM    1  C   UNL     1      -9.463   8.208  68.530  1.00  0.00    -0.143 C  
ENDROOT
BRANCH   1   2
HETATM    2  C   UNL     1      -9.541   6.840  67.868  1.00  0.00    -0.125 A  
HETATM    3  C   UNL     1      -8.442   4.812  67.093  1.00  0.00    -0.105 A  
HETATM    4  C   UNL     1     -10.712   6.421  67.212  1.00  0.00    -0.426 A  
HETATM    5  C   UNL     1     -10.737   5.232  66.484  1.00  0.00    -0.290 A  
HETATM    6  C   UNL     1      -9.598   4.431  66.414  1.00  0.00    -0.205 A  
HETATM    7  C   UNL     1      -8.414   6.006  67.818  1.00  0.00    -0.107 A  
ENDBRANCH   1   2
BRANCH   1   8
HETATM    8  O   UNL     1     -10.623   8.951  68.097  1.00  0.00    -0.214 OA 
BRANCH   8   9
HETATM    9  C   UNL     1     -10.548   9.904  67.120  1.00  0.00    -0.228 A  
HETATM   10  C   UNL     1      -9.740  10.814  65.012  1.00  0.00    -0.323 A  
HETATM   11  C   UNL     1     -11.042  12.200  66.482  1.00  0.00    -0.352 A  
HETATM   12  C   UNL     1     -10.316  12.046  65.305  1.00  0.00    -0.311 A  
HETATM   13  C   UNL     1      -9.858   9.750  65.913  1.00  0.00    -0.352 A  
HETATM   14  C   UNL     1     -11.189  11.131  67.375  1.00  0.00    -0.294 A  
BRANCH  14  15
HETATM   15  O   UNL     1     -11.952  11.441  68.475  1.00  0.00    -0.498 OA 
BRANCH  15  16
HETATM   16  C   UNL     1     -11.332  12.296  69.438  1.00  0.00    -0.228 C  
HETATM   17  C   UNL     1     -12.252  13.481  69.682  1.00  0.00    -0.304 C  
ENDBRANCH  15  16
ENDBRANCH  14  15
ENDBRANCH   8   9
ENDBRANCH   1   8
BRANCH   1  18
HETATM   18  C   UNL     1      -9.511   8.184  70.088  1.00  0.00    -0.167 C  
HETATM   19  N   UNL     1     -11.939   8.783  70.567  1.00  0.00    -0.473 NA 
HETATM   20  O   UNL     1      -9.763   6.851  70.596  1.00  0.00    -0.175 OA 
HETATM   21  H   UNL     1     -12.272   8.943  69.616  1.00  0.00     0.000 HD 
HETATM   22  C   UNL     1     -12.126   7.387  70.993  1.00  0.00    -0.298 C  
HETATM   23  C   UNL     1     -10.522   9.163  70.733  1.00  0.00    -0.257 C  
HETATM   24  C   UNL     1     -11.108   6.417  70.377  1.00  0.00    -0.339 C  
ENDBRANCH   1  18
TORSDOF 6
ENDMDL
MODEL      145
REMARK 921   NORMALIZED FREE ENERGY PREDICTED BY IDOCK:   -4.02 KCAL/MOL
REMARK 922        TOTAL FREE ENERGY PREDICTED BY IDOCK:   -6.56 KCAL/MOL
REMARK 923 INTER-LIGAND FREE ENERGY PREDICTED BY IDOCK:   -5.21 KCAL/MOL
REMARK 924 INTRA-LIGAND FREE ENERGY PREDICTED BY IDOCK:   -1.34 KCAL/MOL
REMARK 927      BINDING AFFINITY PREDICTED BY RF-SCORE:    0.00 PKD
ROOT
HETATM    1  C   UNL     1      -9.556   7.676  68.399  1.00  0.00    -0.151 C  
ENDROOT
BRANCH   1   2
HETATM    2  C   UNL     1      -8.597   8.817  68.710  1.00  0.00    -0.137 A  
HETATM    3  C   UNL     1      -8.140  11.203  68.848  1.00  0.00    -0.115 A  
HETATM    4  C   UNL     1      -7.228   8.573  68.917  1.00  0.00    -0.078 A  
HETATM    5  C   UNL     1      -6.327   9.627  69.058  1.00  0.00    -0.041 A  
HETATM    6  C   UNL     1      -6.780  10.944  69.012  1.00  0.00    -0.070 A  
HETATM    7  C   UNL     1      -9.043  10.147  68.701  1.00  0.00    -0.143 A  
ENDBRANCH   1   2
BRANCH   1   8
HETATM    8  O   UNL     1     -10.702   7.843  69.262  1.00  0.00    -0.211 OA 
BRANCH   8   9
HETATM    9  C   UNL     1     -10.741   7.313  70.521  1.00  0.00    -0.232 A  
HETATM   10  C   UNL     1     -10.811   5.478  72.119  1.00  0.00    -0.293 A  
HETATM   11  C   UNL     1     -11.097   7.736  72.891  1.00  0.00    -0.457 A  
HETATM   12  C   UNL     1     -11.052   6.371  73.158  1.00  0.00    -0.194 A  
HETATM   13  C   UNL     1     -10.656   5.947  70.810  1.00  0.00    -0.330 A  
HETATM   14  C   UNL     1     -10.912   8.215  71.588  1.00  0.00    -0.250 A  
BRANCH  14  15
HETATM   15  O   UNL     1     -10.964   9.585  71.498  1.00  0.00    -0.364 OA 
BRANCH  15  16
HETATM   16  C   UNL     1     -12.271  10.149  71.375  1.00  0.00    -0.397 C  
HETATM   17  C   UNL     1     -12.198  11.303  70.389  1.00  0.00    -0.453 C  
ENDBRANCH  15  16
ENDBRANCH  14  15
ENDBRANCH   8   9
ENDBRANCH   1   8
BRANCH   1  18
HETATM   18  C   UNL     1     -10.101   7.661  66.939  1.00  0.00    -0.278 C  
HETATM   19  N   UNL     1      -8.348   6.273  65.720  1.00  0.00    -0.139 NA 
HETATM   20  O   UNL     1     -11.057   6.592  66.735  1.00  0.00    -0.362 OA 
HETATM   21  H   UNL     1      -7.690   6.111  66.482  1.00  0.00     0.000 HD 
HETATM   22  C   UNL     1      -9.359   5.208  65.624  1.00  0.00    -0.138 C  
HETATM   23  C   UNL     1      -9.021   7.582  65.832  1.00  0.00    -0.089 C  
HETATM   24  C   UNL     1     -10.447   5.298  66.704  1.00  0.00    -0.290 C  
ENDBRANCH   1  18
TORSDOF 6
ENDMDL
MODEL      146
REMARK 921   NORMALIZED FREE ENERGY PREDICTED BY IDOCK:   -4.02 KCAL/MOL
REMARK 922        TOTAL FREE ENERGY PREDICTED BY IDOCK:   -6.55 KCAL/MOL
REMARK 923 INTER-LIGAND FREE ENERGY PREDICTED BY IDOCK:   -5.54 KCAL/MOL
REMARK 924 INTRA-LIGAND FREE ENERGY PREDICTED BY IDOCK:   -1.01 KCAL/MOL
REMARK 927      BINDING AFFINITY PREDICTED BY RF-SCORE:    0.00 PKD
ROOT
HETATM    1  C   UNL     1      -9.671   8.115  67.834  1.00  0.00    -0.161 C  
ENDROOT
BRANCH   1   2
HETATM    2  C   UNL     1      -8.486   8.653  67.044  1.00  0.00    -0.110 A  
HETATM    3  C   UNL     1      -7.599   9.712  65.041  1.00  0.00    -0.116 A  
HETATM    4  C   UNL     1      -7.166   8.391  67.454  1.00  0.00    -0.088 A  
HETATM    5  C   UNL     1      -6.084   8.758  66.656  1.00  0.00    -0.057 A  
HETATM    6  C   UNL     1      -6.299   9.409  65.443  1.00  0.00    -0.066 A  
HETATM    7  C   UNL     1      -8.685   9.340  65.837  1.00  0.00    -0.179 A  
ENDBRANCH   1   2
BRANCH   1   8
HETATM    8  O   UNL     1     -10.643   9.180  67.910  1.00  0.00    -0.240 OA 
BRANCH   8   9
HETATM    9  C   UNL     1     -11.122   9.637  69.105  1.00  0.00    -0.092 A  
HETATM   10  C   UNL     1     -11.561   9.467  71.494  1.00  0.00    -0.465 A  
HETATM   11  C   UNL     1     -12.500  11.290  70.241  1.00  0.00    -0.330 A  
HETATM   12  C   UNL     1     -12.354  10.609  71.445  1.00  0.00    -0.455 A  
HETATM   13  C   UNL     1     -10.948   8.986  70.332  1.00  0.00    -0.283 A  
HETATM   14  C   UNL     1     -11.865  10.832  69.080  1.00  0.00    -0.254 A  
BRANCH  14  15
HETATM   15  O   UNL     1     -12.093  11.629  67.984  1.00  0.00    -0.597 OA 
BRANCH  15  16
HETATM   16  C   UNL     1     -11.674  12.989  68.108  1.00  0.00    -0.351 C  
HETATM   17  C   UNL     1     -12.060  13.723  66.834  1.00  0.00    -0.454 C  
ENDBRANCH  15  16
ENDBRANCH  14  15
ENDBRANCH   8   9
ENDBRANCH   1   8
BRANCH   1  18
HETATM   18  C   UNL     1     -10.395   6.900  67.179  1.00  0.00    -0.269 C  
HETATM   19  N   UNL     1      -8.682   5.036  67.451  1.00  0.00    -0.104 NA 
HETATM   20  O   UNL     1     -11.256   6.217  68.123  1.00  0.00    -0.327 OA 
HETATM   21  H   UNL     1      -7.918   5.559  67.879  1.00  0.00     0.000 HD 
HETATM   22  C   UNL     1      -9.584   4.449  68.455  1.00  0.00    -0.143 C  
HETATM   23  C   UNL     1      -9.465   5.860  66.509  1.00  0.00    -0.155 C  
HETATM   24  C   UNL     1     -10.527   5.473  69.104  1.00  0.00    -0.244 C  
ENDBRANCH   1  18
TORSDOF 6
ENDMDL
MODEL      147
REMARK 921   NORMALIZED FREE ENERGY PREDICTED BY IDOCK:   -4.02 KCAL/MOL
REMARK 922        TOTAL FREE ENERGY PREDICTED BY IDOCK:   -6.55 KCAL/MOL
REMARK 923 INTER-LIGAND FREE ENERGY PREDICTED BY IDOCK:   -6.02 KCAL/MOL
REMARK 924 INTRA-LIGAND FREE ENERGY PREDICTED BY IDOCK:   -0.53 KCAL/MOL
REMARK 927      BINDING AFFINITY PREDICTED BY RF-SCORE:    0.00 PKD
ROOT
HETATM    1  C   UNL     1     -10.073  14.710  66.187  1.00  0.00    -0.300 C  
ENDROOT
BRANCH   1   2
HETATM    2  C   UNL     1      -8.929  15.640  66.566  1.00  0.00    -0.343 A  
HETATM    3  C   UNL     1      -7.861  17.823  66.439  1.00  0.00    -0.312 A  
HETATM    4  C   UNL     1      -7.770  15.142  67.188  1.00  0.00    -0.223 A  
HETATM    5  C   UNL     1      -6.665  15.965  67.403  1.00  0.00    -0.229 A  
HETATM    6  C   UNL     1      -6.705  17.304  67.019  1.00  0.00    -0.220 A  
HETATM    7  C   UNL     1      -8.967  16.998  66.216  1.00  0.00    -0.282 A  
ENDBRANCH   1   2
BRANCH   1   8
HETATM    8  O   UNL     1      -9.654  13.369  66.523  1.00  0.00    -0.265 OA 
BRANCH   8   9
HETATM    9  C   UNL     1      -9.614  12.370  65.593  1.00  0.00    -0.109 A  
HETATM   10  C   UNL     1     -10.202  11.336  63.468  1.00  0.00    -0.456 A  
HETATM   11  C   UNL     1      -9.000  10.064  65.116  1.00  0.00    -0.227 A  
HETATM   12  C   UNL     1      -9.621  10.139  63.873  1.00  0.00    -0.302 A  
HETATM   13  C   UNL     1     -10.197  12.444  64.323  1.00  0.00    -0.358 A  
HETATM   14  C   UNL     1      -8.964  11.177  65.964  1.00  0.00    -0.200 A  
BRANCH  14  15
HETATM   15  O   UNL     1      -8.296  10.945  67.142  1.00  0.00    -0.121 OA 
BRANCH  15  16
HETATM   16  C   UNL     1      -8.600   9.710  67.793  1.00  0.00    -0.125 C  
HETATM   17  C   UNL     1      -9.627   9.986  68.879  1.00  0.00    -0.181 C  
ENDBRANCH  15  16
ENDBRANCH  14  15
ENDBRANCH   8   9
ENDBRANCH   1   8
BRANCH   1  18
HETATM   18  C   UNL     1     -11.403  14.964  66.959  1.00  0.00    -0.342 C  
HETATM   19  N   UNL     1     -12.157  12.600  67.532  1.00  0.00    -0.416 NA 
HETATM   20  O   UNL     1     -11.168  15.206  68.367  1.00  0.00    -0.270 OA 
HETATM   21  H   UNL     1     -11.425  12.063  67.067  1.00  0.00     0.000 HD 
HETATM   22  C   UNL     1     -11.820  12.906  68.930  1.00  0.00    -0.309 C  
HETATM   23  C   UNL     1     -12.472  13.852  66.815  1.00  0.00    -0.213 C  
HETATM   24  C   UNL     1     -10.780  14.027  69.078  1.00  0.00    -0.211 C  
ENDBRANCH   1  18
TORSDOF 6
ENDMDL
MODEL      148
REMARK 921   NORMALIZED FREE ENERGY PREDICTED BY IDOCK:   -3.96 KCAL/MOL
REMARK 922        TOTAL FREE ENERGY PREDICTED BY IDOCK:   -6.48 KCAL/MOL
REMARK 923 INTER-LIGAND FREE ENERGY PREDICTED BY IDOCK:   -6.28 KCAL/MOL
REMARK 924 INTRA-LIGAND FREE ENERGY PREDICTED BY IDOCK:   -0.20 KCAL/MOL
REMARK 927      BINDING AFFINITY PREDICTED BY RF-SCORE:    0.00 PKD
ROOT
HETATM    1  C   UNL     1      -9.301  16.167  67.014  1.00  0.00    -0.218 C  
ENDROOT
BRANCH   1   2
HETATM    2  C   UNL     1     -10.131  15.762  68.225  1.00  0.00    -0.222 A  
HETATM    3  C   UNL     1     -12.301  15.421  69.269  1.00  0.00    -0.127 A  
HETATM    4  C   UNL     1      -9.530  15.581  69.483  1.00  0.00    -0.269 A  
HETATM    5  C   UNL     1     -10.305  15.353  70.619  1.00  0.00     0.065 A  
HETATM    6  C   UNL     1     -11.693  15.284  70.516  1.00  0.00    -0.355 A  
HETATM    7  C   UNL     1     -11.526  15.655  68.131  1.00  0.00    -0.325 A  
ENDBRANCH   1   2
BRANCH   1   8
HETATM    8  O   UNL     1      -9.668  15.277  65.937  1.00  0.00    -0.310 OA 
BRANCH   8   9
HETATM    9  C   UNL     1      -9.552  13.921  66.049  1.00  0.00    -0.187 A  
HETATM   10  C   UNL     1      -8.636  11.876  67.002  1.00  0.00    -0.176 A  
HETATM   11  C   UNL     1     -10.049  11.752  65.062  1.00  0.00    -0.302 A  
HETATM   12  C   UNL     1      -9.251  11.120  66.009  1.00  0.00    -0.223 A  
HETATM   13  C   UNL     1      -8.787  13.267  67.022  1.00  0.00    -0.216 A  
HETATM   14  C   UNL     1     -10.230  13.141  65.093  1.00  0.00    -0.284 A  
BRANCH  14  15
HETATM   15  O   UNL     1     -11.063  13.605  64.103  1.00  0.00    -0.354 OA 
BRANCH  15  16
HETATM   16  C   UNL     1     -12.155  14.414  64.542  1.00  0.00    -0.481 C  
HETATM   17  C   UNL     1     -12.996  13.593  65.507  1.00  0.00    -0.325 C  
ENDBRANCH  15  16
ENDBRANCH  14  15
ENDBRANCH   8   9
ENDBRANCH   1   8
BRANCH   1  18
HETATM   18  C   UNL     1      -9.561  17.615  66.499  1.00  0.00    -0.292 C  
HETATM   19  N   UNL     1      -8.884  19.032  68.504  1.00  0.00    -0.352 NA 
HETATM   20  O   UNL     1      -8.422  18.138  65.773  1.00  0.00    -0.482 OA 
HETATM   21  H   UNL     1      -8.658  18.296  69.172  1.00  0.00     0.000 HD 
HETATM   22  C   UNL     1      -7.712  19.453  67.721  1.00  0.00    -0.277 C  
HETATM   23  C   UNL     1      -9.972  18.638  67.586  1.00  0.00    -0.341 C  
HETATM   24  C   UNL     1      -7.316  18.454  66.624  1.00  0.00    -0.225 C  
ENDBRANCH   1  18
TORSDOF 6
ENDMDL
MODEL      149
REMARK 921   NORMALIZED FREE ENERGY PREDICTED BY IDOCK:   -3.96 KCAL/MOL
REMARK 922        TOTAL FREE ENERGY PREDICTED BY IDOCK:   -6.47 KCAL/MOL
REMARK 923 INTER-LIGAND FREE ENERGY PREDICTED BY IDOCK:   -6.18 KCAL/MOL
REMARK 924 INTRA-LIGAND FREE ENERGY PREDICTED BY IDOCK:   -0.29 KCAL/MOL
REMARK 927      BINDING AFFINITY PREDICTED BY RF-SCORE:    0.00 PKD
ROOT
HETATM    1  C   UNL     1     -11.189  13.095  68.232  1.00  0.00    -0.274 C  
ENDROOT
BRANCH   1   2
HETATM    2  C   UNL     1     -11.956  12.463  69.386  1.00  0.00    -0.319 A  
HETATM    3  C   UNL     1     -13.101  12.682  71.521  1.00  0.00    -0.373 A  
HETATM    4  C   UNL     1     -12.035  11.065  69.520  1.00  0.00    -0.413 A  
HETATM    5  C   UNL     1     -12.612  10.488  70.650  1.00  0.00    -0.457 A  
HETATM    6  C   UNL     1     -13.136  11.295  71.658  1.00  0.00    -0.513 A  
HETATM    7  C   UNL     1     -12.518  13.263  70.392  1.00  0.00    -0.295 A  
ENDBRANCH   1   2
BRANCH   1   8
HETATM    8  O   UNL     1     -10.082  12.217  67.933  1.00  0.00    -0.190 OA 
BRANCH   8   9
HETATM    9  C   UNL     1      -8.786  12.587  68.156  1.00  0.00    -0.190 A  
HETATM   10  C   UNL     1      -7.012  14.206  68.556  1.00  0.00    -0.104 A  
HETATM   11  C   UNL     1      -6.449  11.908  68.134  1.00  0.00    -0.052 A  
HETATM   12  C   UNL     1      -6.049  13.218  68.380  1.00  0.00    -0.086 A  
HETATM   13  C   UNL     1      -8.371  13.892  68.446  1.00  0.00    -0.157 A  
HETATM   14  C   UNL     1      -7.808  11.580  68.052  1.00  0.00    -0.126 A  
BRANCH  14  15
HETATM   15  O   UNL     1      -8.033  10.243  67.827  1.00  0.00    -0.101 OA 
BRANCH  15  16
HETATM   16  C   UNL     1      -7.100   9.347  68.432  1.00  0.00    -0.072 C  
HETATM   17  C   UNL     1      -7.653   7.935  68.315  1.00  0.00    -0.116 C  
ENDBRANCH  15  16
ENDBRANCH  14  15
ENDBRANCH   8   9
ENDBRANCH   1   8
BRANCH   1  18
HETATM   18  C   UNL     1     -12.003  13.245  66.912  1.00  0.00    -0.375 C  
HETATM   19  N   UNL     1     -10.241  14.096  65.282  1.00  0.00    -0.419 NA 
HETATM   20  O   UNL     1     -12.057  12.002  66.170  1.00  0.00    -0.582 OA 
HETATM   21  H   UNL     1      -9.443  14.178  65.912  1.00  0.00     0.000 HD 
HETATM   22  C   UNL     1     -10.305  12.777  64.634  1.00  0.00    -0.338 C  
HETATM   23  C   UNL     1     -11.521  14.371  65.964  1.00  0.00    -0.349 C  
HETATM   24  C   UNL     1     -10.807  11.662  65.563  1.00  0.00    -0.279 C  
ENDBRANCH   1  18
TORSDOF 6
ENDMDL
MODEL      150
REMARK 921   NORMALIZED FREE ENERGY PREDICTED BY IDOCK:   -3.95 KCAL/MOL
REMARK 922        TOTAL FREE ENERGY PREDICTED BY IDOCK:   -6.47 KCAL/MOL
REMARK 923 INTER-LIGAND FREE ENERGY PREDICTED BY IDOCK:   -5.49 KCAL/MOL
REMARK 924 INTRA-LIGAND FREE ENERGY PREDICTED BY IDOCK:   -0.97 KCAL/MOL
REMARK 927      BINDING AFFINITY PREDICTED BY RF-SCORE:    0.00 PKD
ROOT
HETATM    1  C   UNL     1      -9.823   8.511  69.370  1.00  0.00    -0.185 C  
ENDROOT
BRANCH   1   2
HETATM    2  C   UNL     1      -8.546   9.118  68.806  1.00  0.00    -0.131 A  
HETATM    3  C   UNL     1      -6.867   9.229  67.049  1.00  0.00    -0.080 A  
HETATM    4  C   UNL     1      -7.731   9.947  69.597  1.00  0.00    -0.149 A  
HETATM    5  C   UNL     1      -6.491  10.384  69.131  1.00  0.00    -0.048 A  
HETATM    6  C   UNL     1      -6.053  10.017  67.860  1.00  0.00    -0.053 A  
HETATM    7  C   UNL     1      -8.107   8.784  67.517  1.00  0.00    -0.106 A  
ENDBRANCH   1   2
BRANCH   1   8
HETATM    8  O   UNL     1     -10.918   9.032  68.586  1.00  0.00    -0.078 OA 
BRANCH   8   9
HETATM    9  C   UNL     1     -11.222  10.364  68.565  1.00  0.00    -0.251 A  
HETATM   10  C   UNL     1     -11.426  12.544  67.499  1.00  0.00    -0.397 A  
HETATM   11  C   UNL     1     -11.733  12.351  69.875  1.00  0.00    -0.339 A  
HETATM   12  C   UNL     1     -11.670  13.140  68.731  1.00  0.00    -0.363 A  
HETATM   13  C   UNL     1     -11.205  11.164  67.417  1.00  0.00    -0.363 A  
HETATM   14  C   UNL     1     -11.543  10.965  69.797  1.00  0.00    -0.322 A  
BRANCH  14  15
HETATM   15  O   UNL     1     -11.658  10.330  71.010  1.00  0.00    -0.351 OA 
BRANCH  15  16
HETATM   16  C   UNL     1     -12.872  10.571  71.722  1.00  0.00    -0.454 C  
HETATM   17  C   UNL     1     -13.712   9.305  71.673  1.00  0.00    -0.421 C  
ENDBRANCH  15  16
ENDBRANCH  14  15
ENDBRANCH   8   9
ENDBRANCH   1   8
BRANCH   1  18
HETATM   18  C   UNL     1      -9.908   6.958  69.271  1.00  0.00    -0.157 C  
HETATM   19  N   UNL     1      -9.308   6.230  71.636  1.00  0.00    -0.148 NA 
HETATM   20  O   UNL     1     -11.258   6.480  69.490  1.00  0.00    -0.340 OA 
HETATM   21  H   UNL     1      -9.108   7.138  72.055  1.00  0.00     0.000 HD 
HETATM   22  C   UNL     1     -10.717   5.840  71.799  1.00  0.00    -0.249 C  
HETATM   23  C   UNL     1      -8.947   6.183  70.205  1.00  0.00    -0.153 C  
HETATM   24  C   UNL     1     -11.672   6.587  70.855  1.00  0.00    -0.356 C  
ENDBRANCH   1  18
TORSDOF 6
ENDMDL
MODEL      151
REMARK 921   NORMALIZED FREE ENERGY PREDICTED BY IDOCK:   -3.91 KCAL/MOL
REMARK 922        TOTAL FREE ENERGY PREDICTED BY IDOCK:   -6.40 KCAL/MOL
REMARK 923 INTER-LIGAND FREE ENERGY PREDICTED BY IDOCK:   -5.28 KCAL/MOL
REMARK 924 INTRA-LIGAND FREE ENERGY PREDICTED BY IDOCK:   -1.12 KCAL/MOL
REMARK 927      BINDING AFFINITY PREDICTED BY RF-SCORE:    0.00 PKD
ROOT
HETATM    1  C   UNL     1      -9.035   7.579  71.141  1.00  0.00    -0.142 C  
ENDROOT
BRANCH   1   2
HETATM    2  C   UNL     1      -7.948   7.836  72.176  1.00  0.00    -0.130 A  
HETATM    3  C   UNL     1      -7.165   7.726  74.477  1.00  0.00    -0.171 A  
HETATM    4  C   UNL     1      -6.825   8.622  71.862  1.00  0.00    -0.088 A  
HETATM    5  C   UNL     1      -5.904   8.977  72.847  1.00  0.00    -0.030 A  
HETATM    6  C   UNL     1      -6.079   8.539  74.158  1.00  0.00    -0.140 A  
HETATM    7  C   UNL     1      -8.092   7.374  73.492  1.00  0.00    -0.152 A  
ENDBRANCH   1   2
BRANCH   1   8
HETATM    8  O   UNL     1      -9.500   8.869  70.689  1.00  0.00    -0.180 OA 
BRANCH   8   9
HETATM    9  C   UNL     1     -10.713   9.372  71.064  1.00  0.00    -0.337 A  
HETATM   10  C   UNL     1     -12.803   9.338  72.313  1.00  0.00    -0.459 A  
HETATM   11  C   UNL     1     -12.471  10.991  70.600  1.00  0.00    -0.465 A  
HETATM   12  C   UNL     1     -13.284  10.409  71.567  1.00  0.00    -0.485 A  
HETATM   13  C   UNL     1     -11.525   8.824  72.063  1.00  0.00    -0.441 A  
HETATM   14  C   UNL     1     -11.180  10.502  70.365  1.00  0.00    -0.298 A  
BRANCH  14  15
HETATM   15  O   UNL     1     -10.500  11.199  69.395  1.00  0.00    -0.191 OA 
BRANCH  15  16
HETATM   16  C   UNL     1     -10.764  10.803  68.048  1.00  0.00    -0.228 C  
HETATM   17  C   UNL     1     -11.313  12.006  67.299  1.00  0.00    -0.394 C  
ENDBRANCH  15  16
ENDBRANCH  14  15
ENDBRANCH   8   9
ENDBRANCH   1   8
BRANCH   1  18
HETATM   18  C   UNL     1      -8.559   6.810  69.871  1.00  0.00    -0.141 C  
HETATM   19  N   UNL     1      -8.621   4.386  70.649  1.00  0.00    -0.081 NA 
HETATM   20  O   UNL     1      -9.659   6.527  68.972  1.00  0.00    -0.134 OA 
HETATM   21  H   UNL     1      -8.895   4.520  71.622  1.00  0.00     0.000 HD 
HETATM   22  C   UNL     1      -9.783   4.206  69.765  1.00  0.00    -0.208 C  
HETATM   23  C   UNL     1      -7.787   5.496  70.146  1.00  0.00    -0.089 C  
HETATM   24  C   UNL     1     -10.535   5.511  69.468  1.00  0.00    -0.297 C  
ENDBRANCH   1  18
TORSDOF 6
ENDMDL
MODEL      152
REMARK 921   NORMALIZED FREE ENERGY PREDICTED BY IDOCK:   -3.86 KCAL/MOL
REMARK 922        TOTAL FREE ENERGY PREDICTED BY IDOCK:   -6.34 KCAL/MOL
REMARK 923 INTER-LIGAND FREE ENERGY PREDICTED BY IDOCK:   -6.17 KCAL/MOL
REMARK 924 INTRA-LIGAND FREE ENERGY PREDICTED BY IDOCK:   -0.17 KCAL/MOL
REMARK 927      BINDING AFFINITY PREDICTED BY RF-SCORE:    0.00 PKD
ROOT
HETATM    1  C   UNL     1     -10.396  13.955  67.436  1.00  0.00    -0.252 C  
ENDROOT
BRANCH   1   2
HETATM    2  C   UNL     1      -9.995  12.533  67.801  1.00  0.00    -0.210 A  
HETATM    3  C   UNL     1      -8.802  10.481  67.268  1.00  0.00    -0.138 A  
HETATM    4  C   UNL     1     -10.615  11.860  68.869  1.00  0.00    -0.205 A  
HETATM    5  C   UNL     1     -10.353  10.512  69.112  1.00  0.00    -0.240 A  
HETATM    6  C   UNL     1      -9.455   9.818  68.305  1.00  0.00    -0.148 A  
HETATM    7  C   UNL     1      -9.067  11.830  67.018  1.00  0.00    -0.187 A  
ENDBRANCH   1   2
BRANCH   1   8
HETATM    8  O   UNL     1      -9.408  14.445  66.504  1.00  0.00    -0.273 OA 
BRANCH   8   9
HETATM    9  C   UNL     1      -8.347  15.205  66.908  1.00  0.00    -0.232 A  
HETATM   10  C   UNL     1      -6.093  15.533  67.767  1.00  0.00    -0.175 A  
HETATM   11  C   UNL     1      -7.561  17.421  67.537  1.00  0.00    -0.201 A  
HETATM   12  C   UNL     1      -6.333  16.893  67.924  1.00  0.00    -0.149 A  
HETATM   13  C   UNL     1      -7.093  14.695  67.261  1.00  0.00    -0.030 A  
HETATM   14  C   UNL     1      -8.557  16.595  67.002  1.00  0.00    -0.195 A  
BRANCH  14  15
HETATM   15  O   UNL     1      -9.699  17.273  66.651  1.00  0.00    -0.264 OA 
BRANCH  15  16
HETATM   16  C   UNL     1      -9.533  18.666  66.379  1.00  0.00    -0.311 C  
HETATM   17  C   UNL     1     -10.746  19.403  66.923  1.00  0.00    -0.570 C  
ENDBRANCH  15  16
ENDBRANCH  14  15
ENDBRANCH   8   9
ENDBRANCH   1   8
BRANCH   1  18
HETATM   18  C   UNL     1     -11.777  14.083  66.724  1.00  0.00    -0.407 C  
HETATM   19  N   UNL     1     -11.103  14.512  64.306  1.00  0.00    -0.604 NA 
HETATM   20  O   UNL     1     -12.296  12.790  66.327  1.00  0.00    -0.521 OA 
HETATM   21  H   UNL     1     -10.088  14.547  64.409  1.00  0.00     0.000 HD 
HETATM   22  C   UNL     1     -11.585  13.155  64.004  1.00  0.00    -0.428 C  
HETATM   23  C   UNL     1     -11.803  15.029  65.499  1.00  0.00    -0.071 C  
HETATM   24  C   UNL     1     -11.586  12.220  65.223  1.00  0.00    -0.355 C  
ENDBRANCH   1  18
TORSDOF 6
ENDMDL
MODEL      153
REMARK 921   NORMALIZED FREE ENERGY PREDICTED BY IDOCK:   -3.85 KCAL/MOL
REMARK 922        TOTAL FREE ENERGY PREDICTED BY IDOCK:   -6.33 KCAL/MOL
REMARK 923 INTER-LIGAND FREE ENERGY PREDICTED BY IDOCK:   -4.85 KCAL/MOL
REMARK 924 INTRA-LIGAND FREE ENERGY PREDICTED BY IDOCK:   -1.48 KCAL/MOL
REMARK 927      BINDING AFFINITY PREDICTED BY RF-SCORE:    0.00 PKD
ROOT
HETATM    1  C   UNL     1     -10.123   7.592  68.585  1.00  0.00    -0.190 C  
ENDROOT
BRANCH   1   2
HETATM    2  C   UNL     1     -10.301   7.809  70.081  1.00  0.00    -0.218 A  
HETATM    3  C   UNL     1      -9.342   8.272  72.269  1.00  0.00    -0.323 A  
HETATM    4  C   UNL     1     -11.525   7.523  70.711  1.00  0.00    -0.305 A  
HETATM    5  C   UNL     1     -11.646   7.583  72.099  1.00  0.00    -0.340 A  
HETATM    6  C   UNL     1     -10.552   7.947  72.881  1.00  0.00    -0.434 A  
HETATM    7  C   UNL     1      -9.218   8.207  70.879  1.00  0.00    -0.171 A  
ENDBRANCH   1   2
BRANCH   1   8
HETATM    8  O   UNL     1     -10.815   6.369  68.252  1.00  0.00    -0.258 OA 
BRANCH   8   9
HETATM    9  C   UNL     1     -10.212   5.367  67.546  1.00  0.00    -0.194 A  
HETATM   10  C   UNL     1      -9.824   4.022  65.554  1.00  0.00    -0.186 A  
HETATM   11  C   UNL     1      -8.828   3.367  67.641  1.00  0.00    -0.152 A  
HETATM   12  C   UNL     1      -9.056   3.126  66.290  1.00  0.00    -0.158 A  
HETATM   13  C   UNL     1     -10.397   5.136  66.179  1.00  0.00    -0.280 A  
HETATM   14  C   UNL     1      -9.373   4.496  68.266  1.00  0.00    -0.141 A  
BRANCH  14  15
HETATM   15  O   UNL     1      -9.036   4.599  69.594  1.00  0.00    -0.096 OA 
BRANCH  15  16
HETATM   16  C   UNL     1      -9.869   3.875  70.502  1.00  0.00    -0.110 C  
HETATM   17  C   UNL     1      -9.682   4.465  71.891  1.00  0.00    -0.233 C  
ENDBRANCH  15  16
ENDBRANCH  14  15
ENDBRANCH   8   9
ENDBRANCH   1   8
BRANCH   1  18
HETATM   18  C   UNL     1     -10.738   8.708  67.686  1.00  0.00    -0.124 C  
HETATM   19  N   UNL     1      -9.222  10.694  68.174  1.00  0.00    -0.144 NA 
HETATM   20  O   UNL     1     -10.208   8.662  66.339  1.00  0.00    -0.282 OA 
HETATM   21  H   UNL     1      -8.613  10.282  68.881  1.00  0.00     0.000 HD 
HETATM   22  C   UNL     1      -8.685  10.529  66.814  1.00  0.00    -0.132 C  
HETATM   23  C   UNL     1     -10.593  10.149  68.232  1.00  0.00    -0.226 C  
HETATM   24  C   UNL     1      -8.851   9.107  66.259  1.00  0.00    -0.148 C  
ENDBRANCH   1  18
TORSDOF 6
ENDMDL
MODEL      154
REMARK 921   NORMALIZED FREE ENERGY PREDICTED BY IDOCK:   -3.84 KCAL/MOL
REMARK 922        TOTAL FREE ENERGY PREDICTED BY IDOCK:   -6.31 KCAL/MOL
REMARK 923 INTER-LIGAND FREE ENERGY PREDICTED BY IDOCK:   -6.04 KCAL/MOL
REMARK 924 INTRA-LIGAND FREE ENERGY PREDICTED BY IDOCK:   -0.26 KCAL/MOL
REMARK 927      BINDING AFFINITY PREDICTED BY RF-SCORE:    0.00 PKD
ROOT
HETATM    1  C   UNL     1     -11.618  13.552  68.447  1.00  0.00    -0.343 C  
ENDROOT
BRANCH   1   2
HETATM    2  C   UNL     1     -11.400  13.238  66.974  1.00  0.00    -0.346 A  
HETATM    3  C   UNL     1     -12.067  13.490  64.648  1.00  0.00    -0.450 A  
HETATM    4  C   UNL     1     -10.495  12.238  66.575  1.00  0.00    -0.254 A  
HETATM    5  C   UNL     1     -10.401  11.850  65.239  1.00  0.00    -0.316 A  
HETATM    6  C   UNL     1     -11.195  12.468  64.275  1.00  0.00    -0.407 A  
HETATM    7  C   UNL     1     -12.167  13.875  65.987  1.00  0.00    -0.495 A  
ENDBRANCH   1   2
BRANCH   1   8
HETATM    8  O   UNL     1     -10.706  12.718  69.194  1.00  0.00    -0.150 OA 
BRANCH   8   9
HETATM    9  C   UNL     1     -11.140  11.655  69.934  1.00  0.00     0.048 A  
HETATM   10  C   UNL     1     -12.618  10.557  71.527  1.00  0.00    -0.529 A  
HETATM   11  C   UNL     1     -10.645   9.419  70.760  1.00  0.00    -0.371 A  
HETATM   12  C   UNL     1     -11.779   9.448  71.565  1.00  0.00    -0.465 A  
HETATM   13  C   UNL     1     -12.301  11.652  70.715  1.00  0.00    -0.454 A  
HETATM   14  C   UNL     1     -10.336  10.498  69.923  1.00  0.00    -0.114 A  
BRANCH  14  15
HETATM   15  O   UNL     1      -9.197  10.304  69.179  1.00  0.00    -0.174 OA 
BRANCH  15  16
HETATM   16  C   UNL     1      -9.186   9.135  68.358  1.00  0.00    -0.132 C  
HETATM   17  C   UNL     1      -8.518   9.489  67.039  1.00  0.00    -0.128 C  
ENDBRANCH  15  16
ENDBRANCH  14  15
ENDBRANCH   8   9
ENDBRANCH   1   8
BRANCH   1  18
HETATM   18  C   UNL     1     -11.305  15.024  68.854  1.00  0.00    -0.297 C  
HETATM   19  N   UNL     1     -13.396  15.684  70.149  1.00  0.00    -0.570 NA 
HETATM   20  O   UNL     1     -10.548  15.089  70.088  1.00  0.00    -0.217 OA 
HETATM   21  H   UNL     1     -13.949  14.834  70.037  1.00  0.00     0.000 HD 
HETATM   22  C   UNL     1     -12.569  15.653  71.365  1.00  0.00    -0.457 C  
HETATM   23  C   UNL     1     -12.539  15.951  68.977  1.00  0.00     0.686 C  
HETATM   24  C   UNL     1     -11.329  14.755  71.239  1.00  0.00    -0.113 C  
ENDBRANCH   1  18
TORSDOF 6
ENDMDL
MODEL      155
REMARK 921   NORMALIZED FREE ENERGY PREDICTED BY IDOCK:   -3.84 KCAL/MOL
REMARK 922        TOTAL FREE ENERGY PREDICTED BY IDOCK:   -6.30 KCAL/MOL
REMARK 923 INTER-LIGAND FREE ENERGY PREDICTED BY IDOCK:   -6.07 KCAL/MOL
REMARK 924 INTRA-LIGAND FREE ENERGY PREDICTED BY IDOCK:   -0.23 KCAL/MOL
REMARK 927      BINDING AFFINITY PREDICTED BY RF-SCORE:    0.00 PKD
ROOT
HETATM    1  C   UNL     1      -9.230  11.514  67.181  1.00  0.00    -0.169 C  
ENDROOT
BRANCH   1   2
HETATM    2  C   UNL     1      -8.177  10.855  66.300  1.00  0.00    -0.165 A  
HETATM    3  C   UNL     1      -7.551   9.132  64.700  1.00  0.00    -0.106 A  
HETATM    4  C   UNL     1      -6.817  11.187  66.429  1.00  0.00    -0.095 A  
HETATM    5  C   UNL     1      -5.839  10.483  65.728  1.00  0.00    -0.126 A  
HETATM    6  C   UNL     1      -6.204   9.447  64.870  1.00  0.00    -0.072 A  
HETATM    7  C   UNL     1      -8.532   9.833  65.407  1.00  0.00    -0.154 A  
ENDBRANCH   1   2
BRANCH   1   8
HETATM    8  O   UNL     1     -10.517  11.179  66.620  1.00  0.00    -0.232 OA 
BRANCH   8   9
HETATM    9  C   UNL     1     -11.185  12.030  65.785  1.00  0.00    -0.334 A  
HETATM   10  C   UNL     1     -11.790  12.927  63.604  1.00  0.00    -0.599 A  
HETATM   11  C   UNL     1     -12.511  14.063  65.595  1.00  0.00    -0.531 A  
HETATM   12  C   UNL     1     -12.446  13.994  64.208  1.00  0.00    -0.303 A  
HETATM   13  C   UNL     1     -11.165  11.951  64.388  1.00  0.00    -0.401 A  
HETATM   14  C   UNL     1     -11.914  13.074  66.387  1.00  0.00    -0.402 A  
BRANCH  14  15
HETATM   15  O   UNL     1     -12.086  13.277  67.735  1.00  0.00    -0.331 OA 
BRANCH  15  16
HETATM   16  C   UNL     1     -11.635  14.537  68.235  1.00  0.00    -0.329 C  
HETATM   17  C   UNL     1     -11.998  14.620  69.709  1.00  0.00    -0.378 C  
ENDBRANCH  15  16
ENDBRANCH  14  15
ENDBRANCH   8   9
ENDBRANCH   1   8
BRANCH   1  18
HETATM   18  C   UNL     1      -9.249  11.017  68.658  1.00  0.00    -0.185 C  
HETATM   19  N   UNL     1     -11.244   9.435  68.672  1.00  0.00    -0.464 NA 
HETATM   20  O   UNL     1      -8.373   9.879  68.852  1.00  0.00    -0.112 OA 
HETATM   21  H   UNL     1     -11.573   9.557  67.714  1.00  0.00     0.000 HD 
HETATM   22  C   UNL     1     -10.279   8.331  68.793  1.00  0.00    -0.210 C  
HETATM   23  C   UNL     1     -10.649  10.670  69.220  1.00  0.00    -0.233 C  
HETATM   24  C   UNL     1      -8.881   8.679  68.261  1.00  0.00    -0.142 C  
ENDBRANCH   1  18
TORSDOF 6
ENDMDL
MODEL      156
REMARK 921   NORMALIZED FREE ENERGY PREDICTED BY IDOCK:   -3.83 KCAL/MOL
REMARK 922        TOTAL FREE ENERGY PREDICTED BY IDOCK:   -6.30 KCAL/MOL
REMARK 923 INTER-LIGAND FREE ENERGY PREDICTED BY IDOCK:   -5.66 KCAL/MOL
REMARK 924 INTRA-LIGAND FREE ENERGY PREDICTED BY IDOCK:   -0.64 KCAL/MOL
REMARK 927      BINDING AFFINITY PREDICTED BY RF-SCORE:    0.00 PKD
ROOT
HETATM    1  C   UNL     1      -8.615  12.027  67.956  1.00  0.00    -0.170 C  
ENDROOT
BRANCH   1   2
HETATM    2  C   UNL     1      -8.909  11.041  69.079  1.00  0.00    -0.068 A  
HETATM    3  C   UNL     1      -8.165   9.274  70.576  1.00  0.00    -0.219 A  
HETATM    4  C   UNL     1     -10.229  10.807  69.506  1.00  0.00    -0.146 A  
HETATM    5  C   UNL     1     -10.513   9.802  70.430  1.00  0.00    -0.358 A  
HETATM    6  C   UNL     1      -9.482   9.027  70.958  1.00  0.00    -0.342 A  
HETATM    7  C   UNL     1      -7.879  10.276  69.645  1.00  0.00    -0.168 A  
ENDBRANCH   1   2
BRANCH   1   8
HETATM    8  O   UNL     1      -9.797  12.087  67.129  1.00  0.00    -0.194 OA 
BRANCH   8   9
HETATM    9  C   UNL     1      -9.839  11.518  65.887  1.00  0.00    -0.231 A  
HETATM   10  C   UNL     1      -9.057  10.005  64.148  1.00  0.00    -0.295 A  
HETATM   11  C   UNL     1     -10.754  11.627  63.635  1.00  0.00    -0.500 A  
HETATM   12  C   UNL     1      -9.908  10.602  63.224  1.00  0.00    -0.364 A  
HETATM   13  C   UNL     1      -9.025  10.459  65.471  1.00  0.00    -0.199 A  
HETATM   14  C   UNL     1     -10.749  12.067  64.964  1.00  0.00    -0.296 A  
BRANCH  14  15
HETATM   15  O   UNL     1     -11.657  13.069  65.210  1.00  0.00    -0.308 OA 
BRANCH  15  16
HETATM   16  C   UNL     1     -12.227  13.687  64.055  1.00  0.00    -0.390 C  
HETATM   17  C   UNL     1     -11.925  15.175  64.116  1.00  0.00    -0.187 C  
ENDBRANCH  15  16
ENDBRANCH  14  15
ENDBRANCH   8   9
ENDBRANCH   1   8
BRANCH   1  18
HETATM   18  C   UNL     1      -8.330  13.486  68.427  1.00  0.00    -0.140 C  
HETATM   19  N   UNL     1      -9.020  14.855  66.394  1.00  0.00    -0.431 NA 
HETATM   20  O   UNL     1      -9.452  14.042  69.155  1.00  0.00     0.035 OA 
HETATM   21  H   UNL     1      -9.265  14.104  65.749  1.00  0.00     0.000 HD 
HETATM   22  C   UNL     1     -10.175  15.312  67.181  1.00  0.00    -0.252 C  
HETATM   23  C   UNL     1      -7.923  14.473  67.305  1.00  0.00    -0.191 C  
HETATM   24  C   UNL     1     -10.566  14.349  68.311  1.00  0.00    -0.243 C  
ENDBRANCH   1  18
TORSDOF 6
ENDMDL
MODEL      157
REMARK 921   NORMALIZED FREE ENERGY PREDICTED BY IDOCK:   -3.83 KCAL/MOL
REMARK 922        TOTAL FREE ENERGY PREDICTED BY IDOCK:   -6.30 KCAL/MOL
REMARK 923 INTER-LIGAND FREE ENERGY PREDICTED BY IDOCK:   -6.08 KCAL/MOL
REMARK 924 INTRA-LIGAND FREE ENERGY PREDICTED BY IDOCK:   -0.21 KCAL/MOL
REMARK 927      BINDING AFFINITY PREDICTED BY RF-SCORE:    0.00 PKD
ROOT
HETATM    1  C   UNL     1      -9.799  14.485  66.659  1.00  0.00    -0.273 C  
ENDROOT
BRANCH   1   2
HETATM    2  C   UNL     1     -10.656  13.874  65.560  1.00  0.00    -0.318 A  
HETATM    3  C   UNL     1     -10.842  12.552  63.526  1.00  0.00    -0.443 A  
HETATM    4  C   UNL     1     -12.005  14.242  65.409  1.00  0.00    -0.383 A  
HETATM    5  C   UNL     1     -12.750  13.795  64.318  1.00  0.00    -0.032 A  
HETATM    6  C   UNL     1     -12.166  12.958  63.369  1.00  0.00    -0.574 A  
HETATM    7  C   UNL     1     -10.093  13.004  64.615  1.00  0.00    -0.253 A  
ENDBRANCH   1   2
BRANCH   1   8
HETATM    8  O   UNL     1     -10.554  15.579  67.223  1.00  0.00    -0.287 OA 
BRANCH   8   9
HETATM    9  C   UNL     1     -10.242  16.883  66.960  1.00  0.00    -0.297 A  
HETATM   10  C   UNL     1     -10.416  18.963  65.705  1.00  0.00    -0.347 A  
HETATM   11  C   UNL     1      -8.732  18.739  67.405  1.00  0.00    -0.289 A  
HETATM   12  C   UNL     1      -9.335  19.491  66.402  1.00  0.00    -0.443 A  
HETATM   13  C   UNL     1     -10.867  17.667  65.984  1.00  0.00     0.037 A  
HETATM   14  C   UNL     1      -9.197  17.454  67.711  1.00  0.00    -0.248 A  
BRANCH  14  15
HETATM   15  O   UNL     1      -8.508  16.855  68.738  1.00  0.00    -0.248 OA 
BRANCH  15  16
HETATM   16  C   UNL     1      -7.143  17.249  68.881  1.00  0.00    -0.242 C  
HETATM   17  C   UNL     1      -6.389  16.113  69.555  1.00  0.00    -0.191 C  
ENDBRANCH  15  16
ENDBRANCH  14  15
ENDBRANCH   8   9
ENDBRANCH   1   8
BRANCH   1  18
HETATM   18  C   UNL     1      -9.467  13.522  67.839  1.00  0.00    -0.215 C  
HETATM   19  N   UNL     1     -11.125  14.262  69.625  1.00  0.00    -0.396 NA 
HETATM   20  O   UNL     1     -10.183  12.268  67.725  1.00  0.00    -0.196 OA 
HETATM   21  H   UNL     1     -11.566  15.045  69.143  1.00  0.00     0.000 HD 
HETATM   22  C   UNL     1     -11.836  12.995  69.390  1.00  0.00    -0.322 C  
HETATM   23  C   UNL     1      -9.705  14.106  69.254  1.00  0.00     0.220 C  
HETATM   24  C   UNL     1     -11.581  12.399  67.998  1.00  0.00    -0.347 C  
ENDBRANCH   1  18
TORSDOF 6
ENDMDL
MODEL      158
REMARK 921   NORMALIZED FREE ENERGY PREDICTED BY IDOCK:   -3.79 KCAL/MOL
REMARK 922        TOTAL FREE ENERGY PREDICTED BY IDOCK:   -6.25 KCAL/MOL
REMARK 923 INTER-LIGAND FREE ENERGY PREDICTED BY IDOCK:   -5.05 KCAL/MOL
REMARK 924 INTRA-LIGAND FREE ENERGY PREDICTED BY IDOCK:   -1.20 KCAL/MOL
REMARK 927      BINDING AFFINITY PREDICTED BY RF-SCORE:    0.00 PKD
ROOT
HETATM    1  C   UNL     1      -9.124   9.395  67.883  1.00  0.00    -0.129 C  
ENDROOT
BRANCH   1   2
HETATM    2  C   UNL     1      -8.104  10.501  67.650  1.00  0.00    -0.107 A  
HETATM    3  C   UNL     1      -5.795  11.268  67.653  1.00  0.00    -0.050 A  
HETATM    4  C   UNL     1      -8.514  11.831  67.446  1.00  0.00    -0.158 A  
HETATM    5  C   UNL     1      -7.581  12.864  67.377  1.00  0.00    -0.150 A  
HETATM    6  C   UNL     1      -6.220  12.586  67.491  1.00  0.00    -0.155 A  
HETATM    7  C   UNL     1      -6.730  10.232  67.729  1.00  0.00    -0.073 A  
ENDBRANCH   1   2
BRANCH   1   8
HETATM    8  O   UNL     1     -10.226   9.985  68.606  1.00  0.00    -0.166 OA 
BRANCH   8   9
HETATM    9  C   UNL     1     -10.593   9.546  69.847  1.00  0.00    -0.241 A  
HETATM   10  C   UNL     1     -10.442   8.070  71.777  1.00  0.00    -0.287 A  
HETATM   11  C   UNL     1     -12.245   9.652  71.631  1.00  0.00    -0.484 A  
HETATM   12  C   UNL     1     -11.608   8.616  72.305  1.00  0.00    -0.424 A  
HETATM   13  C   UNL     1      -9.938   8.534  70.557  1.00  0.00    -0.214 A  
HETATM   14  C   UNL     1     -11.730  10.143  70.424  1.00  0.00    -0.308 A  
BRANCH  14  15
HETATM   15  O   UNL     1     -12.464  11.179  69.899  1.00  0.00    -0.270 OA 
BRANCH  15  16
HETATM   16  C   UNL     1     -11.971  12.490  70.178  1.00  0.00    -0.301 C  
HETATM   17  C   UNL     1     -11.776  13.215  68.856  1.00  0.00    -0.368 C  
ENDBRANCH  15  16
ENDBRANCH  14  15
ENDBRANCH   8   9
ENDBRANCH   1   8
BRANCH   1  18
HETATM   18  C   UNL     1      -9.728   8.780  66.584  1.00  0.00    -0.242 C  
HETATM   19  N   UNL     1      -8.116   6.872  66.089  1.00  0.00    -0.110 NA 
HETATM   20  O   UNL     1     -10.756   7.804  66.881  1.00  0.00    -0.345 OA 
HETATM   21  H   UNL     1      -7.438   7.014  66.838  1.00  0.00     0.000 HD 
HETATM   22  C   UNL     1      -9.194   5.952  66.481  1.00  0.00    -0.145 C  
HETATM   23  C   UNL     1      -8.700   8.143  65.617  1.00  0.00    -0.145 C  
HETATM   24  C   UNL     1     -10.231   6.587  67.419  1.00  0.00    -0.177 C  
ENDBRANCH   1  18
TORSDOF 6
ENDMDL
MODEL      159
REMARK 921   NORMALIZED FREE ENERGY PREDICTED BY IDOCK:   -3.79 KCAL/MOL
REMARK 922        TOTAL FREE ENERGY PREDICTED BY IDOCK:   -6.24 KCAL/MOL
REMARK 923 INTER-LIGAND FREE ENERGY PREDICTED BY IDOCK:   -5.13 KCAL/MOL
REMARK 924 INTRA-LIGAND FREE ENERGY PREDICTED BY IDOCK:   -1.12 KCAL/MOL
REMARK 927      BINDING AFFINITY PREDICTED BY RF-SCORE:    0.00 PKD
ROOT
HETATM    1  C   UNL     1      -9.221   7.949  70.137  1.00  0.00    -0.153 C  
ENDROOT
BRANCH   1   2
HETATM    2  C   UNL     1      -9.291   7.024  68.930  1.00  0.00    -0.139 A  
HETATM    3  C   UNL     1      -8.648   6.494  66.644  1.00  0.00    -0.118 A  
HETATM    4  C   UNL     1     -10.228   5.976  68.878  1.00  0.00    -0.246 A  
HETATM    5  C   UNL     1     -10.392   5.221  67.718  1.00  0.00    -0.196 A  
HETATM    6  C   UNL     1      -9.610   5.486  66.595  1.00  0.00    -0.163 A  
HETATM    7  C   UNL     1      -8.488   7.256  67.804  1.00  0.00    -0.121 A  
ENDBRANCH   1   2
BRANCH   1   8
HETATM    8  O   UNL     1     -10.579   8.179  70.571  1.00  0.00    -0.212 OA 
BRANCH   8   9
HETATM    9  C   UNL     1     -11.167   9.409  70.483  1.00  0.00    -0.275 A  
HETATM   10  C   UNL     1     -11.391  11.668  69.603  1.00  0.00    -0.308 A  
HETATM   11  C   UNL     1     -12.733  10.985  71.475  1.00  0.00    -0.521 A  
HETATM   12  C   UNL     1     -12.338  11.969  70.575  1.00  0.00    -0.369 A  
HETATM   13  C   UNL     1     -10.811  10.395  69.556  1.00  0.00    -0.295 A  
HETATM   14  C   UNL     1     -12.180   9.700  71.417  1.00  0.00    -0.385 A  
BRANCH  14  15
HETATM   15  O   UNL     1     -12.692   8.842  72.360  1.00  0.00    -0.386 OA 
BRANCH  15  16
HETATM   16  C   UNL     1     -14.103   8.628  72.301  1.00  0.00    -0.420 C  
HETATM   17  C   UNL     1     -14.357   7.339  71.536  1.00  0.00    -0.558 C  
ENDBRANCH  15  16
ENDBRANCH  14  15
ENDBRANCH   8   9
ENDBRANCH   1   8
BRANCH   1  18
HETATM   18  C   UNL     1      -8.457   7.365  71.364  1.00  0.00    -0.113 C  
HETATM   19  N   UNL     1      -6.059   7.267  70.514  1.00  0.00    -0.031 NA 
HETATM   20  O   UNL     1      -8.062   8.403  72.293  1.00  0.00    -0.138 OA 
HETATM   21  H   UNL     1      -6.198   7.588  69.555  1.00  0.00     0.000 HD 
HETATM   22  C   UNL     1      -5.762   8.376  71.434  1.00  0.00    -0.036 C  
HETATM   23  C   UNL     1      -7.217   6.504  71.020  1.00  0.00    -0.078 C  
HETATM   24  C   UNL     1      -6.994   9.216  71.798  1.00  0.00     0.134 C  
ENDBRANCH   1  18
TORSDOF 6
ENDMDL
MODEL      160
REMARK 921   NORMALIZED FREE ENERGY PREDICTED BY IDOCK:   -3.79 KCAL/MOL
REMARK 922        TOTAL FREE ENERGY PREDICTED BY IDOCK:   -6.24 KCAL/MOL
REMARK 923 INTER-LIGAND FREE ENERGY PREDICTED BY IDOCK:   -5.53 KCAL/MOL
REMARK 924 INTRA-LIGAND FREE ENERGY PREDICTED BY IDOCK:   -0.70 KCAL/MOL
REMARK 927      BINDING AFFINITY PREDICTED BY RF-SCORE:    0.00 PKD
ROOT
HETATM    1  C   UNL     1      -9.325  15.203  67.581  1.00  0.00    -0.189 C  
ENDROOT
BRANCH   1   2
HETATM    2  C   UNL     1      -8.015  14.446  67.745  1.00  0.00    -0.166 A  
HETATM    3  C   UNL     1      -5.586  14.450  67.884  1.00  0.00    -0.101 A  
HETATM    4  C   UNL     1      -7.979  13.042  67.675  1.00  0.00    -0.169 A  
HETATM    5  C   UNL     1      -6.764  12.357  67.679  1.00  0.00    -0.132 A  
HETATM    6  C   UNL     1      -5.565  13.061  67.773  1.00  0.00    -0.126 A  
HETATM    7  C   UNL     1      -6.802  15.139  67.873  1.00  0.00    -0.171 A  
ENDBRANCH   1   2
BRANCH   1   8
HETATM    8  O   UNL     1     -10.371  14.214  67.463  1.00  0.00    -0.246 OA 
BRANCH   8   9
HETATM    9  C   UNL     1     -10.987  13.954  66.273  1.00  0.00    -0.298 A  
HETATM   10  C   UNL     1     -11.635  14.477  63.984  1.00  0.00    -0.006 A  
HETATM   11  C   UNL     1     -12.573  12.551  65.072  1.00  0.00    -0.424 A  
HETATM   12  C   UNL     1     -12.494  13.384  63.961  1.00  0.00    -0.310 A  
HETATM   13  C   UNL     1     -10.885  14.758  65.132  1.00  0.00    -0.417 A  
HETATM   14  C   UNL     1     -11.804  12.808  66.214  1.00  0.00    -0.423 A  
BRANCH  14  15
HETATM   15  O   UNL     1     -11.982  11.881  67.212  1.00  0.00    -0.605 OA 
BRANCH  15  16
HETATM   16  C   UNL     1     -11.052  10.796  67.222  1.00  0.00    -0.270 C  
HETATM   17  C   UNL     1     -10.502  10.655  68.632  1.00  0.00    -0.211 C  
ENDBRANCH  15  16
ENDBRANCH  14  15
ENDBRANCH   8   9
ENDBRANCH   1   8
BRANCH   1  18
HETATM   18  C   UNL     1      -9.710  16.111  68.789  1.00  0.00    -0.233 C  
HETATM   19  N   UNL     1     -12.255  16.065  68.713  1.00  0.00    -0.340 NA 
HETATM   20  O   UNL     1      -9.755  15.363  70.028  1.00  0.00    -0.241 OA 
HETATM   21  H   UNL     1     -12.396  15.502  67.874  1.00  0.00     0.000 HD 
HETATM   22  C   UNL     1     -12.206  15.243  69.932  1.00  0.00    -0.323 C  
HETATM   23  C   UNL     1     -11.036  16.894  68.630  1.00  0.00    -0.194 C  
HETATM   24  C   UNL     1     -10.882  14.485  70.108  1.00  0.00     0.061 C  
ENDBRANCH   1  18
TORSDOF 6
ENDMDL
MODEL      161
REMARK 921   NORMALIZED FREE ENERGY PREDICTED BY IDOCK:   -3.79 KCAL/MOL
REMARK 922        TOTAL FREE ENERGY PREDICTED BY IDOCK:   -6.24 KCAL/MOL
REMARK 923 INTER-LIGAND FREE ENERGY PREDICTED BY IDOCK:   -5.25 KCAL/MOL
REMARK 924 INTRA-LIGAND FREE ENERGY PREDICTED BY IDOCK:   -0.99 KCAL/MOL
REMARK 927      BINDING AFFINITY PREDICTED BY RF-SCORE:    0.00 PKD
ROOT
HETATM    1  C   UNL     1     -10.165   7.828  68.924  1.00  0.00    -0.211 C  
ENDROOT
BRANCH   1   2
HETATM    2  C   UNL     1     -10.042   8.975  67.930  1.00  0.00    -0.246 A  
HETATM    3  C   UNL     1      -8.722  10.228  66.316  1.00  0.00    -0.157 A  
HETATM    4  C   UNL     1     -11.024   9.979  67.862  1.00  0.00    -0.311 A  
HETATM    5  C   UNL     1     -10.842  11.103  67.057  1.00  0.00    -0.338 A  
HETATM    6  C   UNL     1      -9.686  11.234  66.291  1.00  0.00    -0.246 A  
HETATM    7  C   UNL     1      -8.899   9.104  67.127  1.00  0.00    -0.130 A  
ENDBRANCH   1   2
BRANCH   1   8
HETATM    8  O   UNL     1     -10.725   8.380  70.135  1.00  0.00    -0.231 OA 
BRANCH   8   9
HETATM    9  C   UNL     1     -10.300   7.987  71.372  1.00  0.00    -0.200 A  
HETATM   10  C   UNL     1     -10.525   6.804  73.488  1.00  0.00    -0.356 A  
HETATM   11  C   UNL     1      -8.691   8.324  73.168  1.00  0.00    -0.291 A  
HETATM   12  C   UNL     1      -9.395   7.445  73.985  1.00  0.00    -0.282 A  
HETATM   13  C   UNL     1     -10.972   7.072  72.190  1.00  0.00    -0.267 A  
HETATM   14  C   UNL     1      -9.116   8.575  71.857  1.00  0.00    -0.244 A  
BRANCH  14  15
HETATM   15  O   UNL     1      -8.301   9.448  71.177  1.00  0.00    -0.310 OA 
BRANCH  15  16
HETATM   16  C   UNL     1      -7.057   8.911  70.726  1.00  0.00    -0.078 C  
HETATM   17  C   UNL     1      -5.978   9.957  70.954  1.00  0.00    -0.088 C  
ENDBRANCH  15  16
ENDBRANCH  14  15
ENDBRANCH   8   9
ENDBRANCH   1   8
BRANCH   1  18
HETATM   18  C   UNL     1     -11.119   6.678  68.479  1.00  0.00    -0.206 C  
HETATM   19  N   UNL     1      -9.818   5.600  66.574  1.00  0.00    -0.160 NA 
HETATM   20  O   UNL     1     -10.916   5.479  69.267  1.00  0.00    -0.255 OA 
HETATM   21  H   UNL     1      -9.011   6.223  66.537  1.00  0.00     0.000 HD 
HETATM   22  C   UNL     1      -9.595   4.454  67.469  1.00  0.00    -0.172 C  
HETATM   23  C   UNL     1     -11.050   6.307  66.978  1.00  0.00    -0.297 C  
HETATM   24  C   UNL     1      -9.689   4.812  68.959  1.00  0.00    -0.178 C  
ENDBRANCH   1  18
TORSDOF 6
ENDMDL
MODEL      162
REMARK 921   NORMALIZED FREE ENERGY PREDICTED BY IDOCK:   -3.78 KCAL/MOL
REMARK 922        TOTAL FREE ENERGY PREDICTED BY IDOCK:   -6.23 KCAL/MOL
REMARK 923 INTER-LIGAND FREE ENERGY PREDICTED BY IDOCK:   -5.40 KCAL/MOL
REMARK 924 INTRA-LIGAND FREE ENERGY PREDICTED BY IDOCK:   -0.83 KCAL/MOL
REMARK 927      BINDING AFFINITY PREDICTED BY RF-SCORE:    0.00 PKD
ROOT
HETATM    1  C   UNL     1      -9.854   6.637  70.123  1.00  0.00    -0.166 C  
ENDROOT
BRANCH   1   2
HETATM    2  C   UNL     1      -9.166   5.701  71.107  1.00  0.00    -0.169 A  
HETATM    3  C   UNL     1      -9.004   3.521  72.176  1.00  0.00    -0.138 A  
HETATM    4  C   UNL     1      -8.217   6.187  72.023  1.00  0.00    -0.110 A  
HETATM    5  C   UNL     1      -7.694   5.362  73.017  1.00  0.00    -0.098 A  
HETATM    6  C   UNL     1      -8.095   4.030  73.102  1.00  0.00    -0.089 A  
HETATM    7  C   UNL     1      -9.534   4.349  71.183  1.00  0.00    -0.228 A  
ENDBRANCH   1   2
BRANCH   1   8
HETATM    8  O   UNL     1     -10.313   7.778  70.880  1.00  0.00    -0.200 OA 
BRANCH   8   9
HETATM    9  C   UNL     1     -11.624   7.931  71.232  1.00  0.00    -0.276 A  
HETATM   10  C   UNL     1     -13.858   7.116  71.755  1.00  0.00    -0.375 A  
HETATM   11  C   UNL     1     -13.483   9.477  71.512  1.00  0.00    -0.444 A  
HETATM   12  C   UNL     1     -14.353   8.415  71.739  1.00  0.00    -0.558 A  
HETATM   13  C   UNL     1     -12.502   6.876  71.505  1.00  0.00    -0.420 A  
HETATM   14  C   UNL     1     -12.120   9.248  71.291  1.00  0.00    -0.337 A  
BRANCH  14  15
HETATM   15  O   UNL     1     -11.396  10.401  71.105  1.00  0.00    -0.268 OA 
BRANCH  15  16
HETATM   16  C   UNL     1     -10.801  10.559  69.816  1.00  0.00    -0.281 C  
HETATM   17  C   UNL     1     -11.896  10.934  68.830  1.00  0.00    -0.340 C  
ENDBRANCH  15  16
ENDBRANCH  14  15
ENDBRANCH   8   9
ENDBRANCH   1   8
BRANCH   1  18
HETATM   18  C   UNL     1      -8.931   7.195  68.998  1.00  0.00    -0.134 C  
HETATM   19  N   UNL     1      -9.041   5.352  67.244  1.00  0.00    -0.111 NA 
HETATM   20  O   UNL     1      -9.655   8.066  68.094  1.00  0.00    -0.149 OA 
HETATM   21  H   UNL     1      -9.624   4.674  67.735  1.00  0.00     0.000 HD 
HETATM   22  C   UNL     1      -9.835   6.277  66.422  1.00  0.00    -0.075 C  
HETATM   23  C   UNL     1      -8.184   6.124  68.166  1.00  0.00    -0.114 C  
HETATM   24  C   UNL     1     -10.557   7.358  67.240  1.00  0.00    -0.323 C  
ENDBRANCH   1  18
TORSDOF 6
ENDMDL
MODEL      163
REMARK 921   NORMALIZED FREE ENERGY PREDICTED BY IDOCK:   -3.77 KCAL/MOL
REMARK 922        TOTAL FREE ENERGY PREDICTED BY IDOCK:   -6.21 KCAL/MOL
REMARK 923 INTER-LIGAND FREE ENERGY PREDICTED BY IDOCK:   -6.28 KCAL/MOL
REMARK 924 INTRA-LIGAND FREE ENERGY PREDICTED BY IDOCK:    0.07 KCAL/MOL
REMARK 927      BINDING AFFINITY PREDICTED BY RF-SCORE:    0.00 PKD
ROOT
HETATM    1  C   UNL     1     -10.252  15.878  69.625  1.00  0.00    -0.280 C  
ENDROOT
BRANCH   1   2
HETATM    2  C   UNL     1     -11.440  15.567  70.524  1.00  0.00    -0.368 A  
HETATM    3  C   UNL     1     -13.641  14.578  70.837  1.00  0.00    -0.196 A  
HETATM    4  C   UNL     1     -11.561  16.164  71.792  1.00  0.00    -0.503 A  
HETATM    5  C   UNL     1     -12.716  15.994  72.555  1.00  0.00    -0.510 A  
HETATM    6  C   UNL     1     -13.762  15.209  72.073  1.00  0.00    -0.576 A  
HETATM    7  C   UNL     1     -12.487  14.752  70.068  1.00  0.00    -0.327 A  
ENDBRANCH   1   2
BRANCH   1   8
HETATM    8  O   UNL     1     -10.307  14.950  68.519  1.00  0.00    -0.225 OA 
BRANCH   8   9
HETATM    9  C   UNL     1      -9.306  14.053  68.278  1.00  0.00    -0.208 A  
HETATM   10  C   UNL     1      -7.066  13.145  68.572  1.00  0.00    -0.105 A  
HETATM   11  C   UNL     1      -8.495  12.249  66.860  1.00  0.00    -0.159 A  
HETATM   12  C   UNL     1      -7.266  12.267  67.512  1.00  0.00    -0.139 A  
HETATM   13  C   UNL     1      -8.080  14.031  68.953  1.00  0.00    -0.001 A  
HETATM   14  C   UNL     1      -9.526  13.111  67.255  1.00  0.00    -0.225 A  
BRANCH  14  15
HETATM   15  O   UNL     1     -10.679  12.953  66.525  1.00  0.00    -0.265 OA 
BRANCH  15  16
HETATM   16  C   UNL     1     -11.789  12.398  67.234  1.00  0.00    -0.287 C  
HETATM   17  C   UNL     1     -11.351  11.073  67.838  1.00  0.00    -0.381 C  
ENDBRANCH  15  16
ENDBRANCH  14  15
ENDBRANCH   8   9
ENDBRANCH   1   8
BRANCH   1  18
HETATM   18  C   UNL     1     -10.260  17.307  69.004  1.00  0.00    -0.318 C  
HETATM   19  N   UNL     1      -8.186  17.268  67.526  1.00  0.00    -0.193 NA 
HETATM   20  O   UNL     1     -11.081  17.369  67.812  1.00  0.00    -0.240 OA 
HETATM   21  H   UNL     1      -7.830  16.338  67.746  1.00  0.00     0.000 HD 
HETATM   22  C   UNL     1      -9.096  17.256  66.370  1.00  0.00    -0.253 C  
HETATM   23  C   UNL     1      -8.864  17.893  68.679  1.00  0.00    -0.261 C  
HETATM   24  C   UNL     1     -10.490  16.700  66.694  1.00  0.00    -0.258 C  
ENDBRANCH   1  18
TORSDOF 6
ENDMDL
MODEL      164
REMARK 921   NORMALIZED FREE ENERGY PREDICTED BY IDOCK:   -3.76 KCAL/MOL
REMARK 922        TOTAL FREE ENERGY PREDICTED BY IDOCK:   -6.20 KCAL/MOL
REMARK 923 INTER-LIGAND FREE ENERGY PREDICTED BY IDOCK:   -5.07 KCAL/MOL
REMARK 924 INTRA-LIGAND FREE ENERGY PREDICTED BY IDOCK:   -1.13 KCAL/MOL
REMARK 927      BINDING AFFINITY PREDICTED BY RF-SCORE:    0.00 PKD
ROOT
HETATM    1  C   UNL     1     -10.149   7.710  69.767  1.00  0.00    -0.196 C  
ENDROOT
BRANCH   1   2
HETATM    2  C   UNL     1      -9.949   6.754  68.599  1.00  0.00    -0.147 A  
HETATM    3  C   UNL     1      -8.478   5.374  67.238  1.00  0.00    -0.106 A  
HETATM    4  C   UNL     1     -10.972   6.539  67.659  1.00  0.00    -0.426 A  
HETATM    5  C   UNL     1     -10.741   5.779  66.513  1.00  0.00    -0.274 A  
HETATM    6  C   UNL     1      -9.491   5.204  66.295  1.00  0.00    -0.164 A  
HETATM    7  C   UNL     1      -8.706   6.141  68.384  1.00  0.00    -0.115 A  
ENDBRANCH   1   2
BRANCH   1   8
HETATM    8  O   UNL     1     -10.335   9.027  69.205  1.00  0.00    -0.209 OA 
BRANCH   8   9
HETATM    9  C   UNL     1      -9.291   9.892  69.031  1.00  0.00    -0.174 A  
HETATM   10  C   UNL     1      -7.116  10.834  69.585  1.00  0.00    -0.136 A  
HETATM   11  C   UNL     1      -8.493  11.915  67.939  1.00  0.00    -0.154 A  
HETATM   12  C   UNL     1      -7.325  11.880  68.693  1.00  0.00    -0.115 A  
HETATM   13  C   UNL     1      -8.093   9.845  69.751  1.00  0.00    -0.185 A  
HETATM   14  C   UNL     1      -9.462  10.914  68.077  1.00  0.00    -0.163 A  
BRANCH  14  15
HETATM   15  O   UNL     1     -10.544  11.083  67.247  1.00  0.00    -0.217 OA 
BRANCH  15  16
HETATM   16  C   UNL     1     -10.443  12.156  66.309  1.00  0.00    -0.239 C  
HETATM   17  C   UNL     1     -11.836  12.456  65.780  1.00  0.00    -0.467 C  
ENDBRANCH  15  16
ENDBRANCH  14  15
ENDBRANCH   8   9
ENDBRANCH   1   8
BRANCH   1  18
HETATM   18  C   UNL     1     -11.408   7.420  70.640  1.00  0.00    -0.281 C  
HETATM   19  N   UNL     1     -10.527   5.712  72.311  1.00  0.00    -0.206 NA 
HETATM   20  O   UNL     1     -11.542   8.375  71.720  1.00  0.00    -0.272 OA 
HETATM   21  H   UNL     1      -9.575   5.599  71.963  1.00  0.00     0.000 HD 
HETATM   22  C   UNL     1     -10.624   6.766  73.333  1.00  0.00    -0.325 C  
HETATM   23  C   UNL     1     -11.489   5.989  71.225  1.00  0.00    -0.183 C  
HETATM   24  C   UNL     1     -10.571   8.188  72.753  1.00  0.00    -0.316 C  
ENDBRANCH   1  18
TORSDOF 6
ENDMDL
MODEL      165
REMARK 921   NORMALIZED FREE ENERGY PREDICTED BY IDOCK:   -3.71 KCAL/MOL
REMARK 922        TOTAL FREE ENERGY PREDICTED BY IDOCK:   -6.14 KCAL/MOL
REMARK 923 INTER-LIGAND FREE ENERGY PREDICTED BY IDOCK:   -5.43 KCAL/MOL
REMARK 924 INTRA-LIGAND FREE ENERGY PREDICTED BY IDOCK:   -0.71 KCAL/MOL
REMARK 927      BINDING AFFINITY PREDICTED BY RF-SCORE:    0.00 PKD
ROOT
HETATM    1  C   UNL     1      -9.290  12.040  67.962  1.00  0.00    -0.196 C  
ENDROOT
BRANCH   1   2
HETATM    2  C   UNL     1     -10.071  13.343  68.055  1.00  0.00    -0.241 A  
HETATM    3  C   UNL     1     -10.359  15.560  69.014  1.00  0.00    -0.235 A  
HETATM    4  C   UNL     1     -11.342  13.466  67.464  1.00  0.00    -0.327 A  
HETATM    5  C   UNL     1     -12.119  14.605  67.671  1.00  0.00    -0.216 A  
HETATM    6  C   UNL     1     -11.633  15.649  68.455  1.00  0.00    -0.378 A  
HETATM    7  C   UNL     1      -9.582  14.416  68.813  1.00  0.00    -0.177 A  
ENDBRANCH   1   2
BRANCH   1   8
HETATM    8  O   UNL     1     -10.253  10.966  68.019  1.00  0.00    -0.170 OA 
BRANCH   8   9
HETATM    9  C   UNL     1     -10.669  10.432  69.206  1.00  0.00    -0.237 A  
HETATM   10  C   UNL     1     -12.179  10.235  71.106  1.00  0.00    -0.500 A  
HETATM   11  C   UNL     1     -10.093   9.042  71.119  1.00  0.00    -0.365 A  
HETATM   12  C   UNL     1     -11.278   9.398  71.755  1.00  0.00    -0.359 A  
HETATM   13  C   UNL     1     -11.877  10.746  69.839  1.00  0.00    -0.413 A  
HETATM   14  C   UNL     1      -9.796   9.526  69.839  1.00  0.00    -0.226 A  
BRANCH  14  15
HETATM   15  O   UNL     1      -8.601   9.064  69.344  1.00  0.00    -0.129 OA 
BRANCH  15  16
HETATM   16  C   UNL     1      -7.652   8.630  70.321  1.00  0.00    -0.074 C  
HETATM   17  C   UNL     1      -6.328   9.319  70.035  1.00  0.00    -0.044 C  
ENDBRANCH  15  16
ENDBRANCH  14  15
ENDBRANCH   8   9
ENDBRANCH   1   8
BRANCH   1  18
HETATM   18  C   UNL     1      -8.494  11.849  66.635  1.00  0.00    -0.143 C  
HETATM   19  N   UNL     1      -8.306   9.315  66.474  1.00  0.00    -0.124 NA 
HETATM   20  O   UNL     1      -9.371  11.835  65.482  1.00  0.00    -0.208 OA 
HETATM   21  H   UNL     1      -8.756   9.049  67.350  1.00  0.00     0.000 HD 
HETATM   22  C   UNL     1      -9.262   9.385  65.358  1.00  0.00    -0.244 C  
HETATM   23  C   UNL     1      -7.584  10.598  66.585  1.00  0.00    -0.129 C  
HETATM   24  C   UNL     1     -10.149  10.638  65.389  1.00  0.00    -0.291 C  
ENDBRANCH   1  18
TORSDOF 6
ENDMDL
MODEL      166
REMARK 921   NORMALIZED FREE ENERGY PREDICTED BY IDOCK:   -3.67 KCAL/MOL
REMARK 922        TOTAL FREE ENERGY PREDICTED BY IDOCK:   -6.08 KCAL/MOL
REMARK 923 INTER-LIGAND FREE ENERGY PREDICTED BY IDOCK:   -5.56 KCAL/MOL
REMARK 924 INTRA-LIGAND FREE ENERGY PREDICTED BY IDOCK:   -0.52 KCAL/MOL
REMARK 927      BINDING AFFINITY PREDICTED BY RF-SCORE:    0.00 PKD
ROOT
HETATM    1  C   UNL     1      -7.895  15.685  67.515  1.00  0.00    -0.161 C  
ENDROOT
BRANCH   1   2
HETATM    2  C   UNL     1      -8.450  17.046  67.117  1.00  0.00    -0.222 A  
HETATM    3  C   UNL     1      -8.217  19.138  65.899  1.00  0.00    -0.046 A  
HETATM    4  C   UNL     1      -9.578  17.581  67.763  1.00  0.00    -0.269 A  
HETATM    5  C   UNL     1     -10.000  18.884  67.502  1.00  0.00    -0.399 A  
HETATM    6  C   UNL     1      -9.313  19.669  66.577  1.00  0.00    -0.464 A  
HETATM    7  C   UNL     1      -7.790  17.835  66.164  1.00  0.00    -0.262 A  
ENDBRANCH   1   2
BRANCH   1   8
HETATM    8  O   UNL     1      -8.527  14.707  66.662  1.00  0.00    -0.177 OA 
BRANCH   8   9
HETATM    9  C   UNL     1      -9.731  14.143  66.978  1.00  0.00    -0.258 A  
HETATM   10  C   UNL     1     -11.461  13.405  68.523  1.00  0.00    -0.345 A  
HETATM   11  C   UNL     1     -11.625  12.829  66.196  1.00  0.00    -0.431 A  
HETATM   12  C   UNL     1     -12.128  12.754  67.491  1.00  0.00    -0.213 A  
HETATM   13  C   UNL     1     -10.271  14.096  68.267  1.00  0.00    -0.243 A  
HETATM   14  C   UNL     1     -10.451  13.543  65.926  1.00  0.00    -0.292 A  
BRANCH  14  15
HETATM   15  O   UNL     1     -10.101  13.537  64.598  1.00  0.00    -0.344 OA 
BRANCH  15  16
HETATM   16  C   UNL     1     -10.393  12.334  63.886  1.00  0.00    -0.429 C  
HETATM   17  C   UNL     1      -9.612  11.200  64.531  1.00  0.00    -0.288 C  
ENDBRANCH  15  16
ENDBRANCH  14  15
ENDBRANCH   8   9
ENDBRANCH   1   8
BRANCH   1  18
HETATM   18  C   UNL     1      -6.358  15.522  67.311  1.00  0.00     0.028 C  
HETATM   19  N   UNL     1      -5.452  15.950  69.652  1.00  0.00    -0.116 NA 
HETATM   20  O   UNL     1      -5.946  14.138  67.429  1.00  0.00    -0.348 OA 
HETATM   21  H   UNL     1      -6.319  16.176  70.139  1.00  0.00     0.000 HD 
HETATM   22  C   UNL     1      -5.135  14.515  69.716  1.00  0.00    -0.091 C  
HETATM   23  C   UNL     1      -5.473  16.387  68.242  1.00  0.00    -0.103 C  
HETATM   24  C   UNL     1      -5.992  13.656  68.775  1.00  0.00    -0.084 C  
ENDBRANCH   1  18
TORSDOF 6
ENDMDL
MODEL      167
REMARK 921   NORMALIZED FREE ENERGY PREDICTED BY IDOCK:   -3.66 KCAL/MOL
REMARK 922        TOTAL FREE ENERGY PREDICTED BY IDOCK:   -6.06 KCAL/MOL
REMARK 923 INTER-LIGAND FREE ENERGY PREDICTED BY IDOCK:   -6.08 KCAL/MOL
REMARK 924 INTRA-LIGAND FREE ENERGY PREDICTED BY IDOCK:    0.02 KCAL/MOL
REMARK 927      BINDING AFFINITY PREDICTED BY RF-SCORE:    0.00 PKD
ROOT
HETATM    1  C   UNL     1      -9.940  15.488  69.461  1.00  0.00    -0.280 C  
ENDROOT
BRANCH   1   2
HETATM    2  C   UNL     1     -11.126  15.374  70.409  1.00  0.00    -0.351 A  
HETATM    3  C   UNL     1     -13.528  15.225  70.766  1.00  0.00    -0.359 A  
HETATM    4  C   UNL     1     -10.960  15.543  71.796  1.00  0.00    -0.056 A  
HETATM    5  C   UNL     1     -12.063  15.582  72.647  1.00  0.00    -0.541 A  
HETATM    6  C   UNL     1     -13.350  15.434  72.132  1.00  0.00    -0.541 A  
HETATM    7  C   UNL     1     -12.424  15.192  69.910  1.00  0.00    -0.269 A  
ENDBRANCH   1   2
BRANCH   1   8
HETATM    8  O   UNL     1     -10.405  15.084  68.155  1.00  0.00    -0.235 OA 
BRANCH   8   9
HETATM    9  C   UNL     1     -10.485  13.770  67.792  1.00  0.00    -0.240 A  
HETATM   10  C   UNL     1     -11.654  11.789  66.993  1.00  0.00    -0.321 A  
HETATM   11  C   UNL     1      -9.401  11.591  67.805  1.00  0.00    -0.168 A  
HETATM   12  C   UNL     1     -10.551  10.998  67.295  1.00  0.00    -0.287 A  
HETATM   13  C   UNL     1     -11.620  13.167  67.239  1.00  0.00    -0.404 A  
HETATM   14  C   UNL     1      -9.348  12.973  68.025  1.00  0.00    -0.213 A  
BRANCH  14  15
HETATM   15  O   UNL     1      -8.136  13.402  68.511  1.00  0.00    -0.150 OA 
BRANCH  15  16
HETATM   16  C   UNL     1      -7.176  13.787  67.525  1.00  0.00    -0.158 C  
HETATM   17  C   UNL     1      -6.109  12.706  67.455  1.00  0.00    -0.142 C  
ENDBRANCH  15  16
ENDBRANCH  14  15
ENDBRANCH   8   9
ENDBRANCH   1   8
BRANCH   1  18
HETATM   18  C   UNL     1      -9.369  16.930  69.301  1.00  0.00    -0.031 C  
HETATM   19  N   UNL     1      -8.656  16.962  66.856  1.00  0.00    -0.202 NA 
HETATM   20  O   UNL     1     -10.411  17.887  68.986  1.00  0.00    -0.361 OA 
HETATM   21  H   UNL     1      -8.874  16.000  66.596  1.00  0.00     0.000 HD 
HETATM   22  C   UNL     1      -9.785  17.873  66.612  1.00  0.00    -0.319 C  
HETATM   23  C   UNL     1      -8.228  17.077  68.265  1.00  0.00    -0.227 C  
HETATM   24  C   UNL     1     -10.908  17.750  67.652  1.00  0.00    -0.224 C  
ENDBRANCH   1  18
TORSDOF 6
ENDMDL
MODEL      168
REMARK 921   NORMALIZED FREE ENERGY PREDICTED BY IDOCK:   -3.63 KCAL/MOL
REMARK 922        TOTAL FREE ENERGY PREDICTED BY IDOCK:   -6.02 KCAL/MOL
REMARK 923 INTER-LIGAND FREE ENERGY PREDICTED BY IDOCK:   -5.70 KCAL/MOL
REMARK 924 INTRA-LIGAND FREE ENERGY PREDICTED BY IDOCK:   -0.33 KCAL/MOL
REMARK 927      BINDING AFFINITY PREDICTED BY RF-SCORE:    0.00 PKD
ROOT
HETATM    1  C   UNL     1      -8.919  11.589  68.371  1.00  0.00    -0.173 C  
ENDROOT
BRANCH   1   2
HETATM    2  C   UNL     1     -10.094  12.441  67.912  1.00  0.00    -0.208 A  
HETATM    3  C   UNL     1     -11.966  12.804  66.401  1.00  0.00    -0.443 A  
HETATM    4  C   UNL     1     -10.271  13.749  68.397  1.00  0.00    -0.248 A  
HETATM    5  C   UNL     1     -11.259  14.579  67.871  1.00  0.00    -0.310 A  
HETATM    6  C   UNL     1     -12.102  14.111  66.864  1.00  0.00    -0.466 A  
HETATM    7  C   UNL     1     -10.972  11.973  66.923  1.00  0.00    -0.328 A  
ENDBRANCH   1   2
BRANCH   1   8
HETATM    8  O   UNL     1      -9.421  10.248  68.562  1.00  0.00    -0.148 OA 
BRANCH   8   9
HETATM    9  C   UNL     1      -9.542   9.692  69.804  1.00  0.00    -0.219 A  
HETATM   10  C   UNL     1      -8.742   8.411  71.714  1.00  0.00    -0.241 A  
HETATM   11  C   UNL     1     -11.046   9.090  71.621  1.00  0.00    -0.433 A  
HETATM   12  C   UNL     1     -10.017   8.415  72.270  1.00  0.00    -0.383 A  
HETATM   13  C   UNL     1      -8.507   9.047  70.490  1.00  0.00    -0.226 A  
HETATM   14  C   UNL     1     -10.811   9.755  70.410  1.00  0.00    -0.311 A  
BRANCH  14  15
HETATM   15  O   UNL     1     -11.923  10.389  69.911  1.00  0.00    -0.260 OA 
BRANCH  15  16
HETATM   16  C   UNL     1     -12.810  10.941  70.885  1.00  0.00    -0.326 C  
HETATM   17  C   UNL     1     -12.578  12.442  70.942  1.00  0.00    -0.337 C  
ENDBRANCH  15  16
ENDBRANCH  14  15
ENDBRANCH   8   9
ENDBRANCH   1   8
BRANCH   1  18
HETATM   18  C   UNL     1      -7.750  11.482  67.346  1.00  0.00    -0.143 C  
HETATM   19  N   UNL     1      -6.644   9.287  68.012  1.00  0.00    -0.059 NA 
HETATM   20  O   UNL     1      -8.179  10.864  66.107  1.00  0.00    -0.163 OA 
HETATM   21  H   UNL     1      -7.211   9.043  68.824  1.00  0.00     0.000 HD 
HETATM   22  C   UNL     1      -7.183   8.718  66.767  1.00  0.00    -0.082 C  
HETATM   23  C   UNL     1      -6.487  10.747  67.859  1.00  0.00    -0.062 C  
HETATM   24  C   UNL     1      -8.420   9.460  66.240  1.00  0.00    -0.126 C  
ENDBRANCH   1  18
TORSDOF 6
ENDMDL
MODEL      169
REMARK 921   NORMALIZED FREE ENERGY PREDICTED BY IDOCK:   -3.62 KCAL/MOL
REMARK 922        TOTAL FREE ENERGY PREDICTED BY IDOCK:   -6.01 KCAL/MOL
REMARK 923 INTER-LIGAND FREE ENERGY PREDICTED BY IDOCK:   -5.37 KCAL/MOL
REMARK 924 INTRA-LIGAND FREE ENERGY PREDICTED BY IDOCK:   -0.64 KCAL/MOL
REMARK 927      BINDING AFFINITY PREDICTED BY RF-SCORE:    0.00 PKD
ROOT
HETATM    1  C   UNL     1      -8.899  10.448  67.985  1.00  0.00    -0.130 C  
ENDROOT
BRANCH   1   2
HETATM    2  C   UNL     1      -7.687  11.367  68.047  1.00  0.00    -0.114 A  
HETATM    3  C   UNL     1      -6.714  13.535  68.568  1.00  0.00    -0.095 A  
HETATM    4  C   UNL     1      -6.473  11.002  67.437  1.00  0.00    -0.067 A  
HETATM    5  C   UNL     1      -5.409  11.900  67.368  1.00  0.00    -0.104 A  
HETATM    6  C   UNL     1      -5.532  13.172  67.924  1.00  0.00    -0.117 A  
HETATM    7  C   UNL     1      -7.783  12.638  68.632  1.00  0.00    -0.066 A  
ENDBRANCH   1   2
BRANCH   1   8
HETATM    8  O   UNL     1      -9.865  10.962  68.928  1.00  0.00    -0.191 OA 
BRANCH   8   9
HETATM    9  C   UNL     1     -10.245  10.253  70.032  1.00  0.00    -0.162 A  
HETATM   10  C   UNL     1      -9.969   8.519  71.718  1.00  0.00    -0.345 A  
HETATM   11  C   UNL     1     -12.038   9.735  71.594  1.00  0.00    -0.475 A  
HETATM   12  C   UNL     1     -11.265   8.735  72.175  1.00  0.00    -0.408 A  
HETATM   13  C   UNL     1      -9.463   9.274  70.655  1.00  0.00    -0.333 A  
HETATM   14  C   UNL     1     -11.528  10.516  70.549  1.00  0.00    -0.345 A  
BRANCH  14  15
HETATM   15  O   UNL     1     -12.408  11.471  70.102  1.00  0.00    -0.288 OA 
BRANCH  15  16
HETATM   16  C   UNL     1     -12.514  12.643  70.911  1.00  0.00    -0.278 C  
HETATM   17  C   UNL     1     -12.344  13.858  70.013  1.00  0.00    -0.378 C  
ENDBRANCH  15  16
ENDBRANCH  14  15
ENDBRANCH   8   9
ENDBRANCH   1   8
BRANCH   1  18
HETATM   18  C   UNL     1      -9.614  10.404  66.601  1.00  0.00    -0.177 C  
HETATM   19  N   UNL     1     -11.810  11.598  67.085  1.00  0.00    -0.607 NA 
HETATM   20  O   UNL     1      -9.221  11.515  65.759  1.00  0.00    -0.223 OA 
HETATM   21  H   UNL     1     -11.703  11.767  68.086  1.00  0.00     0.000 HD 
HETATM   22  C   UNL     1     -11.301  12.715  66.275  1.00  0.00    -0.329 C  
HETATM   23  C   UNL     1     -11.160  10.343  66.658  1.00  0.00     0.109 C  
HETATM   24  C   UNL     1      -9.768  12.763  66.193  1.00  0.00    -0.246 C  
ENDBRANCH   1  18
TORSDOF 6
ENDMDL
MODEL      170
REMARK 921   NORMALIZED FREE ENERGY PREDICTED BY IDOCK:   -3.61 KCAL/MOL
REMARK 922        TOTAL FREE ENERGY PREDICTED BY IDOCK:   -6.00 KCAL/MOL
REMARK 923 INTER-LIGAND FREE ENERGY PREDICTED BY IDOCK:   -5.79 KCAL/MOL
REMARK 924 INTRA-LIGAND FREE ENERGY PREDICTED BY IDOCK:   -0.22 KCAL/MOL
REMARK 927      BINDING AFFINITY PREDICTED BY RF-SCORE:    0.00 PKD
ROOT
HETATM    1  C   UNL     1      -9.209  10.031  68.942  1.00  0.00    -0.169 C  
ENDROOT
BRANCH   1   2
HETATM    2  C   UNL     1      -9.454  10.190  67.448  1.00  0.00    -0.175 A  
HETATM    3  C   UNL     1     -10.478  11.397  65.600  1.00  0.00    -0.316 A  
HETATM    4  C   UNL     1      -9.095   9.173  66.546  1.00  0.00    -0.194 A  
HETATM    5  C   UNL     1      -9.448   9.254  65.200  1.00  0.00    -0.184 A  
HETATM    6  C   UNL     1     -10.150  10.361  64.727  1.00  0.00    -0.387 A  
HETATM    7  C   UNL     1     -10.130  11.314  66.951  1.00  0.00    -0.246 A  
ENDBRANCH   1   2
BRANCH   1   8
HETATM    8  O   UNL     1     -10.236   9.149  69.446  1.00  0.00    -0.196 OA 
BRANCH   8   9
HETATM    9  C   UNL     1     -11.261   9.605  70.226  1.00  0.00    -0.271 A  
HETATM   10  C   UNL     1     -12.653  11.343  71.211  1.00  0.00    -0.480 A  
HETATM   11  C   UNL     1     -12.897   9.068  71.946  1.00  0.00    -0.451 A  
HETATM   12  C   UNL     1     -13.256  10.408  72.045  1.00  0.00    -0.497 A  
HETATM   13  C   UNL     1     -11.663  10.943  70.306  1.00  0.00    -0.437 A  
HETATM   14  C   UNL     1     -11.929   8.655  71.022  1.00  0.00    -0.243 A  
BRANCH  14  15
HETATM   15  O   UNL     1     -11.705   7.300  71.035  1.00  0.00    -0.287 OA 
BRANCH  15  16
HETATM   16  C   UNL     1     -12.233   6.595  72.160  1.00  0.00    -0.228 C  
HETATM   17  C   UNL     1     -11.237   5.517  72.555  1.00  0.00    -0.330 C  
ENDBRANCH  15  16
ENDBRANCH  14  15
ENDBRANCH   8   9
ENDBRANCH   1   8
BRANCH   1  18
HETATM   18  C   UNL     1      -7.844   9.377  69.314  1.00  0.00    -0.085 C  
HETATM   19  N   UNL     1      -8.261   8.566  71.692  1.00  0.00    -0.151 NA 
HETATM   20  O   UNL     1      -7.775   7.997  68.879  1.00  0.00    -0.100 OA 
HETATM   21  H   UNL     1      -9.208   8.917  71.835  1.00  0.00     0.000 HD 
HETATM   22  C   UNL     1      -8.251   7.197  71.152  1.00  0.00    -0.112 C  
HETATM   23  C   UNL     1      -7.465   9.447  70.814  1.00  0.00    -0.112 C  
HETATM   24  C   UNL     1      -8.600   7.126  69.658  1.00  0.00    -0.137 C  
ENDBRANCH   1  18
TORSDOF 6
ENDMDL
MODEL      171
REMARK 921   NORMALIZED FREE ENERGY PREDICTED BY IDOCK:   -3.60 KCAL/MOL
REMARK 922        TOTAL FREE ENERGY PREDICTED BY IDOCK:   -5.98 KCAL/MOL
REMARK 923 INTER-LIGAND FREE ENERGY PREDICTED BY IDOCK:   -5.53 KCAL/MOL
REMARK 924 INTRA-LIGAND FREE ENERGY PREDICTED BY IDOCK:   -0.45 KCAL/MOL
REMARK 927      BINDING AFFINITY PREDICTED BY RF-SCORE:    0.00 PKD
ROOT
HETATM    1  C   UNL     1     -10.102  13.880  68.255  1.00  0.00    -0.241 C  
ENDROOT
BRANCH   1   2
HETATM    2  C   UNL     1     -10.050  12.674  67.327  1.00  0.00    -0.215 A  
HETATM    3  C   UNL     1      -9.869  11.752  65.083  1.00  0.00    -0.263 A  
HETATM    4  C   UNL     1     -10.363  11.387  67.799  1.00  0.00    -0.206 A  
HETATM    5  C   UNL     1     -10.457  10.308  66.921  1.00  0.00    -0.291 A  
HETATM    6  C   UNL     1     -10.221  10.491  65.560  1.00  0.00    -0.325 A  
HETATM    7  C   UNL     1      -9.781  12.836  65.960  1.00  0.00    -0.226 A  
ENDBRANCH   1   2
BRANCH   1   8
HETATM    8  O   UNL     1      -8.976  14.719  67.918  1.00  0.00    -0.165 OA 
BRANCH   8   9
HETATM    9  C   UNL     1      -7.780  14.620  68.570  1.00  0.00    -0.126 A  
HETATM   10  C   UNL     1      -5.961  13.394  69.626  1.00  0.00    -0.119 A  
HETATM   11  C   UNL     1      -6.031  15.791  69.793  1.00  0.00    -0.159 A  
HETATM   12  C   UNL     1      -5.421  14.582  70.110  1.00  0.00    -0.111 A  
HETATM   13  C   UNL     1      -7.132  13.414  68.860  1.00  0.00    -0.084 A  
HETATM   14  C   UNL     1      -7.186  15.822  69.001  1.00  0.00    -0.168 A  
BRANCH  14  15
HETATM   15  O   UNL     1      -7.651  17.093  68.763  1.00  0.00    -0.243 OA 
BRANCH  15  16
HETATM   16  C   UNL     1      -6.699  18.143  68.942  1.00  0.00    -0.252 C  
HETATM   17  C   UNL     1      -7.449  19.466  68.951  1.00  0.00    -0.399 C  
ENDBRANCH  15  16
ENDBRANCH  14  15
ENDBRANCH   8   9
ENDBRANCH   1   8
BRANCH   1  18
HETATM   18  C   UNL     1     -11.375  14.767  68.103  1.00  0.00    -0.307 C  
HETATM   19  N   UNL     1     -10.657  16.942  69.214  1.00  0.00    -0.345 NA 
HETATM   20  O   UNL     1     -11.401  15.452  66.827  1.00  0.00    -0.258 OA 
HETATM   21  H   UNL     1      -9.725  16.678  69.533  1.00  0.00     0.000 HD 
HETATM   22  C   UNL     1     -10.636  17.540  67.870  1.00  0.00    -0.390 C  
HETATM   23  C   UNL     1     -11.596  15.803  69.231  1.00  0.00    -0.373 C  
HETATM   24  C   UNL     1     -10.444  16.512  66.745  1.00  0.00    -0.269 C  
ENDBRANCH   1  18
TORSDOF 6
ENDMDL
MODEL      172
REMARK 921   NORMALIZED FREE ENERGY PREDICTED BY IDOCK:   -3.59 KCAL/MOL
REMARK 922        TOTAL FREE ENERGY PREDICTED BY IDOCK:   -5.98 KCAL/MOL
REMARK 923 INTER-LIGAND FREE ENERGY PREDICTED BY IDOCK:   -6.19 KCAL/MOL
REMARK 924 INTRA-LIGAND FREE ENERGY PREDICTED BY IDOCK:    0.21 KCAL/MOL
REMARK 927      BINDING AFFINITY PREDICTED BY RF-SCORE:    0.00 PKD
ROOT
HETATM    1  C   UNL     1      -9.959  13.442  68.053  1.00  0.00    -0.239 C  
ENDROOT
BRANCH   1   2
HETATM    2  C   UNL     1     -11.075  13.846  69.006  1.00  0.00    -0.302 A  
HETATM    3  C   UNL     1     -12.479  15.572  69.990  1.00  0.00    -0.293 A  
HETATM    4  C   UNL     1     -11.582  12.936  69.950  1.00  0.00    -0.246 A  
HETATM    5  C   UNL     1     -12.500  13.346  70.916  1.00  0.00    -0.439 A  
HETATM    6  C   UNL     1     -12.941  14.667  70.945  1.00  0.00    -0.425 A  
HETATM    7  C   UNL     1     -11.554  15.164  69.025  1.00  0.00    -0.350 A  
ENDBRANCH   1   2
BRANCH   1   8
HETATM    8  O   UNL     1     -10.040  14.323  66.912  1.00  0.00    -0.256 OA 
BRANCH   8   9
HETATM    9  C   UNL     1     -10.693  13.964  65.767  1.00  0.00    -0.289 A  
HETATM   10  C   UNL     1     -12.095  14.393  63.823  1.00  0.00    -0.039 A  
HETATM   11  C   UNL     1     -11.474  12.135  64.364  1.00  0.00    -0.417 A  
HETATM   12  C   UNL     1     -12.168  13.030  63.556  1.00  0.00    -0.580 A  
HETATM   13  C   UNL     1     -11.360  14.856  64.921  1.00  0.00    -0.415 A  
HETATM   14  C   UNL     1     -10.712  12.593  65.446  1.00  0.00    -0.280 A  
BRANCH  14  15
HETATM   15  O   UNL     1     -10.072  11.587  66.128  1.00  0.00    -0.215 OA 
BRANCH  15  16
HETATM   16  C   UNL     1      -8.994  10.956  65.434  1.00  0.00    -0.193 C  
HETATM   17  C   UNL     1      -9.293   9.468  65.345  1.00  0.00    -0.324 C  
ENDBRANCH  15  16
ENDBRANCH  14  15
ENDBRANCH   8   9
ENDBRANCH   1   8
BRANCH   1  18
HETATM   18  C   UNL     1      -8.519  13.597  68.630  1.00  0.00    -0.038 C  
HETATM   19  N   UNL     1      -7.310  14.819  66.751  1.00  0.00    -0.226 NA 
HETATM   20  O   UNL     1      -8.396  14.785  69.451  1.00  0.00    -0.101 OA 
HETATM   21  H   UNL     1      -8.057  14.860  66.057  1.00  0.00     0.000 HD 
HETATM   22  C   UNL     1      -7.296  16.003  67.624  1.00  0.00    -0.151 C  
HETATM   23  C   UNL     1      -7.383  13.598  67.578  1.00  0.00    -0.166 C  
HETATM   24  C   UNL     1      -8.406  15.993  68.686  1.00  0.00    -0.203 C  
ENDBRANCH   1  18
TORSDOF 6
ENDMDL
MODEL      173
REMARK 921   NORMALIZED FREE ENERGY PREDICTED BY IDOCK:   -3.58 KCAL/MOL
REMARK 922        TOTAL FREE ENERGY PREDICTED BY IDOCK:   -5.96 KCAL/MOL
REMARK 923 INTER-LIGAND FREE ENERGY PREDICTED BY IDOCK:   -4.81 KCAL/MOL
REMARK 924 INTRA-LIGAND FREE ENERGY PREDICTED BY IDOCK:   -1.14 KCAL/MOL
REMARK 927      BINDING AFFINITY PREDICTED BY RF-SCORE:    0.00 PKD
ROOT
HETATM    1  C   UNL     1      -8.753  10.491  67.308  1.00  0.00    -0.126 C  
ENDROOT
BRANCH   1   2
HETATM    2  C   UNL     1      -9.816  11.001  66.345  1.00  0.00    -0.252 A  
HETATM    3  C   UNL     1     -10.576  11.396  64.067  1.00  0.00    -0.444 A  
HETATM    4  C   UNL     1     -10.909  11.754  66.809  1.00  0.00    -0.312 A  
HETATM    5  C   UNL     1     -11.803  12.342  65.915  1.00  0.00    -0.467 A  
HETATM    6  C   UNL     1     -11.631  12.173  64.542  1.00  0.00    -0.403 A  
HETATM    7  C   UNL     1      -9.676  10.811  64.962  1.00  0.00    -0.323 A  
ENDBRANCH   1   2
BRANCH   1   8
HETATM    8  O   UNL     1      -8.515   9.106  66.977  1.00  0.00    -0.122 OA 
BRANCH   8   9
HETATM    9  C   UNL     1      -9.304   8.102  67.462  1.00  0.00    -0.140 A  
HETATM   10  C   UNL     1     -11.218   6.597  67.395  1.00  0.00    -0.294 A  
HETATM   11  C   UNL     1      -9.848   6.687  69.367  1.00  0.00    -0.160 A  
HETATM   12  C   UNL     1     -10.955   6.180  68.695  1.00  0.00    -0.415 A  
HETATM   13  C   UNL     1     -10.396   7.551  66.782  1.00  0.00    -0.332 A  
HETATM   14  C   UNL     1      -9.003   7.619  68.751  1.00  0.00    -0.133 A  
BRANCH  14  15
HETATM   15  O   UNL     1      -7.946   8.003  69.539  1.00  0.00    -0.110 OA 
BRANCH  15  16
HETATM   16  C   UNL     1      -7.301   6.954  70.264  1.00  0.00    -0.084 C  
HETATM   17  C   UNL     1      -5.966   7.478  70.768  1.00  0.00    -0.034 C  
ENDBRANCH  15  16
ENDBRANCH  14  15
ENDBRANCH   8   9
ENDBRANCH   1   8
BRANCH   1  18
HETATM   18  C   UNL     1      -7.376  11.214  67.202  1.00  0.00    -0.121 C  
HETATM   19  N   UNL     1      -7.670  13.177  68.798  1.00  0.00    -0.292 NA 
HETATM   20  O   UNL     1      -6.403  10.647  68.114  1.00  0.00    -0.057 OA 
HETATM   21  H   UNL     1      -8.641  13.035  69.076  1.00  0.00     0.000 HD 
HETATM   22  C   UNL     1      -6.729  12.494  69.699  1.00  0.00     0.079 C  
HETATM   23  C   UNL     1      -7.418  12.748  67.408  1.00  0.00    -0.145 C  
HETATM   24  C   UNL     1      -6.664  10.975  69.481  1.00  0.00    -0.126 C  
ENDBRANCH   1  18
TORSDOF 6
ENDMDL
MODEL      174
REMARK 921   NORMALIZED FREE ENERGY PREDICTED BY IDOCK:   -3.57 KCAL/MOL
REMARK 922        TOTAL FREE ENERGY PREDICTED BY IDOCK:   -5.95 KCAL/MOL
REMARK 923 INTER-LIGAND FREE ENERGY PREDICTED BY IDOCK:   -4.83 KCAL/MOL
REMARK 924 INTRA-LIGAND FREE ENERGY PREDICTED BY IDOCK:   -1.12 KCAL/MOL
REMARK 927      BINDING AFFINITY PREDICTED BY RF-SCORE:    0.00 PKD
ROOT
HETATM    1  C   UNL     1      -9.569  10.179  66.801  1.00  0.00    -0.177 C  
ENDROOT
BRANCH   1   2
HETATM    2  C   UNL     1     -10.095  11.571  67.123  1.00  0.00    -0.223 A  
HETATM    3  C   UNL     1      -9.832  13.712  68.248  1.00  0.00    -0.232 A  
HETATM    4  C   UNL     1     -11.415  11.936  66.802  1.00  0.00    -0.384 A  
HETATM    5  C   UNL     1     -11.942  13.156  67.223  1.00  0.00    -0.389 A  
HETATM    6  C   UNL     1     -11.155  14.041  67.957  1.00  0.00    -0.282 A  
HETATM    7  C   UNL     1      -9.304  12.487  67.831  1.00  0.00    -0.200 A  
ENDBRANCH   1   2
BRANCH   1   8
HETATM    8  O   UNL     1     -10.371   9.243  67.554  1.00  0.00    -0.228 OA 
BRANCH   8   9
HETATM    9  C   UNL     1     -10.179   9.039  68.891  1.00  0.00    -0.208 A  
HETATM   10  C   UNL     1     -10.785   9.230  71.241  1.00  0.00    -0.422 A  
HETATM   11  C   UNL     1      -8.625   8.366  70.639  1.00  0.00    -0.150 A  
HETATM   12  C   UNL     1      -9.537   8.744  71.618  1.00  0.00    -0.363 A  
HETATM   13  C   UNL     1     -11.103   9.375  69.886  1.00  0.00    -0.223 A  
HETATM   14  C   UNL     1      -8.947   8.479  69.281  1.00  0.00    -0.146 A  
BRANCH  14  15
HETATM   15  O   UNL     1      -7.948   8.043  68.445  1.00  0.00    -0.116 OA 
BRANCH  15  16
HETATM   16  C   UNL     1      -6.620   8.142  68.962  1.00  0.00    -0.048 C  
HETATM   17  C   UNL     1      -5.732   7.192  68.176  1.00  0.00    -0.022 C  
ENDBRANCH  15  16
ENDBRANCH  14  15
ENDBRANCH   8   9
ENDBRANCH   1   8
BRANCH   1  18
HETATM   18  C   UNL     1      -9.693   9.764  65.304  1.00  0.00    -0.300 C  
HETATM   19  N   UNL     1      -7.470  10.545  64.339  1.00  0.00    -0.344 NA 
HETATM   20  O   UNL     1      -9.278   8.392  65.092  1.00  0.00     0.037 OA 
HETATM   21  H   UNL     1      -7.065  10.987  65.164  1.00  0.00     0.000 HD 
HETATM   22  C   UNL     1      -7.099   9.126  64.229  1.00  0.00    -0.095 C  
HETATM   23  C   UNL     1      -8.940  10.674  64.303  1.00  0.00    -0.198 C  
HETATM   24  C   UNL     1      -7.863   8.216  65.202  1.00  0.00    -0.118 C  
ENDBRANCH   1  18
TORSDOF 6
ENDMDL
MODEL      175
REMARK 921   NORMALIZED FREE ENERGY PREDICTED BY IDOCK:   -3.54 KCAL/MOL
REMARK 922        TOTAL FREE ENERGY PREDICTED BY IDOCK:   -5.91 KCAL/MOL
REMARK 923 INTER-LIGAND FREE ENERGY PREDICTED BY IDOCK:   -5.21 KCAL/MOL
REMARK 924 INTRA-LIGAND FREE ENERGY PREDICTED BY IDOCK:   -0.70 KCAL/MOL
REMARK 927      BINDING AFFINITY PREDICTED BY RF-SCORE:    0.00 PKD
ROOT
HETATM    1  C   UNL     1      -9.622   9.128  69.121  1.00  0.00    -0.161 C  
ENDROOT
BRANCH   1   2
HETATM    2  C   UNL     1     -10.218  10.513  68.916  1.00  0.00    -0.223 A  
HETATM    3  C   UNL     1      -9.942  12.856  68.322  1.00  0.00    -0.234 A  
HETATM    4  C   UNL     1     -11.526  10.807  69.344  1.00  0.00    -0.366 A  
HETATM    5  C   UNL     1     -12.020  12.109  69.288  1.00  0.00    -0.318 A  
HETATM    6  C   UNL     1     -11.225  13.138  68.787  1.00  0.00    -0.323 A  
HETATM    7  C   UNL     1      -9.442  11.553  68.383  1.00  0.00    -0.195 A  
ENDBRANCH   1   2
BRANCH   1   8
HETATM    8  O   UNL     1     -10.198   8.597  70.334  1.00  0.00    -0.185 OA 
BRANCH   8   9
HETATM    9  C   UNL     1      -9.465   8.447  71.477  1.00  0.00    -0.203 A  
HETATM   10  C   UNL     1      -7.400   8.453  72.767  1.00  0.00    -0.113 A  
HETATM   11  C   UNL     1      -9.422   7.627  73.769  1.00  0.00    -0.300 A  
HETATM   12  C   UNL     1      -8.056   7.880  73.850  1.00  0.00    -0.269 A  
HETATM   13  C   UNL     1      -8.100   8.736  71.589  1.00  0.00    -0.153 A  
HETATM   14  C   UNL     1     -10.136   7.935  72.604  1.00  0.00    -0.279 A  
BRANCH  14  15
HETATM   15  O   UNL     1     -11.476   7.645  72.693  1.00  0.00    -0.340 OA 
BRANCH  15  16
HETATM   16  C   UNL     1     -11.904   6.473  71.998  1.00  0.00    -0.329 C  
HETATM   17  C   UNL     1     -11.580   5.264  72.861  1.00  0.00    -0.292 C  
ENDBRANCH  15  16
ENDBRANCH  14  15
ENDBRANCH   8   9
ENDBRANCH   1   8
BRANCH   1  18
HETATM   18  C   UNL     1      -9.947   8.103  67.992  1.00  0.00    -0.184 C  
HETATM   19  N   UNL     1      -8.612   9.020  66.027  1.00  0.00    -0.135 NA 
HETATM   20  O   UNL     1      -9.059   6.960  68.034  1.00  0.00    -0.122 OA 
HETATM   21  H   UNL     1      -8.231   9.866  66.451  1.00  0.00     0.000 HD 
HETATM   22  C   UNL     1      -7.714   7.865  66.189  1.00  0.00    -0.091 C  
HETATM   23  C   UNL     1      -9.948   8.682  66.556  1.00  0.00    -0.282 C  
HETATM   24  C   UNL     1      -7.730   7.271  67.606  1.00  0.00    -0.112 C  
ENDBRANCH   1  18
TORSDOF 6
ENDMDL
MODEL      176
REMARK 921   NORMALIZED FREE ENERGY PREDICTED BY IDOCK:   -3.53 KCAL/MOL
REMARK 922        TOTAL FREE ENERGY PREDICTED BY IDOCK:   -5.90 KCAL/MOL
REMARK 923 INTER-LIGAND FREE ENERGY PREDICTED BY IDOCK:   -5.10 KCAL/MOL
REMARK 924 INTRA-LIGAND FREE ENERGY PREDICTED BY IDOCK:   -0.80 KCAL/MOL
REMARK 927      BINDING AFFINITY PREDICTED BY RF-SCORE:    0.00 PKD
ROOT
HETATM    1  C   UNL     1      -8.935  11.880  67.969  1.00  0.00    -0.185 C  
ENDROOT
BRANCH   1   2
HETATM    2  C   UNL     1     -10.211  11.715  68.782  1.00  0.00    -0.190 A  
HETATM    3  C   UNL     1     -12.048  12.699  70.037  1.00  0.00    -0.339 A  
HETATM    4  C   UNL     1     -10.620  10.448  69.234  1.00  0.00    -0.259 A  
HETATM    5  C   UNL     1     -11.706  10.314  70.098  1.00  0.00    -0.364 A  
HETATM    6  C   UNL     1     -12.415  11.440  70.509  1.00  0.00    -0.381 A  
HETATM    7  C   UNL     1     -10.955  12.836  69.177  1.00  0.00    -0.185 A  
ENDBRANCH   1   2
BRANCH   1   8
HETATM    8  O   UNL     1      -9.258  12.727  66.845  1.00  0.00    -0.217 OA 
BRANCH   8   9
HETATM    9  C   UNL     1      -9.726  12.216  65.667  1.00  0.00    -0.207 A  
HETATM   10  C   UNL     1     -10.074  10.440  64.038  1.00  0.00    -0.216 A  
HETATM   11  C   UNL     1     -10.647  12.703  63.467  1.00  0.00    -0.301 A  
HETATM   12  C   UNL     1     -10.544  11.362  63.110  1.00  0.00    -0.278 A  
HETATM   13  C   UNL     1      -9.669  10.865  65.309  1.00  0.00    -0.296 A  
HETATM   14  C   UNL     1     -10.272  13.131  64.747  1.00  0.00    -0.301 A  
BRANCH  14  15
HETATM   15  O   UNL     1     -10.455  14.478  64.946  1.00  0.00    -0.418 OA 
BRANCH  15  16
HETATM   16  C   UNL     1     -11.813  14.920  64.986  1.00  0.00    -0.299 C  
HETATM   17  C   UNL     1     -12.613  13.920  65.805  1.00  0.00    -0.533 C  
ENDBRANCH  15  16
ENDBRANCH  14  15
ENDBRANCH   8   9
ENDBRANCH   1   8
BRANCH   1  18
HETATM   18  C   UNL     1      -7.764  12.578  68.726  1.00  0.00     0.003 C  
HETATM   19  N   UNL     1      -5.955  10.786  68.699  1.00  0.00    -0.040 NA 
HETATM   20  O   UNL     1      -6.952  13.380  67.833  1.00  0.00    -0.106 OA 
HETATM   21  H   UNL     1      -6.464  10.029  68.241  1.00  0.00     0.000 HD 
HETATM   22  C   UNL     1      -5.232  11.630  67.736  1.00  0.00    -0.052 C  
HETATM   23  C   UNL     1      -6.839  11.630  69.527  1.00  0.00    -0.051 C  
HETATM   24  C   UNL     1      -6.143  12.591  66.957  1.00  0.00     0.114 C  
ENDBRANCH   1  18
TORSDOF 6
ENDMDL
MODEL      177
REMARK 921   NORMALIZED FREE ENERGY PREDICTED BY IDOCK:   -3.53 KCAL/MOL
REMARK 922        TOTAL FREE ENERGY PREDICTED BY IDOCK:   -5.89 KCAL/MOL
REMARK 923 INTER-LIGAND FREE ENERGY PREDICTED BY IDOCK:   -5.86 KCAL/MOL
REMARK 924 INTRA-LIGAND FREE ENERGY PREDICTED BY IDOCK:   -0.03 KCAL/MOL
REMARK 927      BINDING AFFINITY PREDICTED BY RF-SCORE:    0.00 PKD
ROOT
HETATM    1  C   UNL     1      -9.275  12.420  66.873  1.00  0.00    -0.209 C  
ENDROOT
BRANCH   1   2
HETATM    2  C   UNL     1     -10.282  12.415  65.731  1.00  0.00    -0.283 A  
HETATM    3  C   UNL     1     -12.573  12.647  64.945  1.00  0.00    -0.525 A  
HETATM    4  C   UNL     1      -9.922  11.951  64.453  1.00  0.00    -0.260 A  
HETATM    5  C   UNL     1     -10.878  11.810  63.448  1.00  0.00    -0.460 A  
HETATM    6  C   UNL     1     -12.207  12.148  63.696  1.00  0.00    -0.663 A  
HETATM    7  C   UNL     1     -11.617  12.783  65.955  1.00  0.00    -0.432 A  
ENDBRANCH   1   2
BRANCH   1   8
HETATM    8  O   UNL     1      -9.424  13.682  67.559  1.00  0.00    -0.209 OA 
BRANCH   8   9
HETATM    9  C   UNL     1      -8.349  14.460  67.881  1.00  0.00    -0.162 A  
HETATM   10  C   UNL     1      -5.975  15.003  67.921  1.00  0.00    -0.163 A  
HETATM   11  C   UNL     1      -7.517  16.327  69.203  1.00  0.00    -0.218 A  
HETATM   12  C   UNL     1      -6.213  16.046  68.809  1.00  0.00    -0.115 A  
HETATM   13  C   UNL     1      -7.037  14.217  67.459  1.00  0.00    -0.184 A  
HETATM   14  C   UNL     1      -8.588  15.564  68.722  1.00  0.00    -0.188 A  
BRANCH  14  15
HETATM   15  O   UNL     1      -9.810  15.984  69.189  1.00  0.00    -0.220 OA 
BRANCH  15  16
HETATM   16  C   UNL     1     -10.714  14.948  69.577  1.00  0.00    -0.244 C  
HETATM   17  C   UNL     1     -12.031  15.593  69.980  1.00  0.00    -0.384 C  
ENDBRANCH  15  16
ENDBRANCH  14  15
ENDBRANCH   8   9
ENDBRANCH   1   8
BRANCH   1  18
HETATM   18  C   UNL     1      -9.494  11.307  67.942  1.00  0.00    -0.178 C  
HETATM   19  N   UNL     1      -9.785   9.225  66.505  1.00  0.00    -0.219 NA 
HETATM   20  O   UNL     1      -8.237  10.772  68.423  1.00  0.00    -0.116 OA 
HETATM   21  H   UNL     1      -9.738   9.643  65.576  1.00  0.00     0.000 HD 
HETATM   22  C   UNL     1      -8.465   8.792  66.987  1.00  0.00    -0.109 C  
HETATM   23  C   UNL     1     -10.398  10.132  67.495  1.00  0.00    -0.230 C  
HETATM   24  C   UNL     1      -7.574   9.952  67.456  1.00  0.00    -0.091 C  
ENDBRANCH   1  18
TORSDOF 6
ENDMDL
MODEL      178
REMARK 921   NORMALIZED FREE ENERGY PREDICTED BY IDOCK:   -3.51 KCAL/MOL
REMARK 922        TOTAL FREE ENERGY PREDICTED BY IDOCK:   -5.87 KCAL/MOL
REMARK 923 INTER-LIGAND FREE ENERGY PREDICTED BY IDOCK:   -6.68 KCAL/MOL
REMARK 924 INTRA-LIGAND FREE ENERGY PREDICTED BY IDOCK:    0.81 KCAL/MOL
REMARK 927      BINDING AFFINITY PREDICTED BY RF-SCORE:    0.00 PKD
ROOT
HETATM    1  C   UNL     1     -10.496  11.529  67.148  1.00  0.00    -0.224 C  
ENDROOT
BRANCH   1   2
HETATM    2  C   UNL     1      -8.975  11.593  67.139  1.00  0.00    -0.173 A  
HETATM    3  C   UNL     1      -6.912  12.707  67.789  1.00  0.00    -0.125 A  
HETATM    4  C   UNL     1      -8.222  10.756  66.296  1.00  0.00    -0.162 A  
HETATM    5  C   UNL     1      -6.842  10.913  66.180  1.00  0.00    -0.100 A  
HETATM    6  C   UNL     1      -6.186  11.896  66.918  1.00  0.00    -0.115 A  
HETATM    7  C   UNL     1      -8.296  12.555  67.902  1.00  0.00    -0.167 A  
ENDBRANCH   1   2
BRANCH   1   8
HETATM    8  O   UNL     1     -10.899  11.311  68.518  1.00  0.00    -0.180 OA 
BRANCH   8   9
HETATM    9  C   UNL     1     -11.515  12.284  69.253  1.00  0.00    -0.292 A  
HETATM   10  C   UNL     1     -11.857  14.578  69.994  1.00  0.00    -0.372 A  
HETATM   11  C   UNL     1     -13.017  12.787  71.101  1.00  0.00    -0.244 A  
HETATM   12  C   UNL     1     -12.720  14.142  70.994  1.00  0.00    -0.433 A  
HETATM   13  C   UNL     1     -11.261  13.654  69.129  1.00  0.00    -0.309 A  
HETATM   14  C   UNL     1     -12.447  11.860  70.220  1.00  0.00    -0.121 A  
BRANCH  14  15
HETATM   15  O   UNL     1     -12.858  10.568  70.446  1.00  0.00    -0.331 OA 
BRANCH  15  16
HETATM   16  C   UNL     1     -13.202  10.255  71.796  1.00  0.00    -0.430 C  
HETATM   17  C   UNL     1     -13.638   8.800  71.850  1.00  0.00    -0.467 C  
ENDBRANCH  15  16
ENDBRANCH  14  15
ENDBRANCH   8   9
ENDBRANCH   1   8
BRANCH   1  18
HETATM   18  C   UNL     1     -11.207  12.835  66.680  1.00  0.00    -0.301 C  
HETATM   19  N   UNL     1     -10.086  13.290  64.440  1.00  0.00    -0.627 NA 
HETATM   20  O   UNL     1     -12.442  12.550  65.979  1.00  0.00    -0.565 OA 
HETATM   21  H   UNL     1      -9.406  12.530  64.425  1.00  0.00     0.000 HD 
HETATM   22  C   UNL     1     -11.358  12.912  63.805  1.00  0.00    -0.435 C  
HETATM   23  C   UNL     1     -10.345  13.780  65.809  1.00  0.00    -0.307 C  
HETATM   24  C   UNL     1     -12.229  11.996  64.678  1.00  0.00    -0.205 C  
ENDBRANCH   1  18
TORSDOF 6
ENDMDL
MODEL      179
REMARK 921   NORMALIZED FREE ENERGY PREDICTED BY IDOCK:   -3.49 KCAL/MOL
REMARK 922        TOTAL FREE ENERGY PREDICTED BY IDOCK:   -5.84 KCAL/MOL
REMARK 923 INTER-LIGAND FREE ENERGY PREDICTED BY IDOCK:   -4.78 KCAL/MOL
REMARK 924 INTRA-LIGAND FREE ENERGY PREDICTED BY IDOCK:   -1.06 KCAL/MOL
REMARK 927      BINDING AFFINITY PREDICTED BY RF-SCORE:    0.00 PKD
ROOT
HETATM    1  C   UNL     1      -9.824   7.044  68.165  1.00  0.00    -0.139 C  
ENDROOT
BRANCH   1   2
HETATM    2  C   UNL     1      -9.908   8.564  68.185  1.00  0.00    -0.192 A  
HETATM    3  C   UNL     1     -10.841  10.631  67.305  1.00  0.00    -0.345 A  
HETATM    4  C   UNL     1      -8.983   9.328  68.918  1.00  0.00    -0.136 A  
HETATM    5  C   UNL     1      -8.969  10.719  68.821  1.00  0.00    -0.171 A  
HETATM    6  C   UNL     1      -9.891  11.372  68.006  1.00  0.00    -0.191 A  
HETATM    7  C   UNL     1     -10.852   9.237  67.395  1.00  0.00    -0.165 A  
ENDBRANCH   1   2
BRANCH   1   8
HETATM    8  O   UNL     1     -10.932   6.551  68.949  1.00  0.00    -0.282 OA 
BRANCH   8   9
HETATM    9  C   UNL     1     -11.039   6.804  70.287  1.00  0.00    -0.310 A  
HETATM   10  C   UNL     1     -11.875   8.022  72.223  1.00  0.00    -0.424 A  
HETATM   11  C   UNL     1     -10.148   6.376  72.512  1.00  0.00    -0.191 A  
HETATM   12  C   UNL     1     -10.983   7.350  73.051  1.00  0.00    -0.422 A  
HETATM   13  C   UNL     1     -11.903   7.750  70.850  1.00  0.00    -0.257 A  
HETATM   14  C   UNL     1     -10.191   6.076  71.144  1.00  0.00    -0.207 A  
BRANCH  14  15
HETATM   15  O   UNL     1      -9.321   5.079  70.777  1.00  0.00    -0.141 OA 
BRANCH  15  16
HETATM   16  C   UNL     1      -9.712   3.752  71.136  1.00  0.00    -0.175 C  
HETATM   17  C   UNL     1      -8.498   3.039  71.709  1.00  0.00    -0.085 C  
ENDBRANCH  15  16
ENDBRANCH  14  15
ENDBRANCH   8   9
ENDBRANCH   1   8
BRANCH   1  18
HETATM   18  C   UNL     1      -9.962   6.401  66.752  1.00  0.00    -0.171 C  
HETATM   19  N   UNL     1      -7.614   5.510  66.330  1.00  0.00    -0.090 NA 
HETATM   20  O   UNL     1     -10.442   5.036  66.829  1.00  0.00    -0.251 OA 
HETATM   21  H   UNL     1      -7.145   5.842  67.173  1.00  0.00     0.000 HD 
HETATM   22  C   UNL     1      -8.171   4.159  66.498  1.00  0.00    -0.101 C  
HETATM   23  C   UNL     1      -8.679   6.431  65.885  1.00  0.00    -0.145 C  
HETATM   24  C   UNL     1      -9.459   4.128  67.335  1.00  0.00    -0.187 C  
ENDBRANCH   1  18
TORSDOF 6
ENDMDL
MODEL      180
REMARK 921   NORMALIZED FREE ENERGY PREDICTED BY IDOCK:   -3.42 KCAL/MOL
REMARK 922        TOTAL FREE ENERGY PREDICTED BY IDOCK:   -5.74 KCAL/MOL
REMARK 923 INTER-LIGAND FREE ENERGY PREDICTED BY IDOCK:   -4.20 KCAL/MOL
REMARK 924 INTRA-LIGAND FREE ENERGY PREDICTED BY IDOCK:   -1.54 KCAL/MOL
REMARK 927      BINDING AFFINITY PREDICTED BY RF-SCORE:    0.00 PKD
ROOT
HETATM    1  C   UNL     1      -9.689   7.688  69.448  1.00  0.00    -0.165 C  
ENDROOT
BRANCH   1   2
HETATM    2  C   UNL     1      -9.846   6.491  68.522  1.00  0.00    -0.140 A  
HETATM    3  C   UNL     1      -9.140   4.274  67.809  1.00  0.00    -0.157 A  
HETATM    4  C   UNL     1     -10.668   6.563  67.383  1.00  0.00    -0.412 A  
HETATM    5  C   UNL     1     -10.700   5.520  66.458  1.00  0.00    -0.309 A  
HETATM    6  C   UNL     1      -9.928   4.379  66.664  1.00  0.00    -0.234 A  
HETATM    7  C   UNL     1      -9.101   5.321  68.733  1.00  0.00    -0.134 A  
ENDBRANCH   1   2
BRANCH   1   8
HETATM    8  O   UNL     1      -9.292   8.807  68.625  1.00  0.00    -0.141 OA 
BRANCH   8   9
HETATM    9  C   UNL     1      -8.034   9.336  68.684  1.00  0.00    -0.100 A  
HETATM   10  C   UNL     1      -6.347  10.879  69.523  1.00  0.00    -0.082 A  
HETATM   11  C   UNL     1      -5.838   9.473  67.641  1.00  0.00    -0.044 A  
HETATM   12  C   UNL     1      -5.461  10.473  68.531  1.00  0.00    -0.037 A  
HETATM   13  C   UNL     1      -7.625  10.312  69.599  1.00  0.00    -0.167 A  
HETATM   14  C   UNL     1      -7.104   8.880  67.730  1.00  0.00    -0.079 A  
BRANCH  14  15
HETATM   15  O   UNL     1      -7.312   7.896  66.794  1.00  0.00    -0.086 OA 
BRANCH  15  16
HETATM   16  C   UNL     1      -7.768   8.343  65.516  1.00  0.00    -0.097 C  
HETATM   17  C   UNL     1      -7.879   7.133  64.602  1.00  0.00    -0.123 C  
ENDBRANCH  15  16
ENDBRANCH  14  15
ENDBRANCH   8   9
ENDBRANCH   1   8
BRANCH   1  18
HETATM   18  C   UNL     1     -10.993   8.121  70.184  1.00  0.00    -0.223 C  
HETATM   19  N   UNL     1     -11.098   6.469  72.119  1.00  0.00    -0.248 NA 
HETATM   20  O   UNL     1     -10.744   9.185  71.135  1.00  0.00    -0.256 OA 
HETATM   21  H   UNL     1     -10.283   5.895  71.905  1.00  0.00     0.000 HD 
HETATM   22  C   UNL     1     -10.767   7.595  73.006  1.00  0.00    -0.391 C  
HETATM   23  C   UNL     1     -11.756   6.980  70.900  1.00  0.00    -0.343 C  
HETATM   24  C   UNL     1     -10.033   8.741  72.294  1.00  0.00    -0.232 C  
ENDBRANCH   1  18
TORSDOF 6
ENDMDL
MODEL      181
REMARK 921   NORMALIZED FREE ENERGY PREDICTED BY IDOCK:   -3.39 KCAL/MOL
REMARK 922        TOTAL FREE ENERGY PREDICTED BY IDOCK:   -5.71 KCAL/MOL
REMARK 923 INTER-LIGAND FREE ENERGY PREDICTED BY IDOCK:   -6.08 KCAL/MOL
REMARK 924 INTRA-LIGAND FREE ENERGY PREDICTED BY IDOCK:    0.37 KCAL/MOL
REMARK 927      BINDING AFFINITY PREDICTED BY RF-SCORE:    0.00 PKD
ROOT
HETATM    1  C   UNL     1      -9.352  15.959  67.250  1.00  0.00    -0.211 C  
ENDROOT
BRANCH   1   2
HETATM    2  C   UNL     1      -9.799  17.405  67.413  1.00  0.00    -0.281 A  
HETATM    3  C   UNL     1     -10.308  19.573  66.434  1.00  0.00    -0.594 A  
HETATM    4  C   UNL     1      -9.893  17.992  68.688  1.00  0.00    -0.383 A  
HETATM    5  C   UNL     1     -10.160  19.352  68.831  1.00  0.00    -0.459 A  
HETATM    6  C   UNL     1     -10.357  20.148  67.703  1.00  0.00    -0.466 A  
HETATM    7  C   UNL     1     -10.033  18.211  66.290  1.00  0.00    -0.342 A  
ENDBRANCH   1   2
BRANCH   1   8
HETATM    8  O   UNL     1      -7.923  15.980  67.049  1.00  0.00    -0.182 OA 
BRANCH   8   9
HETATM    9  C   UNL     1      -7.086  16.669  67.880  1.00  0.00    -0.140 A  
HETATM   10  C   UNL     1      -5.951  18.673  68.670  1.00  0.00    -0.211 A  
HETATM   11  C   UNL     1      -5.360  16.534  69.591  1.00  0.00    -0.146 A  
HETATM   12  C   UNL     1      -5.163  17.909  69.524  1.00  0.00    -0.186 A  
HETATM   13  C   UNL     1      -6.908  18.057  67.855  1.00  0.00    -0.199 A  
HETATM   14  C   UNL     1      -6.335  15.913  68.801  1.00  0.00    -0.114 A  
BRANCH  14  15
HETATM   15  O   UNL     1      -6.417  14.556  69.001  1.00  0.00    -0.090 OA 
BRANCH  15  16
HETATM   16  C   UNL     1      -6.400  14.129  70.364  1.00  0.00    -0.103 C  
HETATM   17  C   UNL     1      -5.398  12.993  70.492  1.00  0.00    -0.145 C  
ENDBRANCH  15  16
ENDBRANCH  14  15
ENDBRANCH   8   9
ENDBRANCH   1   8
BRANCH   1  18
HETATM   18  C   UNL     1      -9.611  15.052  68.491  1.00  0.00    -0.210 C  
HETATM   19  N   UNL     1     -12.090  14.518  68.266  1.00  0.00    -0.571 NA 
HETATM   20  O   UNL     1      -9.309  13.663  68.212  1.00  0.00    -0.200 OA 
HETATM   21  H   UNL     1     -12.317  15.075  67.442  1.00  0.00     0.000 HD 
HETATM   22  C   UNL     1     -11.691  13.145  67.916  1.00  0.00    -0.357 C  
HETATM   23  C   UNL     1     -11.036  15.142  69.089  1.00  0.00    -0.259 C  
HETATM   24  C   UNL     1     -10.268  13.048  67.347  1.00  0.00    -0.231 C  
ENDBRANCH   1  18
TORSDOF 6
ENDMDL
MODEL      182
REMARK 921   NORMALIZED FREE ENERGY PREDICTED BY IDOCK:   -3.35 KCAL/MOL
REMARK 922        TOTAL FREE ENERGY PREDICTED BY IDOCK:   -5.64 KCAL/MOL
REMARK 923 INTER-LIGAND FREE ENERGY PREDICTED BY IDOCK:   -4.65 KCAL/MOL
REMARK 924 INTRA-LIGAND FREE ENERGY PREDICTED BY IDOCK:   -0.99 KCAL/MOL
REMARK 927      BINDING AFFINITY PREDICTED BY RF-SCORE:    0.00 PKD
ROOT
HETATM    1  C   UNL     1      -9.084   6.920  71.376  1.00  0.00    -0.148 C  
ENDROOT
BRANCH   1   2
HETATM    2  C   UNL     1     -10.340   7.774  71.278  1.00  0.00    -0.222 A  
HETATM    3  C   UNL     1     -11.389   9.940  70.918  1.00  0.00    -0.446 A  
HETATM    4  C   UNL     1     -11.590   7.268  71.677  1.00  0.00    -0.306 A  
HETATM    5  C   UNL     1     -12.713   8.093  71.724  1.00  0.00    -0.356 A  
HETATM    6  C   UNL     1     -12.612   9.433  71.355  1.00  0.00    -0.430 A  
HETATM    7  C   UNL     1     -10.261   9.116  70.877  1.00  0.00    -0.351 A  
ENDBRANCH   1   2
BRANCH   1   8
HETATM    8  O   UNL     1      -8.592   6.738  70.031  1.00  0.00    -0.138 OA 
BRANCH   8   9
HETATM    9  C   UNL     1      -8.884   5.621  69.300  1.00  0.00    -0.111 A  
HETATM   10  C   UNL     1      -9.403   3.258  69.030  1.00  0.00    -0.234 A  
HETATM   11  C   UNL     1      -8.956   4.603  67.090  1.00  0.00    -0.118 A  
HETATM   12  C   UNL     1      -9.250   3.365  67.652  1.00  0.00    -0.233 A  
HETATM   13  C   UNL     1      -9.223   4.379  69.848  1.00  0.00    -0.202 A  
HETATM   14  C   UNL     1      -8.803   5.737  67.898  1.00  0.00    -0.108 A  
BRANCH  14  15
HETATM   15  O   UNL     1      -8.537   6.882  67.188  1.00  0.00    -0.119 OA 
BRANCH  15  16
HETATM   16  C   UNL     1      -9.395   7.992  67.459  1.00  0.00    -0.147 C  
HETATM   17  C   UNL     1     -10.831   7.549  67.233  1.00  0.00    -0.297 C  
ENDBRANCH  15  16
ENDBRANCH  14  15
ENDBRANCH   8   9
ENDBRANCH   1   8
BRANCH   1  18
HETATM   18  C   UNL     1      -7.919   7.562  72.189  1.00  0.00    -0.098 C  
HETATM   19  N   UNL     1      -8.430   6.797  74.564  1.00  0.00    -0.153 NA 
HETATM   20  O   UNL     1      -6.741   6.719  72.195  1.00  0.00    -0.057 OA 
HETATM   21  H   UNL     1      -9.306   6.298  74.405  1.00  0.00     0.000 HD 
HETATM   22  C   UNL     1      -7.259   5.913  74.456  1.00  0.00    -0.087 C  
HETATM   23  C   UNL     1      -8.267   7.944  73.649  1.00  0.00    -0.211 C  
HETATM   24  C   UNL     1      -6.895   5.553  73.009  1.00  0.00    -0.079 C  
ENDBRANCH   1  18
TORSDOF 6
ENDMDL
MODEL      183
REMARK 921   NORMALIZED FREE ENERGY PREDICTED BY IDOCK:   -3.31 KCAL/MOL
REMARK 922        TOTAL FREE ENERGY PREDICTED BY IDOCK:   -5.59 KCAL/MOL
REMARK 923 INTER-LIGAND FREE ENERGY PREDICTED BY IDOCK:   -5.69 KCAL/MOL
REMARK 924 INTRA-LIGAND FREE ENERGY PREDICTED BY IDOCK:    0.10 KCAL/MOL
REMARK 927      BINDING AFFINITY PREDICTED BY RF-SCORE:    0.00 PKD
ROOT
HETATM    1  C   UNL     1      -8.667  13.551  67.057  1.00  0.00    -0.187 C  
ENDROOT
BRANCH   1   2
HETATM    2  C   UNL     1      -8.347  12.307  67.875  1.00  0.00    -0.163 A  
HETATM    3  C   UNL     1      -6.784  10.559  68.521  1.00  0.00    -0.056 A  
HETATM    4  C   UNL     1      -9.361  11.613  68.559  1.00  0.00    -0.169 A  
HETATM    5  C   UNL     1      -9.095  10.397  69.188  1.00  0.00    -0.197 A  
HETATM    6  C   UNL     1      -7.808   9.862  69.160  1.00  0.00    -0.105 A  
HETATM    7  C   UNL     1      -7.050  11.774  67.885  1.00  0.00    -0.087 A  
ENDBRANCH   1   2
BRANCH   1   8
HETATM    8  O   UNL     1     -10.106  13.636  66.966  1.00  0.00    -0.242 OA 
BRANCH   8   9
HETATM    9  C   UNL     1     -10.758  13.586  65.767  1.00  0.00    -0.275 A  
HETATM   10  C   UNL     1     -12.472  14.271  64.179  1.00  0.00    -0.256 A  
HETATM   11  C   UNL     1     -11.095  12.363  63.689  1.00  0.00    -0.535 A  
HETATM   12  C   UNL     1     -12.141  13.212  63.341  1.00  0.00    -0.558 A  
HETATM   13  C   UNL     1     -11.783  14.457  65.383  1.00  0.00    -0.362 A  
HETATM   14  C   UNL     1     -10.381  12.561  64.878  1.00  0.00    -0.300 A  
BRANCH  14  15
HETATM   15  O   UNL     1      -9.368  11.652  65.063  1.00  0.00    -0.163 OA 
BRANCH  15  16
HETATM   16  C   UNL     1      -9.587  10.357  64.501  1.00  0.00    -0.309 C  
HETATM   17  C   UNL     1      -9.722   9.361  65.641  1.00  0.00    -0.336 C  
ENDBRANCH  15  16
ENDBRANCH  14  15
ENDBRANCH   8   9
ENDBRANCH   1   8
BRANCH   1  18
HETATM   18  C   UNL     1      -8.185  14.891  67.691  1.00  0.00    -0.172 C  
HETATM   19  N   UNL     1      -9.773  16.587  66.647  1.00  0.00    -0.247 NA 
HETATM   20  O   UNL     1      -8.809  15.131  68.976  1.00  0.00    -0.195 OA 
HETATM   21  H   UNL     1     -10.303  15.974  66.028  1.00  0.00     0.000 HD 
HETATM   22  C   UNL     1     -10.397  16.713  67.973  1.00  0.00    -0.303 C  
HETATM   23  C   UNL     1      -8.372  16.146  66.803  1.00  0.00    -0.264 C  
HETATM   24  C   UNL     1     -10.191  15.481  68.867  1.00  0.00    -0.210 C  
ENDBRANCH   1  18
TORSDOF 6
ENDMDL
MODEL      184
REMARK 921   NORMALIZED FREE ENERGY PREDICTED BY IDOCK:   -3.29 KCAL/MOL
REMARK 922        TOTAL FREE ENERGY PREDICTED BY IDOCK:   -5.57 KCAL/MOL
REMARK 923 INTER-LIGAND FREE ENERGY PREDICTED BY IDOCK:   -5.60 KCAL/MOL
REMARK 924 INTRA-LIGAND FREE ENERGY PREDICTED BY IDOCK:    0.03 KCAL/MOL
REMARK 927      BINDING AFFINITY PREDICTED BY RF-SCORE:    0.00 PKD
ROOT
HETATM    1  C   UNL     1     -11.233  12.682  66.975  1.00  0.00    -0.300 C  
ENDROOT
BRANCH   1   2
HETATM    2  C   UNL     1     -10.978  11.662  68.076  1.00  0.00    -0.275 A  
HETATM    3  C   UNL     1     -11.754  10.438  70.030  1.00  0.00    -0.366 A  
HETATM    4  C   UNL     1      -9.684  11.168  68.317  1.00  0.00    -0.190 A  
HETATM    5  C   UNL     1      -9.425  10.348  69.414  1.00  0.00    -0.204 A  
HETATM    6  C   UNL     1     -10.457   9.990  70.278  1.00  0.00    -0.331 A  
HETATM    7  C   UNL     1     -12.014  11.265  68.935  1.00  0.00    -0.378 A  
ENDBRANCH   1   2
BRANCH   1   8
HETATM    8  O   UNL     1      -9.965  13.306  66.678  1.00  0.00    -0.258 OA 
BRANCH   8   9
HETATM    9  C   UNL     1      -9.610  14.511  67.216  1.00  0.00    -0.226 A  
HETATM   10  C   UNL     1      -8.958  15.984  69.042  1.00  0.00    -0.244 A  
HETATM   11  C   UNL     1      -9.479  16.920  66.891  1.00  0.00    -0.261 A  
HETATM   12  C   UNL     1      -9.115  17.096  68.222  1.00  0.00    -0.259 A  
HETATM   13  C   UNL     1      -9.202  14.700  68.541  1.00  0.00    -0.193 A  
HETATM   14  C   UNL     1      -9.696  15.636  66.374  1.00  0.00    -0.279 A  
BRANCH  14  15
HETATM   15  O   UNL     1     -10.026  15.634  65.040  1.00  0.00    -0.362 OA 
BRANCH  15  16
HETATM   16  C   UNL     1     -11.128  16.465  64.673  1.00  0.00    -0.189 C  
HETATM   17  C   UNL     1     -12.296  15.567  64.299  1.00  0.00    -0.009 C  
ENDBRANCH  15  16
ENDBRANCH  14  15
ENDBRANCH   8   9
ENDBRANCH   1   8
BRANCH   1  18
HETATM   18  C   UNL     1     -11.753  12.079  65.634  1.00  0.00    -0.246 C  
HETATM   19  N   UNL     1      -9.830  12.568  64.038  1.00  0.00    -0.609 NA 
HETATM   20  O   UNL     1     -11.452  10.666  65.530  1.00  0.00     0.476 OA 
HETATM   21  H   UNL     1      -9.211  13.087  64.661  1.00  0.00     0.000 HD 
HETATM   22  C   UNL     1      -9.546  11.124  64.049  1.00  0.00    -0.254 C  
HETATM   23  C   UNL     1     -11.255  12.792  64.353  1.00  0.00    -0.347 C  
HETATM   24  C   UNL     1     -10.062  10.408  65.306  1.00  0.00    -0.300 C  
ENDBRANCH   1  18
TORSDOF 6
ENDMDL
MODEL      185
REMARK 921   NORMALIZED FREE ENERGY PREDICTED BY IDOCK:   -3.27 KCAL/MOL
REMARK 922        TOTAL FREE ENERGY PREDICTED BY IDOCK:   -5.54 KCAL/MOL
REMARK 923 INTER-LIGAND FREE ENERGY PREDICTED BY IDOCK:   -5.34 KCAL/MOL
REMARK 924 INTRA-LIGAND FREE ENERGY PREDICTED BY IDOCK:   -0.20 KCAL/MOL
REMARK 927      BINDING AFFINITY PREDICTED BY RF-SCORE:    0.00 PKD
ROOT
HETATM    1  C   UNL     1      -9.442  12.707  67.585  1.00  0.00    -0.189 C  
ENDROOT
BRANCH   1   2
HETATM    2  C   UNL     1      -9.177  14.150  67.989  1.00  0.00    -0.195 A  
HETATM    3  C   UNL     1      -9.727  16.088  69.353  1.00  0.00    -0.248 A  
HETATM    4  C   UNL     1      -8.311  14.963  67.235  1.00  0.00    -0.233 A  
HETATM    5  C   UNL     1      -8.180  16.322  67.518  1.00  0.00    -0.165 A  
HETATM    6  C   UNL     1      -8.896  16.889  68.571  1.00  0.00    -0.251 A  
HETATM    7  C   UNL     1      -9.865  14.728  69.066  1.00  0.00    -0.206 A  
ENDBRANCH   1   2
BRANCH   1   8
HETATM    8  O   UNL     1      -9.207  12.618  66.163  1.00  0.00    -0.168 OA 
BRANCH   8   9
HETATM    9  C   UNL     1     -10.228  12.675  65.257  1.00  0.00    -0.284 A  
HETATM   10  C   UNL     1     -12.218  13.666  64.264  1.00  0.00    -0.445 A  
HETATM   11  C   UNL     1     -11.486  11.494  63.539  1.00  0.00    -0.334 A  
HETATM   12  C   UNL     1     -12.405  12.537  63.473  1.00  0.00    -0.623 A  
HETATM   13  C   UNL     1     -11.136  13.734  65.148  1.00  0.00    -0.330 A  
HETATM   14  C   UNL     1     -10.384  11.568  64.400  1.00  0.00    -0.312 A  
BRANCH  14  15
HETATM   15  O   UNL     1      -9.562  10.469  64.330  1.00  0.00    -0.254 OA 
BRANCH  15  16
HETATM   16  C   UNL     1      -8.511  10.542  63.365  1.00  0.00    -0.148 C  
HETATM   17  C   UNL     1      -7.624   9.319  63.537  1.00  0.00    -0.107 C  
ENDBRANCH  15  16
ENDBRANCH  14  15
ENDBRANCH   8   9
ENDBRANCH   1   8
BRANCH   1  18
HETATM   18  C   UNL     1      -8.503  11.658  68.254  1.00  0.00    -0.160 C  
HETATM   19  N   UNL     1      -6.775  11.236  66.432  1.00  0.00    -0.303 NA 
HETATM   20  O   UNL     1      -7.474  12.293  69.052  1.00  0.00    -0.058 OA 
HETATM   21  H   UNL     1      -7.156  11.822  65.688  1.00  0.00     0.000 HD 
HETATM   22  C   UNL     1      -5.812  11.961  67.274  1.00  0.00    -0.130 C  
HETATM   23  C   UNL     1      -7.834  10.656  67.282  1.00  0.00    -0.112 C  
HETATM   24  C   UNL     1      -6.473  12.937  68.258  1.00  0.00    -0.086 C  
ENDBRANCH   1  18
TORSDOF 6
ENDMDL
MODEL      186
REMARK 921   NORMALIZED FREE ENERGY PREDICTED BY IDOCK:   -3.19 KCAL/MOL
REMARK 922        TOTAL FREE ENERGY PREDICTED BY IDOCK:   -5.44 KCAL/MOL
REMARK 923 INTER-LIGAND FREE ENERGY PREDICTED BY IDOCK:   -4.94 KCAL/MOL
REMARK 924 INTRA-LIGAND FREE ENERGY PREDICTED BY IDOCK:   -0.50 KCAL/MOL
REMARK 927      BINDING AFFINITY PREDICTED BY RF-SCORE:    0.00 PKD
ROOT
HETATM    1  C   UNL     1      -9.693  10.281  68.333  1.00  0.00    -0.156 C  
ENDROOT
BRANCH   1   2
HETATM    2  C   UNL     1      -8.615  11.356  68.372  1.00  0.00    -0.156 A  
HETATM    3  C   UNL     1      -7.965  13.692  68.181  1.00  0.00    -0.148 A  
HETATM    4  C   UNL     1      -7.252  11.010  68.399  1.00  0.00    -0.085 A  
HETATM    5  C   UNL     1      -6.264  11.987  68.289  1.00  0.00    -0.051 A  
HETATM    6  C   UNL     1      -6.620  13.330  68.169  1.00  0.00    -0.115 A  
HETATM    7  C   UNL     1      -8.957  12.713  68.285  1.00  0.00    -0.176 A  
ENDBRANCH   1   2
BRANCH   1   8
HETATM    8  O   UNL     1     -10.609  10.565  69.412  1.00  0.00    -0.213 OA 
BRANCH   8   9
HETATM    9  C   UNL     1     -11.087   9.582  70.232  1.00  0.00    -0.271 A  
HETATM   10  C   UNL     1     -11.021   7.386  71.281  1.00  0.00    -0.263 A  
HETATM   11  C   UNL     1     -12.971   8.766  71.538  1.00  0.00    -0.359 A  
HETATM   12  C   UNL     1     -12.308   7.566  71.776  1.00  0.00    -0.357 A  
HETATM   13  C   UNL     1     -10.414   8.388  70.515  1.00  0.00    -0.227 A  
HETATM   14  C   UNL     1     -12.360   9.785  70.798  1.00  0.00    -0.236 A  
BRANCH  14  15
HETATM   15  O   UNL     1     -13.138  10.911  70.673  1.00  0.00    -0.246 OA 
BRANCH  15  16
HETATM   16  C   UNL     1     -13.089  11.823  71.771  1.00  0.00    -0.375 C  
HETATM   17  C   UNL     1     -12.721  13.196  71.231  1.00  0.00    -0.396 C  
ENDBRANCH  15  16
ENDBRANCH  14  15
ENDBRANCH   8   9
ENDBRANCH   1   8
BRANCH   1  18
HETATM   18  C   UNL     1     -10.543  10.257  67.026  1.00  0.00    -0.239 C  
HETATM   19  N   UNL     1      -8.785  10.652  65.227  1.00  0.00    -0.187 NA 
HETATM   20  O   UNL     1     -10.720   8.909  66.527  1.00  0.00    -0.115 OA 
HETATM   21  H   UNL     1      -7.960  10.781  65.812  1.00  0.00     0.000 HD 
HETATM   22  C   UNL     1      -8.973   9.247  64.834  1.00  0.00    -0.180 C  
HETATM   23  C   UNL     1     -10.014  11.150  65.878  1.00  0.00    -0.239 C  
HETATM   24  C   UNL     1      -9.524   8.363  65.963  1.00  0.00    -0.154 C  
ENDBRANCH   1  18
TORSDOF 6
ENDMDL
MODEL      187
REMARK 921   NORMALIZED FREE ENERGY PREDICTED BY IDOCK:   -3.14 KCAL/MOL
REMARK 922        TOTAL FREE ENERGY PREDICTED BY IDOCK:   -5.37 KCAL/MOL
REMARK 923 INTER-LIGAND FREE ENERGY PREDICTED BY IDOCK:   -4.54 KCAL/MOL
REMARK 924 INTRA-LIGAND FREE ENERGY PREDICTED BY IDOCK:   -0.83 KCAL/MOL
REMARK 927      BINDING AFFINITY PREDICTED BY RF-SCORE:    0.00 PKD
ROOT
HETATM    1  C   UNL     1      -8.660   6.335  67.812  1.00  0.00    -0.115 C  
ENDROOT
BRANCH   1   2
HETATM    2  C   UNL     1      -9.154   5.649  66.546  1.00  0.00    -0.140 A  
HETATM    3  C   UNL     1     -10.901   4.457  65.342  1.00  0.00    -0.058 A  
HETATM    4  C   UNL     1      -8.270   5.357  65.492  1.00  0.00    -0.127 A  
HETATM    5  C   UNL     1      -8.688   4.602  64.397  1.00  0.00    -0.148 A  
HETATM    6  C   UNL     1     -10.001   4.142  64.326  1.00  0.00    -0.136 A  
HETATM    7  C   UNL     1     -10.482   5.208  66.444  1.00  0.00    -0.356 A  
ENDBRANCH   1   2
BRANCH   1   8
HETATM    8  O   UNL     1      -9.827   6.642  68.606  1.00  0.00    -0.134 OA 
BRANCH   8   9
HETATM    9  C   UNL     1     -10.340   7.906  68.676  1.00  0.00    -0.201 A  
HETATM   10  C   UNL     1     -10.747  10.152  67.828  1.00  0.00    -0.328 A  
HETATM   11  C   UNL     1     -11.354   9.609  70.089  1.00  0.00    -0.275 A  
HETATM   12  C   UNL     1     -11.260  10.541  69.060  1.00  0.00    -0.316 A  
HETATM   13  C   UNL     1     -10.292   8.842  67.638  1.00  0.00    -0.317 A  
HETATM   14  C   UNL     1     -10.929   8.289  69.897  1.00  0.00    -0.166 A  
BRANCH  14  15
HETATM   15  O   UNL     1     -11.110   7.491  71.001  1.00  0.00    -0.248 OA 
BRANCH  15  16
HETATM   16  C   UNL     1     -11.419   8.176  72.216  1.00  0.00    -0.371 C  
HETATM   17  C   UNL     1     -10.770   7.421  73.365  1.00  0.00    -0.407 C  
ENDBRANCH  15  16
ENDBRANCH  14  15
ENDBRANCH   8   9
ENDBRANCH   1   8
BRANCH   1  18
HETATM   18  C   UNL     1      -7.733   5.460  68.709  1.00  0.00    -0.083 C  
HETATM   19  N   UNL     1      -8.663   5.897  71.039  1.00  0.00    -0.134 NA 
HETATM   20  O   UNL     1      -8.208   4.095  68.800  1.00  0.00    -0.074 OA 
HETATM   21  H   UNL     1      -9.386   6.582  70.815  1.00  0.00     0.000 HD 
HETATM   22  C   UNL     1      -9.177   4.519  71.016  1.00  0.00    -0.140 C  
HETATM   23  C   UNL     1      -7.497   6.003  70.140  1.00  0.00    -0.090 C  
HETATM   24  C   UNL     1      -9.388   3.968  69.598  1.00  0.00    -0.173 C  
ENDBRANCH   1  18
TORSDOF 6
ENDMDL
MODEL      188
REMARK 921   NORMALIZED FREE ENERGY PREDICTED BY IDOCK:   -2.93 KCAL/MOL
REMARK 922        TOTAL FREE ENERGY PREDICTED BY IDOCK:   -5.08 KCAL/MOL
REMARK 923 INTER-LIGAND FREE ENERGY PREDICTED BY IDOCK:   -4.92 KCAL/MOL
REMARK 924 INTRA-LIGAND FREE ENERGY PREDICTED BY IDOCK:   -0.16 KCAL/MOL
REMARK 927      BINDING AFFINITY PREDICTED BY RF-SCORE:    0.00 PKD
ROOT
HETATM    1  C   UNL     1      -8.627   9.814  68.552  1.00  0.00    -0.120 C  
ENDROOT
BRANCH   1   2
HETATM    2  C   UNL     1      -7.580   9.607  67.466  1.00  0.00    -0.095 A  
HETATM    3  C   UNL     1      -6.045  10.530  65.820  1.00  0.00    -0.133 A  
HETATM    4  C   UNL     1      -7.338   8.329  66.932  1.00  0.00    -0.084 A  
HETATM    5  C   UNL     1      -6.486   8.160  65.841  1.00  0.00    -0.045 A  
HETATM    6  C   UNL     1      -5.847   9.262  65.276  1.00  0.00    -0.061 A  
HETATM    7  C   UNL     1      -6.903  10.702  66.909  1.00  0.00    -0.099 A  
ENDBRANCH   1   2
BRANCH   1   8
HETATM    8  O   UNL     1      -9.912   9.534  67.956  1.00  0.00    -0.154 OA 
BRANCH   8   9
HETATM    9  C   UNL     1     -10.455  10.341  66.997  1.00  0.00    -0.244 A  
HETATM   10  C   UNL     1     -10.779  11.104  64.707  1.00  0.00    -0.334 A  
HETATM   11  C   UNL     1     -11.696  12.381  66.525  1.00  0.00    -0.443 A  
HETATM   12  C   UNL     1     -11.472  12.221  65.161  1.00  0.00    -0.390 A  
HETATM   13  C   UNL     1     -10.275  10.170  65.620  1.00  0.00    -0.288 A  
HETATM   14  C   UNL     1     -11.222  11.435  67.442  1.00  0.00    -0.305 A  
BRANCH  14  15
HETATM   15  O   UNL     1     -11.545  11.728  68.745  1.00  0.00    -0.255 OA 
BRANCH  15  16
HETATM   16  C   UNL     1     -11.317  13.079  69.151  1.00  0.00    -0.273 C  
HETATM   17  C   UNL     1     -12.271  13.400  70.290  1.00  0.00    -0.405 C  
ENDBRANCH  15  16
ENDBRANCH  14  15
ENDBRANCH   8   9
ENDBRANCH   1   8
BRANCH   1  18
HETATM   18  C   UNL     1      -8.492   8.862  69.779  1.00  0.00    -0.131 C  
HETATM   19  N   UNL     1     -10.839   8.912  70.765  1.00  0.00    -0.227 NA 
HETATM   20  O   UNL     1      -8.701   7.478  69.409  1.00  0.00    -0.136 OA 
HETATM   21  H   UNL     1     -11.279   9.588  70.140  1.00  0.00     0.000 HD 
HETATM   22  C   UNL     1     -10.994   7.530  70.287  1.00  0.00    -0.250 C  
HETATM   23  C   UNL     1      -9.408   9.201  70.981  1.00  0.00    -0.263 C  
HETATM   24  C   UNL     1     -10.068   7.181  69.112  1.00  0.00    -0.183 C  
ENDBRANCH   1  18
TORSDOF 6
ENDMDL
MODEL      189
REMARK 921   NORMALIZED FREE ENERGY PREDICTED BY IDOCK:   -2.90 KCAL/MOL
REMARK 922        TOTAL FREE ENERGY PREDICTED BY IDOCK:   -5.04 KCAL/MOL
REMARK 923 INTER-LIGAND FREE ENERGY PREDICTED BY IDOCK:   -4.01 KCAL/MOL
REMARK 924 INTRA-LIGAND FREE ENERGY PREDICTED BY IDOCK:   -1.03 KCAL/MOL
REMARK 927      BINDING AFFINITY PREDICTED BY RF-SCORE:    0.00 PKD
ROOT
HETATM    1  C   UNL     1      -8.886   7.470  68.759  1.00  0.00    -0.131 C  
ENDROOT
BRANCH   1   2
HETATM    2  C   UNL     1      -9.613   8.805  68.835  1.00  0.00    -0.158 A  
HETATM    3  C   UNL     1     -10.417  10.691  70.145  1.00  0.00     0.031 A  
HETATM    4  C   UNL     1     -10.354   9.287  67.741  1.00  0.00    -0.292 A  
HETATM    5  C   UNL     1     -11.136  10.435  67.858  1.00  0.00    -0.363 A  
HETATM    6  C   UNL     1     -11.178  11.133  69.064  1.00  0.00    -0.318 A  
HETATM    7  C   UNL     1      -9.638   9.537  70.031  1.00  0.00    -0.272 A  
ENDBRANCH   1   2
BRANCH   1   8
HETATM    8  O   UNL     1      -9.888   6.438  68.882  1.00  0.00    -0.134 OA 
BRANCH   8   9
HETATM    9  C   UNL     1     -10.510   6.173  70.069  1.00  0.00    -0.234 A  
HETATM   10  C   UNL     1     -12.241   6.498  71.750  1.00  0.00    -0.374 A  
HETATM   11  C   UNL     1     -10.365   5.077  72.238  1.00  0.00    -0.267 A  
HETATM   12  C   UNL     1     -11.551   5.682  72.641  1.00  0.00    -0.307 A  
HETATM   13  C   UNL     1     -11.724   6.740  70.473  1.00  0.00    -0.430 A  
HETATM   14  C   UNL     1      -9.856   5.291  70.950  1.00  0.00    -0.194 A  
BRANCH  14  15
HETATM   15  O   UNL     1      -8.691   4.606  70.704  1.00  0.00    -0.096 OA 
BRANCH  15  16
HETATM   16  C   UNL     1      -8.524   3.387  71.429  1.00  0.00    -0.068 C  
HETATM   17  C   UNL     1      -7.034   3.132  71.592  1.00  0.00    -0.031 C  
ENDBRANCH  15  16
ENDBRANCH  14  15
ENDBRANCH   8   9
ENDBRANCH   1   8
BRANCH   1  18
HETATM   18  C   UNL     1      -8.143   7.207  67.414  1.00  0.00    -0.112 C  
HETATM   19  N   UNL     1      -5.743   7.837  67.987  1.00  0.00    -0.032 NA 
HETATM   20  O   UNL     1      -7.728   5.825  67.292  1.00  0.00    -0.098 OA 
HETATM   21  H   UNL     1      -5.869   8.157  68.947  1.00  0.00     0.000 HD 
HETATM   22  C   UNL     1      -5.424   6.402  67.917  1.00  0.00    -0.005 C  
HETATM   23  C   UNL     1      -6.922   8.120  67.144  1.00  0.00    -0.075 C  
HETATM   24  C   UNL     1      -6.638   5.493  68.157  1.00  0.00    -0.049 C  
ENDBRANCH   1  18
TORSDOF 6
ENDMDL
MODEL      190
REMARK 921   NORMALIZED FREE ENERGY PREDICTED BY IDOCK:   -2.84 KCAL/MOL
REMARK 922        TOTAL FREE ENERGY PREDICTED BY IDOCK:   -4.97 KCAL/MOL
REMARK 923 INTER-LIGAND FREE ENERGY PREDICTED BY IDOCK:   -5.02 KCAL/MOL
REMARK 924 INTRA-LIGAND FREE ENERGY PREDICTED BY IDOCK:    0.05 KCAL/MOL
REMARK 927      BINDING AFFINITY PREDICTED BY RF-SCORE:    0.00 PKD
ROOT
HETATM    1  C   UNL     1      -9.544  12.852  67.598  1.00  0.00    -0.196 C  
ENDROOT
BRANCH   1   2
HETATM    2  C   UNL     1     -10.441  13.737  68.453  1.00  0.00    -0.256 A  
HETATM    3  C   UNL     1     -12.629  14.696  68.912  1.00  0.00     0.263 A  
HETATM    4  C   UNL     1      -9.893  14.596  69.422  1.00  0.00    -0.008 A  
HETATM    5  C   UNL     1     -10.697  15.510  70.103  1.00  0.00    -0.345 A  
HETATM    6  C   UNL     1     -12.064  15.569  69.841  1.00  0.00    -0.378 A  
HETATM    7  C   UNL     1     -11.824  13.784  68.225  1.00  0.00    -0.413 A  
ENDBRANCH   1   2
BRANCH   1   8
HETATM    8  O   UNL     1      -8.745  13.730  66.776  1.00  0.00    -0.190 OA 
BRANCH   8   9
HETATM    9  C   UNL     1      -9.219  14.931  66.330  1.00  0.00    -0.284 A  
HETATM   10  C   UNL     1      -9.406  17.359  66.369  1.00  0.00    -0.272 A  
HETATM   11  C   UNL     1     -10.857  16.079  64.942  1.00  0.00    -0.391 A  
HETATM   12  C   UNL     1     -10.452  17.308  65.453  1.00  0.00    -0.049 A  
HETATM   13  C   UNL     1      -8.793  16.178  66.803  1.00  0.00    -0.275 A  
HETATM   14  C   UNL     1     -10.229  14.895  65.349  1.00  0.00    -0.379 A  
BRANCH  14  15
HETATM   15  O   UNL     1     -10.731  13.773  64.736  1.00  0.00    -0.371 OA 
BRANCH  15  16
HETATM   16  C   UNL     1     -12.146  13.752  64.545  1.00  0.00    -0.428 C  
HETATM   17  C   UNL     1     -12.602  12.302  64.530  1.00  0.00    -0.416 C  
ENDBRANCH  15  16
ENDBRANCH  14  15
ENDBRANCH   8   9
ENDBRANCH   1   8
BRANCH   1  18
HETATM   18  C   UNL     1      -8.544  11.966  68.401  1.00  0.00    -0.152 C  
HETATM   19  N   UNL     1      -8.174  10.000  66.826  1.00  0.00    -0.121 NA 
HETATM   20  O   UNL     1      -7.171  12.373  68.179  1.00  0.00    -0.083 OA 
HETATM   21  H   UNL     1      -8.816  10.252  66.075  1.00  0.00     0.000 HD 
HETATM   22  C   UNL     1      -6.819  10.526  66.600  1.00  0.00    -0.108 C  
HETATM   23  C   UNL     1      -8.660  10.443  68.148  1.00  0.00    -0.125 C  
HETATM   24  C   UNL     1      -6.693  12.032  66.875  1.00  0.00    -0.040 C  
ENDBRANCH   1  18
TORSDOF 6
ENDMDL
MODEL      191
REMARK 921   NORMALIZED FREE ENERGY PREDICTED BY IDOCK:   -2.84 KCAL/MOL
REMARK 922        TOTAL FREE ENERGY PREDICTED BY IDOCK:   -4.96 KCAL/MOL
REMARK 923 INTER-LIGAND FREE ENERGY PREDICTED BY IDOCK:   -5.73 KCAL/MOL
REMARK 924 INTRA-LIGAND FREE ENERGY PREDICTED BY IDOCK:    0.77 KCAL/MOL
REMARK 927      BINDING AFFINITY PREDICTED BY RF-SCORE:    0.00 PKD
ROOT
HETATM    1  C   UNL     1      -9.498   7.206  69.239  1.00  0.00    -0.152 C  
ENDROOT
BRANCH   1   2
HETATM    2  C   UNL     1      -9.443   8.498  68.437  1.00  0.00    -0.141 A  
HETATM    3  C   UNL     1     -10.274   9.882  66.617  1.00  0.00    -0.293 A  
HETATM    4  C   UNL     1      -8.382   9.406  68.603  1.00  0.00    -0.117 A  
HETATM    5  C   UNL     1      -8.254  10.516  67.769  1.00  0.00    -0.107 A  
HETATM    6  C   UNL     1      -9.194  10.750  66.767  1.00  0.00    -0.174 A  
HETATM    7  C   UNL     1     -10.400   8.766  67.447  1.00  0.00    -0.349 A  
ENDBRANCH   1   2
BRANCH   1   8
HETATM    8  O   UNL     1      -9.764   7.572  70.610  1.00  0.00    -0.175 OA 
BRANCH   8   9
HETATM    9  C   UNL     1     -10.864   8.301  70.962  1.00  0.00    -0.233 A  
HETATM   10  C   UNL     1     -12.076  10.374  71.364  1.00  0.00    -0.424 A  
HETATM   11  C   UNL     1     -13.078   8.276  71.973  1.00  0.00    -0.351 A  
HETATM   12  C   UNL     1     -13.132   9.666  71.928  1.00  0.00    -0.530 A  
HETATM   13  C   UNL     1     -10.951   9.696  70.883  1.00  0.00    -0.412 A  
HETATM   14  C   UNL     1     -11.969   7.588  71.466  1.00  0.00    -0.307 A  
BRANCH  14  15
HETATM   15  O   UNL     1     -12.081   6.222  71.566  1.00  0.00    -0.286 OA 
BRANCH  15  16
HETATM   16  C   UNL     1     -11.672   5.657  72.813  1.00  0.00    -0.173 C  
HETATM   17  C   UNL     1     -10.502   4.723  72.550  1.00  0.00    -0.264 C  
ENDBRANCH  15  16
ENDBRANCH  14  15
ENDBRANCH   8   9
ENDBRANCH   1   8
BRANCH   1  18
HETATM   18  C   UNL     1     -10.631   6.223  68.816  1.00  0.00    -0.262 C  
HETATM   19  N   UNL     1      -9.611   5.056  66.795  1.00  0.00    -0.142 NA 
HETATM   20  O   UNL     1     -10.557   4.974  69.546  1.00  0.00    -0.182 OA 
HETATM   21  H   UNL     1      -8.726   5.560  66.728  1.00  0.00     0.000 HD 
HETATM   22  C   UNL     1      -9.503   3.852  67.632  1.00  0.00    -0.185 C  
HETATM   23  C   UNL     1     -10.703   5.911  67.300  1.00  0.00    -0.297 C  
HETATM   24  C   UNL     1      -9.458   4.154  69.137  1.00  0.00    -0.178 C  
ENDBRANCH   1  18
TORSDOF 6
ENDMDL
MODEL      192
REMARK 921   NORMALIZED FREE ENERGY PREDICTED BY IDOCK:   -2.79 KCAL/MOL
REMARK 922        TOTAL FREE ENERGY PREDICTED BY IDOCK:   -4.89 KCAL/MOL
REMARK 923 INTER-LIGAND FREE ENERGY PREDICTED BY IDOCK:   -5.09 KCAL/MOL
REMARK 924 INTRA-LIGAND FREE ENERGY PREDICTED BY IDOCK:    0.20 KCAL/MOL
REMARK 927      BINDING AFFINITY PREDICTED BY RF-SCORE:    0.00 PKD
ROOT
HETATM    1  C   UNL     1     -10.860  11.238  67.715  1.00  0.00    -0.235 C  
ENDROOT
BRANCH   1   2
HETATM    2  C   UNL     1      -9.859  10.976  66.598  1.00  0.00    -0.235 A  
HETATM    3  C   UNL     1      -7.609  11.184  65.698  1.00  0.00     0.219 A  
HETATM    4  C   UNL     1     -10.285  10.500  65.345  1.00  0.00    -0.340 A  
HETATM    5  C   UNL     1      -9.392  10.398  64.279  1.00  0.00    -0.324 A  
HETATM    6  C   UNL     1      -8.055  10.750  64.451  1.00  0.00     0.150 A  
HETATM    7  C   UNL     1      -8.503  11.294  66.765  1.00  0.00    -0.161 A  
ENDBRANCH   1   2
BRANCH   1   8
HETATM    8  O   UNL     1     -12.006  11.877  67.112  1.00  0.00    -0.611 OA 
BRANCH   8   9
HETATM    9  C   UNL     1     -11.899  13.054  66.426  1.00  0.00    -0.405 A  
HETATM   10  C   UNL     1     -12.167  14.474  64.467  1.00  0.00    -0.483 A  
HETATM   11  C   UNL     1     -10.927  15.284  66.360  1.00  0.00    -0.299 A  
HETATM   12  C   UNL     1     -11.407  15.472  65.068  1.00  0.00    -0.301 A  
HETATM   13  C   UNL     1     -12.412  13.274  65.143  1.00  0.00    -0.525 A  
HETATM   14  C   UNL     1     -11.194  14.098  67.055  1.00  0.00    -0.318 A  
BRANCH  14  15
HETATM   15  O   UNL     1     -10.669  14.079  68.324  1.00  0.00    -0.241 OA 
BRANCH  15  16
HETATM   16  C   UNL     1      -9.424  14.760  68.490  1.00  0.00    -0.214 C  
HETATM   17  C   UNL     1      -9.515  15.617  69.743  1.00  0.00    -0.154 C  
ENDBRANCH  15  16
ENDBRANCH  14  15
ENDBRANCH   8   9
ENDBRANCH   1   8
BRANCH   1  18
HETATM   18  C   UNL     1     -11.392   9.959  68.429  1.00  0.00     0.016 C  
HETATM   19  N   UNL     1      -9.593   8.243  67.878  1.00  0.00    -0.149 NA 
HETATM   20  O   UNL     1     -10.981   9.910  69.818  1.00  0.00    -0.241 OA 
HETATM   21  H   UNL     1      -8.989   8.806  67.279  1.00  0.00     0.000 HD 
HETATM   22  C   UNL     1      -9.192   8.312  69.292  1.00  0.00    -0.151 C  
HETATM   23  C   UNL     1     -11.014   8.619  67.750  1.00  0.00     0.150 C  
HETATM   24  C   UNL     1      -9.588   9.628  69.977  1.00  0.00    -0.243 C  
ENDBRANCH   1  18
TORSDOF 6
ENDMDL
MODEL      193
REMARK 921   NORMALIZED FREE ENERGY PREDICTED BY IDOCK:   -2.56 KCAL/MOL
REMARK 922        TOTAL FREE ENERGY PREDICTED BY IDOCK:   -4.59 KCAL/MOL
REMARK 923 INTER-LIGAND FREE ENERGY PREDICTED BY IDOCK:   -4.30 KCAL/MOL
REMARK 924 INTRA-LIGAND FREE ENERGY PREDICTED BY IDOCK:   -0.29 KCAL/MOL
REMARK 927      BINDING AFFINITY PREDICTED BY RF-SCORE:    0.00 PKD
ROOT
HETATM    1  C   UNL     1      -8.034   9.377  67.629  1.00  0.00    -0.099 C  
ENDROOT
BRANCH   1   2
HETATM    2  C   UNL     1      -8.486   9.680  66.208  1.00  0.00    -0.125 A  
HETATM    3  C   UNL     1      -7.949  10.071  63.867  1.00  0.00    -0.151 A  
HETATM    4  C   UNL     1      -9.807  10.080  65.940  1.00  0.00    -0.330 A  
HETATM    5  C   UNL     1     -10.184  10.496  64.664  1.00  0.00    -0.364 A  
HETATM    6  C   UNL     1      -9.252  10.503  63.628  1.00  0.00    -0.298 A  
HETATM    7  C   UNL     1      -7.568   9.660  65.147  1.00  0.00    -0.114 A  
ENDBRANCH   1   2
BRANCH   1   8
HETATM    8  O   UNL     1      -7.790   7.955  67.699  1.00  0.00    -0.117 OA 
BRANCH   8   9
HETATM    9  C   UNL     1      -8.723   7.042  67.299  1.00  0.00    -0.120 A  
HETATM   10  C   UNL     1      -9.595   5.307  65.830  1.00  0.00    -0.108 A  
HETATM   11  C   UNL     1     -11.004   6.229  67.544  1.00  0.00    -0.444 A  
HETATM   12  C   UNL     1     -10.830   5.367  66.467  1.00  0.00    -0.222 A  
HETATM   13  C   UNL     1      -8.548   6.138  66.245  1.00  0.00    -0.136 A  
HETATM   14  C   UNL     1      -9.953   7.043  67.985  1.00  0.00    -0.154 A  
BRANCH  14  15
HETATM   15  O   UNL     1     -10.281   7.818  69.070  1.00  0.00    -0.198 OA 
BRANCH  15  16
HETATM   16  C   UNL     1      -9.971   7.259  70.348  1.00  0.00    -0.191 C  
HETATM   17  C   UNL     1     -11.256   6.716  70.952  1.00  0.00    -0.352 C  
ENDBRANCH  15  16
ENDBRANCH  14  15
ENDBRANCH   8   9
ENDBRANCH   1   8
BRANCH   1  18
HETATM   18  C   UNL     1      -6.707  10.075  68.055  1.00  0.00    -0.064 C  
HETATM   19  N   UNL     1      -7.145  10.625  70.503  1.00  0.00    -0.452 NA 
HETATM   20  O   UNL     1      -5.706   9.114  68.473  1.00  0.00    -0.041 OA 
HETATM   21  H   UNL     1      -8.107  10.297  70.588  1.00  0.00     0.000 HD 
HETATM   22  C   UNL     1      -6.168   9.577  70.840  1.00  0.00    -0.086 C  
HETATM   23  C   UNL     1      -6.852  11.154  69.156  1.00  0.00    -0.102 C  
HETATM   24  C   UNL     1      -6.001   8.519  69.740  1.00  0.00    -0.028 C  
ENDBRANCH   1  18
TORSDOF 6
ENDMDL
MODEL      194
REMARK 921   NORMALIZED FREE ENERGY PREDICTED BY IDOCK:   -2.55 KCAL/MOL
REMARK 922        TOTAL FREE ENERGY PREDICTED BY IDOCK:   -4.57 KCAL/MOL
REMARK 923 INTER-LIGAND FREE ENERGY PREDICTED BY IDOCK:   -4.66 KCAL/MOL
REMARK 924 INTRA-LIGAND FREE ENERGY PREDICTED BY IDOCK:    0.09 KCAL/MOL
REMARK 927      BINDING AFFINITY PREDICTED BY RF-SCORE:    0.00 PKD
ROOT
HETATM    1  C   UNL     1      -8.911  14.059  68.005  1.00  0.00    -0.182 C  
ENDROOT
BRANCH   1   2
HETATM    2  C   UNL     1     -10.148  14.478  68.788  1.00  0.00    -0.239 A  
HETATM    3  C   UNL     1     -12.567  14.678  68.950  1.00  0.00     0.263 A  
HETATM    4  C   UNL     1     -10.035  15.255  69.954  1.00  0.00    -0.176 A  
HETATM    5  C   UNL     1     -11.169  15.760  70.589  1.00  0.00    -0.395 A  
HETATM    6  C   UNL     1     -12.437  15.481  70.082  1.00  0.00    -0.351 A  
HETATM    7  C   UNL     1     -11.432  14.177  68.309  1.00  0.00    -0.335 A  
ENDBRANCH   1   2
BRANCH   1   8
HETATM    8  O   UNL     1      -8.230  15.271  67.615  1.00  0.00    -0.143 OA 
BRANCH   8   9
HETATM    9  C   UNL     1      -8.901  16.344  67.103  1.00  0.00    -0.195 A  
HETATM   10  C   UNL     1     -10.414  17.433  65.537  1.00  0.00    -0.112 A  
HETATM   11  C   UNL     1      -9.130  18.767  67.068  1.00  0.00    -0.299 A  
HETATM   12  C   UNL     1     -10.040  18.682  66.019  1.00  0.00    -0.326 A  
HETATM   13  C   UNL     1      -9.850  16.272  66.077  1.00  0.00    -0.371 A  
HETATM   14  C   UNL     1      -8.584  17.609  67.635  1.00  0.00    -0.224 A  
BRANCH  14  15
HETATM   15  O   UNL     1      -7.721  17.864  68.673  1.00  0.00    -0.284 OA 
BRANCH  15  16
HETATM   16  C   UNL     1      -6.509  18.533  68.321  1.00  0.00    -0.212 C  
HETATM   17  C   UNL     1      -6.092  19.408  69.493  1.00  0.00    -0.312 C  
ENDBRANCH  15  16
ENDBRANCH  14  15
ENDBRANCH   8   9
ENDBRANCH   1   8
BRANCH   1  18
HETATM   18  C   UNL     1      -7.882  13.213  68.815  1.00  0.00     0.018 C  
HETATM   19  N   UNL     1      -6.224  12.509  67.015  1.00  0.00    -0.466 NA 
HETATM   20  O   UNL     1      -6.853  14.045  69.406  1.00  0.00    -0.117 OA 
HETATM   21  H   UNL     1      -6.673  12.914  66.193  1.00  0.00     0.000 HD 
HETATM   22  C   UNL     1      -5.264  13.436  67.636  1.00  0.00    -0.002 C  
HETATM   23  C   UNL     1      -7.204  12.066  68.026  1.00  0.00    -0.096 C  
HETATM   24  C   UNL     1      -5.931  14.560  68.442  1.00  0.00    -0.103 C  
ENDBRANCH   1  18
TORSDOF 6
ENDMDL
MODEL      195
REMARK 921   NORMALIZED FREE ENERGY PREDICTED BY IDOCK:   -2.51 KCAL/MOL
REMARK 922        TOTAL FREE ENERGY PREDICTED BY IDOCK:   -4.51 KCAL/MOL
REMARK 923 INTER-LIGAND FREE ENERGY PREDICTED BY IDOCK:   -3.53 KCAL/MOL
REMARK 924 INTRA-LIGAND FREE ENERGY PREDICTED BY IDOCK:   -0.99 KCAL/MOL
REMARK 927      BINDING AFFINITY PREDICTED BY RF-SCORE:    0.00 PKD
ROOT
HETATM    1  C   UNL     1      -8.604  12.780  67.614  1.00  0.00    -0.181 C  
ENDROOT
BRANCH   1   2
HETATM    2  C   UNL     1      -7.992  11.799  66.624  1.00  0.00    -0.070 A  
HETATM    3  C   UNL     1      -8.263  10.146  64.859  1.00  0.00    -0.157 A  
HETATM    4  C   UNL     1      -6.631  11.454  66.698  1.00  0.00    -0.114 A  
HETATM    5  C   UNL     1      -6.103  10.451  65.886  1.00  0.00    -0.113 A  
HETATM    6  C   UNL     1      -6.921   9.787  64.974  1.00  0.00    -0.119 A  
HETATM    7  C   UNL     1      -8.795  11.147  65.676  1.00  0.00    -0.165 A  
ENDBRANCH   1   2
BRANCH   1   8
HETATM    8  O   UNL     1      -8.518  12.169  68.920  1.00  0.00     0.029 OA 
BRANCH   8   9
HETATM    9  C   UNL     1      -9.134  10.983  69.204  1.00  0.00     0.010 A  
HETATM   10  C   UNL     1      -9.165   8.608  69.741  1.00  0.00    -0.154 A  
HETATM   11  C   UNL     1     -11.225   9.737  69.232  1.00  0.00    -0.128 A  
HETATM   12  C   UNL     1     -10.542   8.568  69.552  1.00  0.00    -0.215 A  
HETATM   13  C   UNL     1      -8.466   9.809  69.569  1.00  0.00    -0.176 A  
HETATM   14  C   UNL     1     -10.537  10.949  69.088  1.00  0.00    -0.220 A  
BRANCH  14  15
HETATM   15  O   UNL     1     -11.357  12.010  68.792  1.00  0.00    -0.232 OA 
BRANCH  15  16
HETATM   16  C   UNL     1     -11.941  11.998  67.488  1.00  0.00    -0.074 C  
HETATM   17  C   UNL     1     -12.114  13.438  67.032  1.00  0.00    -0.390 C  
ENDBRANCH  15  16
ENDBRANCH  14  15
ENDBRANCH   8   9
ENDBRANCH   1   8
BRANCH   1  18
HETATM   18  C   UNL     1      -7.867  14.149  67.717  1.00  0.00    -0.170 C  
HETATM   19  N   UNL     1      -9.580  15.763  66.746  1.00  0.00    -0.227 NA 
HETATM   20  O   UNL     1      -8.057  14.764  69.015  1.00  0.00    -0.152 OA 
HETATM   21  H   UNL     1     -10.312  15.104  66.479  1.00  0.00     0.000 HD 
HETATM   22  C   UNL     1      -9.767  16.277  68.111  1.00  0.00    -0.227 C  
HETATM   23  C   UNL     1      -8.230  15.179  66.620  1.00  0.00    -0.048 C  
HETATM   24  C   UNL     1      -9.382  15.268  69.203  1.00  0.00    -0.236 C  
ENDBRANCH   1  18
TORSDOF 6
ENDMDL
MODEL      196
REMARK 921   NORMALIZED FREE ENERGY PREDICTED BY IDOCK:   -2.32 KCAL/MOL
REMARK 922        TOTAL FREE ENERGY PREDICTED BY IDOCK:   -4.26 KCAL/MOL
REMARK 923 INTER-LIGAND FREE ENERGY PREDICTED BY IDOCK:   -4.70 KCAL/MOL
REMARK 924 INTRA-LIGAND FREE ENERGY PREDICTED BY IDOCK:    0.43 KCAL/MOL
REMARK 927      BINDING AFFINITY PREDICTED BY RF-SCORE:    0.00 PKD
ROOT
HETATM    1  C   UNL     1      -9.719  11.684  66.937  1.00  0.00    -0.195 C  
ENDROOT
BRANCH   1   2
HETATM    2  C   UNL     1      -8.422  11.974  67.679  1.00  0.00    -0.160 A  
HETATM    3  C   UNL     1      -6.307  13.167  67.833  1.00  0.00    -0.139 A  
HETATM    4  C   UNL     1      -8.016  11.174  68.762  1.00  0.00    -0.144 A  
HETATM    5  C   UNL     1      -6.763  11.349  69.349  1.00  0.00    -0.122 A  
HETATM    6  C   UNL     1      -5.902  12.338  68.878  1.00  0.00    -0.062 A  
HETATM    7  C   UNL     1      -7.559  12.989  67.239  1.00  0.00    -0.097 A  
ENDBRANCH   1   2
BRANCH   1   8
HETATM    8  O   UNL     1     -10.323  12.959  66.630  1.00  0.00    -0.246 OA 
BRANCH   8   9
HETATM    9  C   UNL     1     -10.882  13.745  67.597  1.00  0.00    -0.254 A  
HETATM   10  C   UNL     1     -12.071  14.128  69.687  1.00  0.00    -0.400 A  
HETATM   11  C   UNL     1     -11.616  15.979  68.224  1.00  0.00    -0.232 A  
HETATM   12  C   UNL     1     -12.186  15.482  69.391  1.00  0.00    -0.233 A  
HETATM   13  C   UNL     1     -11.422  13.266  68.796  1.00  0.00    -0.346 A  
HETATM   14  C   UNL     1     -10.938  15.129  67.341  1.00  0.00    -0.314 A  
BRANCH  14  15
HETATM   15  O   UNL     1     -10.417  15.778  66.249  1.00  0.00    -0.291 OA 
BRANCH  15  16
HETATM   16  C   UNL     1     -10.645  15.150  64.987  1.00  0.00    -0.413 C  
HETATM   17  C   UNL     1     -11.849  15.814  64.337  1.00  0.00    -0.148 C  
ENDBRANCH  15  16
ENDBRANCH  14  15
ENDBRANCH   8   9
ENDBRANCH   1   8
BRANCH   1  18
HETATM   18  C   UNL     1      -9.540  10.940  65.578  1.00  0.00    -0.221 C  
HETATM   19  N   UNL     1      -7.239   9.881  65.838  1.00  0.00    -0.103 NA 
HETATM   20  O   UNL     1     -10.129   9.617  65.610  1.00  0.00    -0.296 OA 
HETATM   21  H   UNL     1      -6.978  10.249  66.752  1.00  0.00     0.000 HD 
HETATM   22  C   UNL     1      -7.925   8.583  65.936  1.00  0.00    -0.105 C  
HETATM   23  C   UNL     1      -8.080  10.825  65.076  1.00  0.00     0.036 C  
HETATM   24  C   UNL     1      -9.383   8.695  66.409  1.00  0.00    -0.211 C  
ENDBRANCH   1  18
TORSDOF 6
ENDMDL
MODEL      197
REMARK 921   NORMALIZED FREE ENERGY PREDICTED BY IDOCK:   -2.25 KCAL/MOL
REMARK 922        TOTAL FREE ENERGY PREDICTED BY IDOCK:   -4.16 KCAL/MOL
REMARK 923 INTER-LIGAND FREE ENERGY PREDICTED BY IDOCK:   -3.91 KCAL/MOL
REMARK 924 INTRA-LIGAND FREE ENERGY PREDICTED BY IDOCK:   -0.26 KCAL/MOL
REMARK 927      BINDING AFFINITY PREDICTED BY RF-SCORE:    0.00 PKD
ROOT
HETATM    1  C   UNL     1      -9.366   6.069  68.254  1.00  0.00    -0.116 C  
ENDROOT
BRANCH   1   2
HETATM    2  C   UNL     1     -10.008   6.430  69.586  1.00  0.00    -0.193 A  
HETATM    3  C   UNL     1     -12.002   6.764  70.940  1.00  0.00    -0.437 A  
HETATM    4  C   UNL     1      -9.244   6.987  70.628  1.00  0.00    -0.158 A  
HETATM    5  C   UNL     1      -9.854   7.451  71.792  1.00  0.00    -0.187 A  
HETATM    6  C   UNL     1     -11.235   7.350  71.946  1.00  0.00    -0.282 A  
HETATM    7  C   UNL     1     -11.393   6.304  69.770  1.00  0.00    -0.506 A  
ENDBRANCH   1   2
BRANCH   1   8
HETATM    8  O   UNL     1      -9.933   4.806  67.843  1.00  0.00    -0.152 OA 
BRANCH   8   9
HETATM    9  C   UNL     1      -9.752   4.309  66.583  1.00  0.00    -0.219 A  
HETATM   10  C   UNL     1     -10.453   3.823  64.303  1.00  0.00    -0.252 A  
HETATM   11  C   UNL     1      -8.383   2.921  65.126  1.00  0.00    -0.093 A  
HETATM   12  C   UNL     1      -9.321   3.039  64.106  1.00  0.00    -0.127 A  
HETATM   13  C   UNL     1     -10.665   4.455  65.533  1.00  0.00    -0.126 A  
HETATM   14  C   UNL     1      -8.574   3.574  66.350  1.00  0.00    -0.117 A  
BRANCH  14  15
HETATM   15  O   UNL     1      -7.548   3.372  67.242  1.00  0.00    -0.076 OA 
BRANCH  15  16
HETATM   16  C   UNL     1      -6.491   4.332  67.197  1.00  0.00    -0.042 C  
HETATM   17  C   UNL     1      -5.254   3.650  66.636  1.00  0.00    -0.012 C  
ENDBRANCH  15  16
ENDBRANCH  14  15
ENDBRANCH   8   9
ENDBRANCH   1   8
BRANCH   1  18
HETATM   18  C   UNL     1      -9.649   7.077  67.099  1.00  0.00    -0.149 C  
HETATM   19  N   UNL     1      -9.032   9.307  68.163  1.00  0.00    -0.129 NA 
HETATM   20  O   UNL     1      -8.510   7.210  66.213  1.00  0.00    -0.124 OA 
HETATM   21  H   UNL     1      -8.800   8.995  69.105  1.00  0.00     0.000 HD 
HETATM   22  C   UNL     1      -7.857   9.325  67.278  1.00  0.00    -0.099 C  
HETATM   23  C   UNL     1     -10.098   8.488  67.550  1.00  0.00    -0.221 C  
HETATM   24  C   UNL     1      -7.424   7.928  66.806  1.00  0.00    -0.090 C  
ENDBRANCH   1  18
TORSDOF 6
ENDMDL
MODEL      198
REMARK 921   NORMALIZED FREE ENERGY PREDICTED BY IDOCK:   -2.21 KCAL/MOL
REMARK 922        TOTAL FREE ENERGY PREDICTED BY IDOCK:   -4.11 KCAL/MOL
REMARK 923 INTER-LIGAND FREE ENERGY PREDICTED BY IDOCK:   -3.11 KCAL/MOL
REMARK 924 INTRA-LIGAND FREE ENERGY PREDICTED BY IDOCK:   -1.00 KCAL/MOL
REMARK 927      BINDING AFFINITY PREDICTED BY RF-SCORE:    0.00 PKD
ROOT
HETATM    1  C   UNL     1      -8.051   6.843  70.758  1.00  0.00    -0.114 C  
ENDROOT
BRANCH   1   2
HETATM    2  C   UNL     1      -8.568   8.199  70.297  1.00  0.00    -0.131 A  
HETATM    3  C   UNL     1     -10.354   9.848  70.201  1.00  0.00    -0.336 A  
HETATM    4  C   UNL     1      -7.853   8.963  69.357  1.00  0.00    -0.098 A  
HETATM    5  C   UNL     1      -8.394  10.133  68.827  1.00  0.00    -0.122 A  
HETATM    6  C   UNL     1      -9.651  10.572  69.240  1.00  0.00    -0.199 A  
HETATM    7  C   UNL     1      -9.816   8.671  70.729  1.00  0.00    -0.236 A  
ENDBRANCH   1   2
BRANCH   1   8
HETATM    8  O   UNL     1      -7.461   6.204  69.605  1.00  0.00    -0.077 OA 
BRANCH   8   9
HETATM    9  C   UNL     1      -8.176   5.366  68.798  1.00  0.00    -0.094 A  
HETATM   10  C   UNL     1      -9.317   3.279  68.277  1.00  0.00    -0.242 A  
HETATM   11  C   UNL     1      -8.987   4.915  66.548  1.00  0.00    -0.112 A  
HETATM   12  C   UNL     1      -9.449   3.665  66.948  1.00  0.00    -0.213 A  
HETATM   13  C   UNL     1      -8.685   4.124  69.196  1.00  0.00    -0.124 A  
HETATM   14  C   UNL     1      -8.381   5.780  67.468  1.00  0.00    -0.104 A  
BRANCH  14  15
HETATM   15  O   UNL     1      -8.000   6.980  66.920  1.00  0.00    -0.111 OA 
BRANCH  15  16
HETATM   16  C   UNL     1      -6.929   6.919  65.977  1.00  0.00    -0.065 C  
HETATM   17  C   UNL     1      -5.617   6.970  66.744  1.00  0.00    -0.022 C  
ENDBRANCH  15  16
ENDBRANCH  14  15
ENDBRANCH   8   9
ENDBRANCH   1   8
BRANCH   1  18
HETATM   18  C   UNL     1      -6.938   6.905  71.847  1.00  0.00    -0.069 C  
HETATM   19  N   UNL     1      -8.085   8.192  73.722  1.00  0.00    -0.214 NA 
HETATM   20  O   UNL     1      -6.943   5.723  72.686  1.00  0.00    -0.076 OA 
HETATM   21  H   UNL     1      -8.979   8.396  73.274  1.00  0.00     0.000 HD 
HETATM   22  C   UNL     1      -8.117   6.929  74.475  1.00  0.00    -0.140 C  
HETATM   23  C   UNL     1      -6.971   8.160  72.754  1.00  0.00    -0.096 C  
HETATM   24  C   UNL     1      -8.057   5.681  73.581  1.00  0.00    -0.112 C  
ENDBRANCH   1  18
TORSDOF 6
ENDMDL
MODEL      199
REMARK 921   NORMALIZED FREE ENERGY PREDICTED BY IDOCK:   -2.06 KCAL/MOL
REMARK 922        TOTAL FREE ENERGY PREDICTED BY IDOCK:   -3.90 KCAL/MOL
REMARK 923 INTER-LIGAND FREE ENERGY PREDICTED BY IDOCK:   -3.70 KCAL/MOL
REMARK 924 INTRA-LIGAND FREE ENERGY PREDICTED BY IDOCK:   -0.21 KCAL/MOL
REMARK 927      BINDING AFFINITY PREDICTED BY RF-SCORE:    0.00 PKD
ROOT
HETATM    1  C   UNL     1      -9.115  12.554  67.863  1.00  0.00    -0.199 C  
ENDROOT
BRANCH   1   2
HETATM    2  C   UNL     1      -8.984  14.052  68.102  1.00  0.00    -0.183 A  
HETATM    3  C   UNL     1      -9.812  16.101  69.119  1.00  0.00    -0.250 A  
HETATM    4  C   UNL     1      -8.073  14.824  67.359  1.00  0.00    -0.220 A  
HETATM    5  C   UNL     1      -8.054  16.213  67.474  1.00  0.00    -0.164 A  
HETATM    6  C   UNL     1      -8.931  16.855  68.346  1.00  0.00    -0.244 A  
HETATM    7  C   UNL     1      -9.837  14.709  69.001  1.00  0.00    -0.178 A  
ENDBRANCH   1   2
BRANCH   1   8
HETATM    8  O   UNL     1      -9.560  12.383  66.500  1.00  0.00    -0.229 OA 
BRANCH   8   9
HETATM    9  C   UNL     1     -10.662  13.027  66.013  1.00  0.00    -0.274 A  
HETATM   10  C   UNL     1     -11.806  14.604  64.553  1.00  0.00    -0.442 A  
HETATM   11  C   UNL     1     -13.020  13.538  66.332  1.00  0.00     0.485 A  
HETATM   12  C   UNL     1     -12.985  14.437  65.271  1.00  0.00    -0.104 A  
HETATM   13  C   UNL     1     -10.653  13.902  64.921  1.00  0.00    -0.436 A  
HETATM   14  C   UNL     1     -11.879  12.809  66.688  1.00  0.00    -0.393 A  
BRANCH  14  15
HETATM   15  O   UNL     1     -12.086  11.951  67.740  1.00  0.00    -0.564 OA 
BRANCH  15  16
HETATM   16  C   UNL     1     -12.644  12.538  68.917  1.00  0.00     0.810 C  
HETATM   17  C   UNL     1     -12.247  11.681  70.109  1.00  0.00    -0.367 C  
ENDBRANCH  15  16
ENDBRANCH  14  15
ENDBRANCH   8   9
ENDBRANCH   1   8
BRANCH   1  18
HETATM   18  C   UNL     1      -7.785  11.752  67.998  1.00  0.00    -0.123 C  
HETATM   19  N   UNL     1      -8.618   9.404  68.525  1.00  0.00    -0.123 NA 
HETATM   20  O   UNL     1      -7.316  11.274  66.713  1.00  0.00    -0.137 OA 
HETATM   21  H   UNL     1      -9.622   9.579  68.569  1.00  0.00     0.000 HD 
HETATM   22  C   UNL     1      -8.180   9.021  67.174  1.00  0.00    -0.110 C  
HETATM   23  C   UNL     1      -7.829  10.563  68.988  1.00  0.00    -0.129 C  
HETATM   24  C   UNL     1      -8.109  10.203  66.195  1.00  0.00    -0.123 C  
ENDBRANCH   1  18
TORSDOF 6
ENDMDL
MODEL      200
REMARK 921   NORMALIZED FREE ENERGY PREDICTED BY IDOCK:   -1.89 KCAL/MOL
REMARK 922        TOTAL FREE ENERGY PREDICTED BY IDOCK:   -3.68 KCAL/MOL
REMARK 923 INTER-LIGAND FREE ENERGY PREDICTED BY IDOCK:   -2.85 KCAL/MOL
REMARK 924 INTRA-LIGAND FREE ENERGY PREDICTED BY IDOCK:   -0.83 KCAL/MOL
REMARK 927      BINDING AFFINITY PREDICTED BY RF-SCORE:    0.00 PKD
ROOT
HETATM    1  C   UNL     1      -8.543   7.139  68.452  1.00  0.00    -0.123 C  
ENDROOT
BRANCH   1   2
HETATM    2  C   UNL     1      -9.109   8.552  68.429  1.00  0.00    -0.139 A  
HETATM    3  C   UNL     1      -8.856  10.911  67.890  1.00  0.00    -0.134 A  
HETATM    4  C   UNL     1     -10.291   8.867  69.122  1.00  0.00    -0.230 A  
HETATM    5  C   UNL     1     -10.731  10.187  69.222  1.00  0.00    -0.259 A  
HETATM    6  C   UNL     1     -10.008  11.212  68.616  1.00  0.00    -0.210 A  
HETATM    7  C   UNL     1      -8.411   9.590  67.795  1.00  0.00    -0.118 A  
ENDBRANCH   1   2
BRANCH   1   8
HETATM    8  O   UNL     1      -8.561   6.701  69.828  1.00  0.00    -0.134 OA 
BRANCH   8   9
HETATM    9  C   UNL     1      -7.552   7.006  70.697  1.00  0.00    -0.093 A  
HETATM   10  C   UNL     1      -5.218   7.159  71.370  1.00  0.00    -0.027 A  
HETATM   11  C   UNL     1      -6.948   7.591  72.981  1.00  0.00    -0.073 A  
HETATM   12  C   UNL     1      -5.597   7.470  72.672  1.00  0.00    -0.037 A  
HETATM   13  C   UNL     1      -6.189   6.931  70.389  1.00  0.00    -0.027 A  
HETATM   14  C   UNL     1      -7.926   7.393  71.998  1.00  0.00    -0.093 A  
BRANCH  14  15
HETATM   15  O   UNL     1      -9.208   7.571  72.460  1.00  0.00    -0.136 OA 
BRANCH  15  16
HETATM   16  C   UNL     1      -9.996   6.385  72.571  1.00  0.00    -0.171 C  
HETATM   17  C   UNL     1      -9.520   5.612  73.791  1.00  0.00    -0.139 C  
ENDBRANCH  15  16
ENDBRANCH  14  15
ENDBRANCH   8   9
ENDBRANCH   1   8
BRANCH   1  18
HETATM   18  C   UNL     1      -9.368   6.092  67.643  1.00  0.00    -0.112 C  
HETATM   19  N   UNL     1      -8.938   6.805  65.237  1.00  0.00    -0.358 NA 
HETATM   20  O   UNL     1      -8.607   4.884  67.398  1.00  0.00    -0.105 OA 
HETATM   21  H   UNL     1      -8.370   7.637  65.397  1.00  0.00     0.000 HD 
HETATM   22  C   UNL     1      -8.120   5.591  65.097  1.00  0.00    -0.124 C  
HETATM   23  C   UNL     1      -9.943   6.602  66.299  1.00  0.00     0.088 C  
HETATM   24  C   UNL     1      -7.569   5.067  66.431  1.00  0.00    -0.088 C  
ENDBRANCH   1  18
TORSDOF 6
ENDMDL
MODEL      201
REMARK 921   NORMALIZED FREE ENERGY PREDICTED BY IDOCK:   -1.55 KCAL/MOL
REMARK 922        TOTAL FREE ENERGY PREDICTED BY IDOCK:   -3.22 KCAL/MOL
REMARK 923 INTER-LIGAND FREE ENERGY PREDICTED BY IDOCK:   -3.53 KCAL/MOL
REMARK 924 INTRA-LIGAND FREE ENERGY PREDICTED BY IDOCK:    0.31 KCAL/MOL
REMARK 927      BINDING AFFINITY PREDICTED BY RF-SCORE:    0.00 PKD
ROOT
HETATM    1  C   UNL     1      -8.155  10.840  66.827  1.00  0.00    -0.137 C  
ENDROOT
BRANCH   1   2
HETATM    2  C   UNL     1      -8.832  12.175  67.100  1.00  0.00    -0.191 A  
HETATM    3  C   UNL     1      -9.383  13.980  68.636  1.00  0.00    -0.130 A  
HETATM    4  C   UNL     1      -9.722  12.738  66.167  1.00  0.00    -0.246 A  
HETATM    5  C   UNL     1     -10.451  13.885  66.477  1.00  0.00    -0.282 A  
HETATM    6  C   UNL     1     -10.291  14.502  67.716  1.00  0.00    -0.237 A  
HETATM    7  C   UNL     1      -8.656  12.827  68.330  1.00  0.00    -0.166 A  
ENDBRANCH   1   2
BRANCH   1   8
HETATM    8  O   UNL     1      -9.060   9.809  67.280  1.00  0.00    -0.134 OA 
BRANCH   8   9
HETATM    9  C   UNL     1     -10.100  10.080  68.123  1.00  0.00    -0.159 A  
HETATM   10  C   UNL     1     -12.315  10.937  68.657  1.00  0.00     0.345 A  
HETATM   11  C   UNL     1     -10.851  10.242  70.432  1.00  0.00    -0.320 A  
HETATM   12  C   UNL     1     -12.063  10.784  70.017  1.00  0.00    -0.423 A  
HETATM   13  C   UNL     1     -11.340  10.586  67.717  1.00  0.00    -0.267 A  
HETATM   14  C   UNL     1      -9.882   9.860  69.497  1.00  0.00    -0.223 A  
BRANCH  14  15
HETATM   15  O   UNL     1      -8.753   9.324  70.068  1.00  0.00    -0.158 OA 
BRANCH  15  16
HETATM   16  C   UNL     1      -8.937   8.711  71.345  1.00  0.00    -0.222 C  
HETATM   17  C   UNL     1      -8.236   7.362  71.329  1.00  0.00    -0.105 C  
ENDBRANCH  15  16
ENDBRANCH  14  15
ENDBRANCH   8   9
ENDBRANCH   1   8
BRANCH   1  18
HETATM   18  C   UNL     1      -7.870  10.548  65.322  1.00  0.00    -0.100 C  
HETATM   19  N   UNL     1      -5.598   9.402  65.413  1.00  0.00    -0.051 NA 
HETATM   20  O   UNL     1      -8.460   9.294  64.899  1.00  0.00    -0.147 OA 
HETATM   21  H   UNL     1      -5.409   9.463  66.414  1.00  0.00     0.000 HD 
HETATM   22  C   UNL     1      -6.290   8.155  65.053  1.00  0.00    -0.049 C  
HETATM   23  C   UNL     1      -6.375  10.556  64.920  1.00  0.00    -0.028 C  
HETATM   24  C   UNL     1      -7.780   8.152  65.427  1.00  0.00    -0.101 C  
ENDBRANCH   1  18
TORSDOF 6
ENDMDL
MODEL      202
REMARK 921   NORMALIZED FREE ENERGY PREDICTED BY IDOCK:   -1.53 KCAL/MOL
REMARK 922        TOTAL FREE ENERGY PREDICTED BY IDOCK:   -3.19 KCAL/MOL
REMARK 923 INTER-LIGAND FREE ENERGY PREDICTED BY IDOCK:   -5.41 KCAL/MOL
REMARK 924 INTRA-LIGAND FREE ENERGY PREDICTED BY IDOCK:    2.22 KCAL/MOL
REMARK 927      BINDING AFFINITY PREDICTED BY RF-SCORE:    0.00 PKD
ROOT
HETATM    1  C   UNL     1      -8.797  12.828  67.838  1.00  0.00    -0.186 C  
ENDROOT
BRANCH   1   2
HETATM    2  C   UNL     1      -8.528  14.324  67.909  1.00  0.00    -0.168 A  
HETATM    3  C   UNL     1      -8.764  16.452  69.066  1.00  0.00    -0.233 A  
HETATM    4  C   UNL     1      -8.009  15.018  66.801  1.00  0.00     0.009 A  
HETATM    5  C   UNL     1      -7.899  16.408  66.816  1.00  0.00    -0.301 A  
HETATM    6  C   UNL     1      -8.286  17.128  67.945  1.00  0.00    -0.207 A  
HETATM    7  C   UNL     1      -8.881  15.060  69.050  1.00  0.00    -0.205 A  
ENDBRANCH   1   2
BRANCH   1   8
HETATM    8  O   UNL     1      -9.112  12.522  66.462  1.00  0.00    -0.226 OA 
BRANCH   8   9
HETATM    9  C   UNL     1     -10.243  12.994  65.858  1.00  0.00    -0.292 A  
HETATM   10  C   UNL     1     -11.502  13.912  63.987  1.00  0.00    -0.183 A  
HETATM   11  C   UNL     1     -12.528  13.777  66.156  1.00  0.00    -0.466 A  
HETATM   12  C   UNL     1     -12.591  14.151  64.818  1.00  0.00    -0.326 A  
HETATM   13  C   UNL     1     -10.336  13.335  64.504  1.00  0.00    -0.394 A  
HETATM   14  C   UNL     1     -11.376  13.172  66.674  1.00  0.00    -0.325 A  
BRANCH  14  15
HETATM   15  O   UNL     1     -11.483  12.845  68.004  1.00  0.00    -0.277 OA 
BRANCH  15  16
HETATM   16  C   UNL     1     -11.856  13.913  68.877  1.00  0.00    -0.358 C  
HETATM   17  C   UNL     1     -11.974  13.355  70.286  1.00  0.00    -0.378 C  
ENDBRANCH  15  16
ENDBRANCH  14  15
ENDBRANCH   8   9
ENDBRANCH   1   8
BRANCH   1  18
HETATM   18  C   UNL     1      -7.585  11.927  68.224  1.00  0.00    -0.116 C  
HETATM   19  N   UNL     1      -5.700  12.931  66.837  1.00  0.00    -0.383 NA 
HETATM   20  O   UNL     1      -6.925  12.403  69.423  1.00  0.00    -0.039 OA 
HETATM   21  H   UNL     1      -6.218  13.647  66.327  1.00  0.00     0.000 HD 
HETATM   22  C   UNL     1      -5.138  13.442  68.097  1.00  0.00    -0.103 C  
HETATM   23  C   UNL     1      -6.523  11.737  67.113  1.00  0.00    -0.146 C  
HETATM   24  C   UNL     1      -6.183  13.607  69.210  1.00  0.00    -0.104 C  
ENDBRANCH   1  18
TORSDOF 6
ENDMDL
MODEL      203
REMARK 921   NORMALIZED FREE ENERGY PREDICTED BY IDOCK:   -1.05 KCAL/MOL
REMARK 922        TOTAL FREE ENERGY PREDICTED BY IDOCK:   -2.54 KCAL/MOL
REMARK 923 INTER-LIGAND FREE ENERGY PREDICTED BY IDOCK:   -4.75 KCAL/MOL
REMARK 924 INTRA-LIGAND FREE ENERGY PREDICTED BY IDOCK:    2.21 KCAL/MOL
REMARK 927      BINDING AFFINITY PREDICTED BY RF-SCORE:    0.00 PKD
ROOT
HETATM    1  C   UNL     1     -11.230  14.697  66.991  1.00  0.00    -0.344 C  
ENDROOT
BRANCH   1   2
HETATM    2  C   UNL     1     -11.399  15.065  68.458  1.00  0.00    -0.317 A  
HETATM    3  C   UNL     1     -11.878  14.406  70.751  1.00  0.00    -0.349 A  
HETATM    4  C   UNL     1     -11.469  16.410  68.862  1.00  0.00    -0.216 A  
HETATM    5  C   UNL     1     -11.768  16.746  70.181  1.00  0.00     0.819 A  
HETATM    6  C   UNL     1     -11.984  15.744  71.126  1.00  0.00    -0.469 A  
HETATM    7  C   UNL     1     -11.585  14.068  69.427  1.00  0.00    -0.349 A  
ENDBRANCH   1   2
BRANCH   1   8
HETATM    8  O   UNL     1      -9.822  14.808  66.689  1.00  0.00    -0.242 OA 
BRANCH   8   9
HETATM    9  C   UNL     1      -9.200  16.020  66.579  1.00  0.00    -0.276 A  
HETATM   10  C   UNL     1      -9.071  18.359  65.917  1.00  0.00     0.210 A  
HETATM   11  C   UNL     1      -7.105  17.249  66.739  1.00  0.00    -0.248 A  
HETATM   12  C   UNL     1      -7.714  18.386  66.219  1.00  0.00    -0.279 A  
HETATM   13  C   UNL     1      -9.809  17.184  66.097  1.00  0.00    -0.280 A  
HETATM   14  C   UNL     1      -7.844  16.077  66.951  1.00  0.00    -0.249 A  
BRANCH  14  15
HETATM   15  O   UNL     1      -7.101  15.054  67.489  1.00  0.00    -0.176 OA 
BRANCH  15  16
HETATM   16  C   UNL     1      -7.849  13.988  68.076  1.00  0.00    -0.152 C  
HETATM   17  C   UNL     1      -6.886  13.104  68.853  1.00  0.00    -0.103 C  
ENDBRANCH  15  16
ENDBRANCH  14  15
ENDBRANCH   8   9
ENDBRANCH   1   8
BRANCH   1  18
HETATM   18  C   UNL     1     -11.645  13.238  66.631  1.00  0.00    -0.365 C  
HETATM   19  N   UNL     1     -10.285  12.791  64.524  1.00  0.00    -0.493 NA 
HETATM   20  O   UNL     1     -10.836  12.263  67.333  1.00  0.00    -0.226 OA 
HETATM   21  H   UNL     1      -9.841  13.701  64.405  1.00  0.00     0.000 HD 
HETATM   22  C   UNL     1      -9.466  11.874  65.332  1.00  0.00    -0.108 C  
HETATM   23  C   UNL     1     -11.632  12.902  65.120  1.00  0.00    -0.332 C  
HETATM   24  C   UNL     1      -9.497  12.187  66.835  1.00  0.00    -0.210 C  
ENDBRANCH   1  18
TORSDOF 6
ENDMDL
MODEL      204
REMARK 921   NORMALIZED FREE ENERGY PREDICTED BY IDOCK:   -0.20 KCAL/MOL
REMARK 922        TOTAL FREE ENERGY PREDICTED BY IDOCK:   -1.39 KCAL/MOL
REMARK 923 INTER-LIGAND FREE ENERGY PREDICTED BY IDOCK:   -2.56 KCAL/MOL
REMARK 924 INTRA-LIGAND FREE ENERGY PREDICTED BY IDOCK:    1.17 KCAL/MOL
REMARK 927      BINDING AFFINITY PREDICTED BY RF-SCORE:    0.00 PKD
ROOT
HETATM    1  C   UNL     1      -9.619  16.850  69.466  1.00  0.00     0.157 C  
ENDROOT
BRANCH   1   2
HETATM    2  C   UNL     1     -10.528  15.680  69.816  1.00  0.00    -0.312 A  
HETATM    3  C   UNL     1     -11.298  13.413  69.388  1.00  0.00    -0.286 A  
HETATM    4  C   UNL     1     -11.592  15.839  70.722  1.00  0.00    -0.429 A  
HETATM    5  C   UNL     1     -12.510  14.812  70.933  1.00  0.00    -0.396 A  
HETATM    6  C   UNL     1     -12.371  13.600  70.258  1.00  0.00    -0.392 A  
HETATM    7  C   UNL     1     -10.381  14.444  69.171  1.00  0.00    -0.164 A  
ENDBRANCH   1   2
BRANCH   1   8
HETATM    8  O   UNL     1      -9.172  16.644  68.108  1.00  0.00    -0.212 OA 
BRANCH   8   9
HETATM    9  C   UNL     1      -7.852  16.713  67.764  1.00  0.00    -0.164 A  
HETATM   10  C   UNL     1      -5.476  16.941  68.244  1.00  0.00    -0.119 A  
HETATM   11  C   UNL     1      -6.234  16.975  65.964  1.00  0.00     0.344 A  
HETATM   12  C   UNL     1      -5.198  17.067  66.887  1.00  0.00    -0.189 A  
HETATM   13  C   UNL     1      -6.794  16.763  68.679  1.00  0.00    -0.175 A  
HETATM   14  C   UNL     1      -7.552  16.768  66.389  1.00  0.00    -0.290 A  
BRANCH  14  15
HETATM   15  O   UNL     1      -8.452  16.679  65.354  1.00  0.00     0.091 OA 
BRANCH  15  16
HETATM   16  C   UNL     1      -9.585  15.841  65.589  1.00  0.00    -0.264 C  
HETATM   17  C   UNL     1      -9.087  14.425  65.828  1.00  0.00     0.356 C  
ENDBRANCH  15  16
ENDBRANCH  14  15
ENDBRANCH   8   9
ENDBRANCH   1   8
BRANCH   1  18
HETATM   18  C   UNL     1     -10.311  18.246  69.496  1.00  0.00     0.434 C  
HETATM   19  N   UNL     1      -8.634  19.709  68.257  1.00  0.00    -0.329 NA 
HETATM   20  O   UNL     1     -11.235  18.410  68.392  1.00  0.00     0.390 OA 
HETATM   21  H   UNL     1      -7.894  19.028  68.091  1.00  0.00     0.000 HD 
HETATM   22  C   UNL     1      -9.602  19.760  67.151  1.00  0.00    -0.361 C  
HETATM   23  C   UNL     1      -9.349  19.459  69.525  1.00  0.00     0.143 C  
HETATM   24  C   UNL     1     -10.576  18.573  67.133  1.00  0.00    -0.398 C  
ENDBRANCH   1  18
TORSDOF 6
ENDMDL
MODEL      205
REMARK 921   NORMALIZED FREE ENERGY PREDICTED BY IDOCK:    0.19 KCAL/MOL
REMARK 922        TOTAL FREE ENERGY PREDICTED BY IDOCK:   -0.87 KCAL/MOL
REMARK 923 INTER-LIGAND FREE ENERGY PREDICTED BY IDOCK:   -0.32 KCAL/MOL
REMARK 924 INTRA-LIGAND FREE ENERGY PREDICTED BY IDOCK:   -0.55 KCAL/MOL
REMARK 927      BINDING AFFINITY PREDICTED BY RF-SCORE:    0.00 PKD
ROOT
HETATM    1  C   UNL     1     -10.493  17.407  67.126  1.00  0.00    -0.305 C  
ENDROOT
BRANCH   1   2
HETATM    2  C   UNL     1     -10.944  16.318  68.090  1.00  0.00    -0.343 A  
HETATM    3  C   UNL     1     -12.661  15.349  69.516  1.00  0.00     0.133 A  
HETATM    4  C   UNL     1     -10.020  15.409  68.636  1.00  0.00    -0.210 A  
HETATM    5  C   UNL     1     -10.405  14.507  69.627  1.00  0.00     0.043 A  
HETATM    6  C   UNL     1     -11.724  14.483  70.076  1.00  0.00    -0.359 A  
HETATM    7  C   UNL     1     -12.275  16.259  68.528  1.00  0.00     0.699 A  
ENDBRANCH   1   2
BRANCH   1   8
HETATM    8  O   UNL     1     -11.165  17.163  65.872  1.00  0.00     0.233 OA 
BRANCH   8   9
HETATM    9  C   UNL     1     -11.136  15.940  65.263  1.00  0.00    -0.248 A  
HETATM   10  C   UNL     1     -12.155  13.918  64.368  1.00  0.00    -0.477 A  
HETATM   11  C   UNL     1      -9.762  14.070  64.529  1.00  0.00     0.871 A  
HETATM   12  C   UNL     1     -10.901  13.339  64.206  1.00  0.00    -0.414 A  
HETATM   13  C   UNL     1     -12.271  15.211  64.892  1.00  0.00    -0.053 A  
HETATM   14  C   UNL     1      -9.868  15.375  65.026  1.00  0.00     0.043 A  
BRANCH  14  15
HETATM   15  O   UNL     1      -8.653  15.965  65.275  1.00  0.00     0.776 OA 
BRANCH  15  16
HETATM   16  C   UNL     1      -7.824  15.297  66.227  1.00  0.00     0.905 C  
HETATM   17  C   UNL     1      -6.590  16.153  66.466  1.00  0.00     0.514 C  
ENDBRANCH  15  16
ENDBRANCH  14  15
ENDBRANCH   8   9
ENDBRANCH   1   8
BRANCH   1  18
HETATM   18  C   UNL     1     -10.871  18.857  67.556  1.00  0.00    -0.364 C  
HETATM   19  N   UNL     1      -8.723  19.675  68.653  1.00  0.00    -0.317 NA 
HETATM   20  O   UNL     1     -10.659  19.806  66.483  1.00  0.00    -0.460 OA 
HETATM   21  H   UNL     1      -8.158  18.829  68.586  1.00  0.00     0.000 HD 
HETATM   22  C   UNL     1      -8.546  20.555  67.487  1.00  0.00    -0.231 C  
HETATM   23  C   UNL     1     -10.158  19.375  68.829  1.00  0.00    -0.422 C  
HETATM   24  C   UNL     1      -9.274  20.058  66.229  1.00  0.00    -0.334 C  
ENDBRANCH   1  18
TORSDOF 6
ENDMDL
MODEL      206
REMARK 921   NORMALIZED FREE ENERGY PREDICTED BY IDOCK:    5.90 KCAL/MOL
REMARK 922        TOTAL FREE ENERGY PREDICTED BY IDOCK:    6.85 KCAL/MOL
REMARK 923 INTER-LIGAND FREE ENERGY PREDICTED BY IDOCK:    5.97 KCAL/MOL
REMARK 924 INTRA-LIGAND FREE ENERGY PREDICTED BY IDOCK:    0.88 KCAL/MOL
REMARK 927      BINDING AFFINITY PREDICTED BY RF-SCORE:    0.00 PKD
ROOT
HETATM    1  C   UNL     1      -8.420  17.004  68.629  1.00  0.00    -0.262 C  
ENDROOT
BRANCH   1   2
HETATM    2  C   UNL     1      -9.121  18.246  68.099  1.00  0.00    -0.310 A  
HETATM    3  C   UNL     1      -9.943  20.510  68.449  1.00  0.00    -0.080 A  
HETATM    4  C   UNL     1      -9.803  18.221  66.869  1.00  0.00    -0.335 A  
HETATM    5  C   UNL     1     -10.566  19.311  66.452  1.00  0.00    -0.542 A  
HETATM    6  C   UNL     1     -10.645  20.453  67.247  1.00  0.00    -0.049 A  
HETATM    7  C   UNL     1      -9.183  19.415  68.872  1.00  0.00    -0.391 A  
ENDBRANCH   1   2
BRANCH   1   8
HETATM    8  O   UNL     1      -7.031  17.110  68.248  1.00  0.00    -0.174 OA 
BRANCH   8   9
HETATM    9  C   UNL     1      -6.627  17.887  67.199  1.00  0.00    -0.173 A  
HETATM   10  C   UNL     1      -6.505  18.488  64.843  1.00  0.00     0.128 A  
HETATM   11  C   UNL     1      -5.138  19.656  66.439  1.00  0.00    -0.162 A  
HETATM   12  C   UNL     1      -5.534  19.445  65.122  1.00  0.00    -0.205 A  
HETATM   13  C   UNL     1      -7.048  17.716  65.876  1.00  0.00    -0.250 A  
HETATM   14  C   UNL     1      -5.699  18.907  67.481  1.00  0.00    -0.172 A  
BRANCH  14  15
HETATM   15  O   UNL     1      -5.217  19.252  68.721  1.00  0.00    -0.186 OA 
BRANCH  15  16
HETATM   16  C   UNL     1      -5.127  20.653  68.983  1.00  0.00    -0.274 C  
HETATM   17  C   UNL     1      -6.301  21.340  68.304  1.00  0.00    -0.039 C  
ENDBRANCH  15  16
ENDBRANCH  14  15
ENDBRANCH   8   9
ENDBRANCH   1   8
BRANCH   1  18
HETATM   18  C   UNL     1      -8.442  16.853  70.181  1.00  0.00     2.215 C  
HETATM   19  N   UNL     1     -10.678  15.704  70.582  1.00  0.00    -0.296 NA 
HETATM   20  O   UNL     1      -7.769  15.645  70.611  1.00  0.00     1.054 OA 
HETATM   21  H   UNL     1     -11.035  15.672  69.627  1.00  0.00     0.000 HD 
HETATM   22  C   UNL     1      -9.915  14.496  70.932  1.00  0.00     2.066 C  
HETATM   23  C   UNL     1      -9.847  16.899  70.828  1.00  0.00     2.764 C  
HETATM   24  C   UNL     1      -8.510  14.458  70.313  1.00  0.00     1.647 C  
ENDBRANCH   1  18
TORSDOF 6
ENDMDL
