MODEL        1
REMARK 921   NORMALIZED FREE ENERGY PREDICTED BY IDOCK:   -8.77 KCAL/MOL
REMARK 922        TOTAL FREE ENERGY PREDICTED BY IDOCK:  -11.33 KCAL/MOL
REMARK 923 INTER-LIGAND FREE ENERGY PREDICTED BY IDOCK:  -10.82 KCAL/MOL
REMARK 924 INTRA-LIGAND FREE ENERGY PREDICTED BY IDOCK:   -0.51 KCAL/MOL
REMARK 927      BINDING AFFINITY PREDICTED BY RF-SCORE:    0.00 PKD
ROOT
HETATM    1  C   UNL     1     -11.101   5.571  72.842  1.00  0.00    -0.299 C  
HETATM    2  N   UNL     1     -11.502   6.937  72.636  1.00  0.00    -0.430 N  
HETATM    3  C   UNL     1     -11.959   7.382  71.413  1.00  0.00    -0.310 C  
HETATM    4  H   UNL     1     -11.448   7.593  73.414  1.00  0.00     0.000 HD 
HETATM    5  O   UNL     1     -12.056   6.664  70.425  1.00  0.00    -0.374 OA 
ENDROOT
BRANCH   3   6
HETATM    6  C   UNL     1     -12.337   8.788  71.384  1.00  0.00    -0.353 A  
HETATM    7  C   UNL     1     -11.826   9.802  70.600  1.00  0.00    -0.281 A  
HETATM    8  N   UNL     1     -12.472  10.973  70.943  1.00  0.00    -0.381 NA 
HETATM    9  N   UNL     1     -13.401  10.758  71.917  1.00  0.00    -0.403 NA 
HETATM   10  C   UNL     1     -13.317   9.447  72.164  1.00  0.00    -0.468 A  
BRANCH   8  11
HETATM   11  C   UNL     1     -12.157  12.273  70.404  1.00  0.00    -0.300 A  
HETATM   12  N   UNL     1     -11.583  12.339  69.176  1.00  0.00    -0.297 NA 
HETATM   13  C   UNL     1     -11.562  13.598  68.702  1.00  0.00    -0.329 A  
HETATM   14  C   UNL     1     -11.995  14.743  69.348  1.00  0.00    -0.303 A  
HETATM   15  N   UNL     1     -11.860  15.849  68.542  1.00  0.00    -0.303 NA 
HETATM   16  C   UNL     1     -12.480  14.579  70.651  1.00  0.00    -0.343 A  
HETATM   17  N   UNL     1     -12.904  15.636  71.445  1.00  0.00    -0.466 NA 
HETATM   18  N   UNL     1     -12.557  13.332  71.160  1.00  0.00    -0.361 NA 
HETATM   19  C   UNL     1     -11.393  15.379  67.406  1.00  0.00    -0.243 A  
HETATM   20  H1  UNL     1     -13.258  15.516  72.394  1.00  0.00     0.000 HD 
HETATM   21  N   UNL     1     -11.151  14.027  67.468  1.00  0.00    -0.291 NA 
HETATM   22  H2  UNL     1     -13.614  16.146  70.919  1.00  0.00     0.000 HD 
BRANCH  21  23
HETATM   23  C1* UNL     1     -10.608  13.253  66.377  1.00  0.00    -0.284 C  
HETATM   24  O4* UNL     1     -10.370  14.136  65.266  1.00  0.00    -0.344 OA 
HETATM   25  C4* UNL     1     -11.363  13.890  64.249  1.00  0.00    -0.294 C  
HETATM   26  C3* UNL     1     -12.027  12.538  64.552  1.00  0.00    -0.404 C  
HETATM   27  H2* UNL     1     -11.104  10.177  65.463  1.00  0.00     0.000 HD 
HETATM   28  C2* UNL     1     -11.438  12.069  65.886  1.00  0.00    -0.333 C  
HETATM   29  O2* UNL     1     -10.588  10.914  65.769  1.00  0.00    -0.232 OA 
HETATM   30  O3* UNL     1     -11.775  11.578  63.517  1.00  0.00    -0.631 OA 
HETATM   31  H3* UNL     1     -12.186  10.742  63.705  1.00  0.00     0.000 HD 
BRANCH  25  32
HETATM   32  C5* UNL     1     -12.341  15.073  64.210  1.00  0.00    -0.226 C  
HETATM   33  O5* UNL     1     -11.659  16.259  63.799  1.00  0.00    -1.539 OA 
HETATM   34  H5* UNL     1     -12.264  16.991  63.775  1.00  0.00     0.000 HD 
ENDBRANCH  25  32
ENDBRANCH  21  23
ENDBRANCH   8  11
ENDBRANCH   3   6
TORSDOF 4
ENDMDL
MODEL        2
REMARK 921   NORMALIZED FREE ENERGY PREDICTED BY IDOCK:   -8.59 KCAL/MOL
REMARK 922        TOTAL FREE ENERGY PREDICTED BY IDOCK:  -11.11 KCAL/MOL
REMARK 923 INTER-LIGAND FREE ENERGY PREDICTED BY IDOCK:  -10.79 KCAL/MOL
REMARK 924 INTRA-LIGAND FREE ENERGY PREDICTED BY IDOCK:   -0.32 KCAL/MOL
REMARK 927      BINDING AFFINITY PREDICTED BY RF-SCORE:    0.00 PKD
ROOT
HETATM    1  C   UNL     1     -11.073   5.142  72.959  1.00  0.00    -0.314 C  
HETATM    2  N   UNL     1     -11.553   6.478  72.728  1.00  0.00    -0.482 N  
HETATM    3  C   UNL     1     -11.624   7.013  71.459  1.00  0.00    -0.287 C  
HETATM    4  H   UNL     1     -11.847   7.044  73.523  1.00  0.00     0.000 HD 
HETATM    5  O   UNL     1     -11.291   6.406  70.448  1.00  0.00    -0.336 OA 
ENDROOT
BRANCH   3   6
HETATM    6  C   UNL     1     -12.147   8.371  71.405  1.00  0.00    -0.337 A  
HETATM    7  C   UNL     1     -11.603   9.480  70.789  1.00  0.00    -0.308 A  
HETATM    8  N   UNL     1     -12.437  10.554  71.031  1.00  0.00    -0.362 NA 
HETATM    9  N   UNL     1     -13.519  10.183  71.772  1.00  0.00    -0.344 NA 
HETATM   10  C   UNL     1     -13.338   8.874  71.980  1.00  0.00    -0.421 A  
BRANCH   8  11
HETATM   11  C   UNL     1     -12.167  11.911  70.624  1.00  0.00    -0.331 A  
HETATM   12  N   UNL     1     -11.911  12.151  69.313  1.00  0.00    -0.289 NA 
HETATM   13  C   UNL     1     -11.912  13.468  69.038  1.00  0.00    -0.335 A  
HETATM   14  C   UNL     1     -12.084  14.510  69.931  1.00  0.00    -0.336 A  
HETATM   15  N   UNL     1     -12.069  15.726  69.288  1.00  0.00    -0.297 NA 
HETATM   16  C   UNL     1     -12.243  14.158  71.277  1.00  0.00    -0.339 A  
HETATM   17  N   UNL     1     -12.375  15.089  72.299  1.00  0.00    -0.336 NA 
HETATM   18  N   UNL     1     -12.286  12.849  71.602  1.00  0.00     0.256 NA 
HETATM   19  C   UNL     1     -11.935  15.426  68.015  1.00  0.00     0.018 A  
HETATM   20  H1  UNL     1     -12.491  14.832  73.279  1.00  0.00     0.000 HD 
HETATM   21  N   UNL     1     -11.788  14.074  67.815  1.00  0.00    -0.369 NA 
HETATM   22  H2  UNL     1     -13.152  15.702  72.052  1.00  0.00     0.000 HD 
BRANCH  21  23
HETATM   23  C1* UNL     1     -11.593  13.464  66.521  1.00  0.00    -0.357 C  
HETATM   24  O4* UNL     1     -10.372  13.976  65.957  1.00  0.00    -0.289 OA 
HETATM   25  C4* UNL     1     -10.694  14.890  64.889  1.00  0.00    -0.405 C  
HETATM   26  C3* UNL     1     -12.162  14.664  64.499  1.00  0.00    -0.456 C  
HETATM   27  H2* UNL     1     -13.707  12.469  64.267  1.00  0.00     0.000 HD 
HETATM   28  C2* UNL     1     -12.711  13.639  65.495  1.00  0.00    -0.466 C  
HETATM   29  O2* UNL     1     -13.012  12.361  64.905  1.00  0.00    -0.762 OA 
HETATM   30  O3* UNL     1     -12.287  14.184  63.153  1.00  0.00    -1.125 OA 
HETATM   31  H3* UNL     1     -13.195  14.045  62.912  1.00  0.00     0.000 HD 
BRANCH  25  32
HETATM   32  C5* UNL     1     -10.383  16.322  65.348  1.00  0.00    -0.294 C  
HETATM   33  O5* UNL     1     -11.125  17.260  64.564  1.00  0.00    -1.082 OA 
HETATM   34  H5* UNL     1     -10.932  18.145  64.848  1.00  0.00     0.000 HD 
ENDBRANCH  25  32
ENDBRANCH  21  23
ENDBRANCH   8  11
ENDBRANCH   3   6
TORSDOF 4
ENDMDL
MODEL        3
REMARK 921   NORMALIZED FREE ENERGY PREDICTED BY IDOCK:   -8.48 KCAL/MOL
REMARK 922        TOTAL FREE ENERGY PREDICTED BY IDOCK:  -10.97 KCAL/MOL
REMARK 923 INTER-LIGAND FREE ENERGY PREDICTED BY IDOCK:  -10.74 KCAL/MOL
REMARK 924 INTRA-LIGAND FREE ENERGY PREDICTED BY IDOCK:   -0.24 KCAL/MOL
REMARK 927      BINDING AFFINITY PREDICTED BY RF-SCORE:    0.00 PKD
ROOT
HETATM    1  C   UNL     1      -9.964  18.191  66.217  1.00  0.00    -0.342 C  
HETATM    2  N   UNL     1     -10.370  16.817  66.342  1.00  0.00    -0.315 N  
HETATM    3  C   UNL     1     -11.015  16.156  65.319  1.00  0.00    -0.270 C  
HETATM    4  H   UNL     1     -10.175  16.319  67.210  1.00  0.00     0.000 HD 
HETATM    5  O   UNL     1     -11.290  16.676  64.245  1.00  0.00    -1.116 OA 
ENDROOT
BRANCH   3   6
HETATM    6  C   UNL     1     -11.340  14.766  65.608  1.00  0.00    -0.343 A  
HETATM    7  C   UNL     1     -10.587  13.827  66.282  1.00  0.00    -0.289 A  
HETATM    8  N   UNL     1     -11.289  12.638  66.284  1.00  0.00    -0.311 NA 
HETATM    9  N   UNL     1     -12.487  12.771  65.647  1.00  0.00    -0.608 NA 
HETATM   10  C   UNL     1     -12.509  14.050  65.257  1.00  0.00    -0.475 A  
BRANCH   8  11
HETATM   11  C   UNL     1     -10.795  11.393  66.818  1.00  0.00    -0.286 A  
HETATM   12  N   UNL     1     -10.980  11.140  68.138  1.00  0.00    -0.218 NA 
HETATM   13  C   UNL     1     -10.688   9.864  68.447  1.00  0.00    -0.232 A  
HETATM   14  C   UNL     1     -10.198   8.887  67.598  1.00  0.00    -0.237 A  
HETATM   15  N   UNL     1     -10.058   7.685  68.250  1.00  0.00    -0.180 NA 
HETATM   16  C   UNL     1      -9.949   9.278  66.276  1.00  0.00    -0.286 A  
HETATM   17  N   UNL     1      -9.411   8.429  65.319  1.00  0.00    -0.381 NA 
HETATM   18  N   UNL     1     -10.259  10.537  65.905  1.00  0.00    -0.256 NA 
HETATM   19  C   UNL     1     -10.498   7.913  69.468  1.00  0.00    -0.226 A  
HETATM   20  H1  UNL     1      -9.230   8.713  64.357  1.00  0.00     0.000 HD 
HETATM   21  N   UNL     1     -10.847   9.230  69.652  1.00  0.00    -0.231 NA 
HETATM   22  H2  UNL     1     -10.002   7.598  65.283  1.00  0.00     0.000 HD 
BRANCH  21  23
HETATM   23  C1* UNL     1     -11.334   9.771  70.899  1.00  0.00    -0.365 C  
HETATM   24  O4* UNL     1     -10.733   9.035  71.979  1.00  0.00    -0.349 OA 
HETATM   25  C4* UNL     1     -11.728   8.177  72.574  1.00  0.00    -0.394 C  
HETATM   26  C3* UNL     1     -13.110   8.662  72.110  1.00  0.00    -0.383 C  
HETATM   27  H2* UNL     1     -14.185  11.099  71.705  1.00  0.00     0.000 HD 
HETATM   28  C2* UNL     1     -12.847   9.787  71.106  1.00  0.00    -0.345 C  
HETATM   29  O2* UNL     1     -13.244  11.088  71.577  1.00  0.00    -0.388 OA 
HETATM   30  O3* UNL     1     -13.904   9.133  73.207  1.00  0.00    -1.118 OA 
HETATM   31  H3* UNL     1     -14.759   9.432  72.920  1.00  0.00     0.000 HD 
BRANCH  25  32
HETATM   32  C5* UNL     1     -11.419   6.720  72.200  1.00  0.00    -0.282 C  
HETATM   33  O5* UNL     1     -12.537   5.886  72.512  1.00  0.00    -0.508 OA 
HETATM   34  H5* UNL     1     -12.346   4.985  72.280  1.00  0.00     0.000 HD 
ENDBRANCH  25  32
ENDBRANCH  21  23
ENDBRANCH   8  11
ENDBRANCH   3   6
TORSDOF 4
ENDMDL
MODEL        4
REMARK 921   NORMALIZED FREE ENERGY PREDICTED BY IDOCK:   -8.40 KCAL/MOL
REMARK 922        TOTAL FREE ENERGY PREDICTED BY IDOCK:  -10.88 KCAL/MOL
REMARK 923 INTER-LIGAND FREE ENERGY PREDICTED BY IDOCK:  -10.15 KCAL/MOL
REMARK 924 INTRA-LIGAND FREE ENERGY PREDICTED BY IDOCK:   -0.73 KCAL/MOL
REMARK 927      BINDING AFFINITY PREDICTED BY RF-SCORE:    0.00 PKD
ROOT
HETATM    1  C   UNL     1      -5.660  20.499  69.371  1.00  0.00    -0.345 C  
HETATM    2  N   UNL     1      -6.760  19.737  68.843  1.00  0.00    -0.313 N  
HETATM    3  C   UNL     1      -7.564  20.226  67.836  1.00  0.00    -0.244 C  
HETATM    4  H   UNL     1      -6.950  18.810  69.224  1.00  0.00     0.000 HD 
HETATM    5  O   UNL     1      -7.410  21.328  67.322  1.00  0.00    -0.484 OA 
ENDROOT
BRANCH   3   6
HETATM    6  C   UNL     1      -8.621  19.319  67.411  1.00  0.00    -0.322 A  
HETATM    7  C   UNL     1      -9.023  18.133  67.991  1.00  0.00    -0.283 A  
HETATM    8  N   UNL     1     -10.041  17.605  67.221  1.00  0.00    -0.318 NA 
HETATM    9  N   UNL     1     -10.330  18.415  66.163  1.00  0.00    -0.464 NA 
HETATM   10  C   UNL     1      -9.482  19.440  66.295  1.00  0.00    -0.368 A  
BRANCH   8  11
HETATM   11  C   UNL     1     -10.668  16.328  67.452  1.00  0.00    -0.287 A  
HETATM   12  N   UNL     1     -10.281  15.273  66.690  1.00  0.00    -0.264 NA 
HETATM   13  C   UNL     1     -10.765  14.111  67.164  1.00  0.00    -0.280 A  
HETATM   14  C   UNL     1     -11.607  13.935  68.247  1.00  0.00    -0.337 A  
HETATM   15  N   UNL     1     -11.863  12.601  68.467  1.00  0.00    -0.317 NA 
HETATM   16  C   UNL     1     -12.027  15.097  68.907  1.00  0.00    -0.253 A  
HETATM   17  N   UNL     1     -12.910  15.088  69.978  1.00  0.00    -0.616 NA 
HETATM   18  N   UNL     1     -11.541  16.285  68.495  1.00  0.00    -0.285 NA 
HETATM   19  C   UNL     1     -11.152  11.972  67.558  1.00  0.00    -0.275 A  
HETATM   20  H1  UNL     1     -13.216  15.934  70.458  1.00  0.00     0.000 HD 
HETATM   21  N   UNL     1     -10.505  12.843  66.713  1.00  0.00    -0.252 NA 
HETATM   22  H2  UNL     1     -12.525  14.461  70.684  1.00  0.00     0.000 HD 
BRANCH  21  23
HETATM   23  C1* UNL     1      -9.679  12.431  65.604  1.00  0.00    -0.172 C  
HETATM   24  O4* UNL     1     -10.079  13.173  64.438  1.00  0.00    -0.334 OA 
HETATM   25  C4* UNL     1     -10.795  12.294  63.545  1.00  0.00    -0.454 C  
HETATM   26  C3* UNL     1     -10.510  10.847  63.975  1.00  0.00    -0.309 C  
HETATM   27  H2* UNL     1      -8.315   9.575  64.879  1.00  0.00     0.000 HD 
HETATM   28  C2* UNL     1      -9.676  10.944  65.256  1.00  0.00    -0.246 C  
HETATM   29  O2* UNL     1      -8.317  10.500  65.096  1.00  0.00    -0.164 OA 
HETATM   30  O3* UNL     1      -9.804  10.120  62.960  1.00  0.00    -0.479 OA 
HETATM   31  H3* UNL     1      -9.628   9.226  63.226  1.00  0.00     0.000 HD 
BRANCH  25  32
HETATM   32  C5* UNL     1     -12.284  12.670  63.563  1.00  0.00    -0.547 C  
HETATM   33  O5* UNL     1     -12.456  14.011  63.096  1.00  0.00    -1.137 OA 
HETATM   34  H5* UNL     1     -13.376  14.243  63.107  1.00  0.00     0.000 HD 
ENDBRANCH  25  32
ENDBRANCH  21  23
ENDBRANCH   8  11
ENDBRANCH   3   6
TORSDOF 4
ENDMDL
MODEL        5
REMARK 921   NORMALIZED FREE ENERGY PREDICTED BY IDOCK:   -8.39 KCAL/MOL
REMARK 922        TOTAL FREE ENERGY PREDICTED BY IDOCK:  -10.87 KCAL/MOL
REMARK 923 INTER-LIGAND FREE ENERGY PREDICTED BY IDOCK:  -10.36 KCAL/MOL
REMARK 924 INTRA-LIGAND FREE ENERGY PREDICTED BY IDOCK:   -0.50 KCAL/MOL
REMARK 927      BINDING AFFINITY PREDICTED BY RF-SCORE:    0.00 PKD
ROOT
HETATM    1  C   UNL     1     -12.433  16.539  74.566  1.00  0.00    -0.258 C  
HETATM    2  N   UNL     1     -12.174  15.924  73.292  1.00  0.00    -0.477 N  
HETATM    3  C   UNL     1     -13.194  15.601  72.422  1.00  0.00    -0.474 C  
HETATM    4  H   UNL     1     -11.211  15.722  73.024  1.00  0.00     0.000 HD 
HETATM    5  O   UNL     1     -14.378  15.807  72.662  1.00  0.00    -0.507 OA 
ENDROOT
BRANCH   3   6
HETATM    6  C   UNL     1     -12.754  15.000  71.171  1.00  0.00    -0.431 A  
HETATM    7  C   UNL     1     -12.598  13.664  70.865  1.00  0.00    -0.346 A  
HETATM    8  N   UNL     1     -12.131  13.575  69.568  1.00  0.00    -0.317 NA 
HETATM    9  N   UNL     1     -11.992  14.810  69.007  1.00  0.00    -0.295 NA 
HETATM   10  C   UNL     1     -12.377  15.652  69.972  1.00  0.00    -0.276 A  
BRANCH   8  11
HETATM   11  C   UNL     1     -11.762  12.346  68.910  1.00  0.00    -0.324 A  
HETATM   12  N   UNL     1     -11.693  12.337  67.555  1.00  0.00    -0.459 NA 
HETATM   13  C   UNL     1     -11.116  11.213  67.093  1.00  0.00    -0.287 A  
HETATM   14  C   UNL     1     -10.677  10.131  67.835  1.00  0.00    -0.269 A  
HETATM   15  N   UNL     1     -10.099   9.177  67.030  1.00  0.00    -0.227 NA 
HETATM   16  C   UNL     1     -10.884  10.198  69.218  1.00  0.00    -0.235 A  
HETATM   17  N   UNL     1     -10.544   9.173  70.091  1.00  0.00    -0.217 NA 
HETATM   18  N   UNL     1     -11.425  11.319  69.737  1.00  0.00    -0.297 NA 
HETATM   19  C   UNL     1     -10.144   9.690  65.821  1.00  0.00    -0.204 A  
HETATM   20  H1  UNL     1     -10.695   9.222  71.098  1.00  0.00     0.000 HD 
HETATM   21  N   UNL     1     -10.793  10.902  65.798  1.00  0.00    -0.115 NA 
HETATM   22  H2  UNL     1      -9.558   8.961  69.942  1.00  0.00     0.000 HD 
BRANCH  21  23
HETATM   23  C1* UNL     1     -11.017  11.677  64.600  1.00  0.00    -0.301 C  
HETATM   24  O4* UNL     1      -9.917  12.590  64.437  1.00  0.00    -0.265 OA 
HETATM   25  C4* UNL     1     -10.366  13.925  64.749  1.00  0.00    -0.394 C  
HETATM   26  C3* UNL     1     -11.901  13.924  64.739  1.00  0.00    -0.397 C  
HETATM   27  H2* UNL     1     -13.749  12.721  63.190  1.00  0.00     0.000 HD 
HETATM   28  C2* UNL     1     -12.321  12.468  64.519  1.00  0.00    -0.467 C  
HETATM   29  O2* UNL     1     -12.938  12.229  63.241  1.00  0.00    -0.707 OA 
HETATM   30  O3* UNL     1     -12.427  14.767  63.704  1.00  0.00    -1.064 OA 
HETATM   31  H3* UNL     1     -13.377  14.767  63.699  1.00  0.00     0.000 HD 
BRANCH  25  32
HETATM   32  C5* UNL     1      -9.749  14.358  66.087  1.00  0.00    -0.312 C  
HETATM   33  O5* UNL     1      -8.771  13.404  66.507  1.00  0.00    -0.440 OA 
HETATM   34  H5* UNL     1      -8.390  13.672  67.335  1.00  0.00     0.000 HD 
ENDBRANCH  25  32
ENDBRANCH  21  23
ENDBRANCH   8  11
ENDBRANCH   3   6
TORSDOF 4
ENDMDL
MODEL        6
REMARK 921   NORMALIZED FREE ENERGY PREDICTED BY IDOCK:   -8.38 KCAL/MOL
REMARK 922        TOTAL FREE ENERGY PREDICTED BY IDOCK:  -10.85 KCAL/MOL
REMARK 923 INTER-LIGAND FREE ENERGY PREDICTED BY IDOCK:  -10.50 KCAL/MOL
REMARK 924 INTRA-LIGAND FREE ENERGY PREDICTED BY IDOCK:   -0.35 KCAL/MOL
REMARK 927      BINDING AFFINITY PREDICTED BY RF-SCORE:    0.00 PKD
ROOT
HETATM    1  C   UNL     1     -13.923   9.022  71.971  1.00  0.00    -0.410 C  
HETATM    2  N   UNL     1     -13.468   9.654  70.762  1.00  0.00    -0.596 N  
HETATM    3  C   UNL     1     -12.156  10.044  70.596  1.00  0.00    -0.292 C  
HETATM    4  H   UNL     1     -14.134   9.820  70.007  1.00  0.00     0.000 HD 
HETATM    5  O   UNL     1     -11.291   9.887  71.449  1.00  0.00    -0.364 OA 
ENDROOT
BRANCH   3   6
HETATM    6  C   UNL     1     -11.865  10.655  69.307  1.00  0.00    -0.309 A  
HETATM    7  C   UNL     1     -11.901  11.989  68.957  1.00  0.00    -0.315 A  
HETATM    8  N   UNL     1     -11.578  12.088  67.618  1.00  0.00    -0.415 NA 
HETATM    9  N   UNL     1     -11.315  10.862  67.081  1.00  0.00    -0.406 NA 
HETATM   10  C   UNL     1     -11.480  10.016  68.103  1.00  0.00     0.132 A  
BRANCH   8  11
HETATM   11  C   UNL     1     -11.591  13.313  66.858  1.00  0.00    -0.364 A  
HETATM   12  N   UNL     1     -11.051  14.425  67.419  1.00  0.00    -0.298 NA 
HETATM   13  C   UNL     1     -10.918  15.420  66.525  1.00  0.00    -0.271 A  
HETATM   14  C   UNL     1     -11.312  15.413  65.199  1.00  0.00    -0.281 A  
HETATM   15  N   UNL     1     -10.978  16.592  64.574  1.00  0.00    -0.898 NA 
HETATM   16  C   UNL     1     -11.949  14.252  64.744  1.00  0.00    -0.440 A  
HETATM   17  N   UNL     1     -12.447  14.111  63.455  1.00  0.00    -1.116 NA 
HETATM   18  N   UNL     1     -12.076  13.210  65.590  1.00  0.00    -0.424 NA 
HETATM   19  C   UNL     1     -10.350  17.290  65.494  1.00  0.00    -0.092 A  
HETATM   20  H1  UNL     1     -12.911  13.265  63.124  1.00  0.00     0.000 HD 
HETATM   21  N   UNL     1     -10.327  16.644  66.707  1.00  0.00    -0.299 NA 
HETATM   22  H2  UNL     1     -11.682  14.309  62.810  1.00  0.00     0.000 HD 
BRANCH  21  23
HETATM   23  C1* UNL     1      -9.731  17.189  67.903  1.00  0.00    -0.270 C  
HETATM   24  O4* UNL     1     -10.466  18.367  68.281  1.00  0.00    -0.364 OA 
HETATM   25  C4* UNL     1      -9.669  19.533  67.988  1.00  0.00    -0.376 C  
HETATM   26  C3* UNL     1      -8.219  19.073  67.773  1.00  0.00    -0.276 C  
HETATM   27  H2* UNL     1      -6.660  17.222  68.957  1.00  0.00     0.000 HD 
HETATM   28  C2* UNL     1      -8.247  17.543  67.839  1.00  0.00    -0.231 C  
HETATM   29  O2* UNL     1      -7.583  17.002  68.996  1.00  0.00    -0.239 OA 
HETATM   30  O3* UNL     1      -7.337  19.611  68.767  1.00  0.00    -0.332 OA 
HETATM   31  H3* UNL     1      -6.440  19.327  68.633  1.00  0.00     0.000 HD 
BRANCH  25  32
HETATM   32  C5* UNL     1     -10.278  20.264  66.784  1.00  0.00    -0.362 C  
HETATM   33  O5* UNL     1      -9.295  20.423  65.758  1.00  0.00    -0.592 OA 
HETATM   34  H5* UNL     1      -9.672  20.875  65.013  1.00  0.00     0.000 HD 
ENDBRANCH  25  32
ENDBRANCH  21  23
ENDBRANCH   8  11
ENDBRANCH   3   6
TORSDOF 4
ENDMDL
MODEL        7
REMARK 921   NORMALIZED FREE ENERGY PREDICTED BY IDOCK:   -8.33 KCAL/MOL
REMARK 922        TOTAL FREE ENERGY PREDICTED BY IDOCK:  -10.80 KCAL/MOL
REMARK 923 INTER-LIGAND FREE ENERGY PREDICTED BY IDOCK:  -10.36 KCAL/MOL
REMARK 924 INTRA-LIGAND FREE ENERGY PREDICTED BY IDOCK:   -0.44 KCAL/MOL
REMARK 927      BINDING AFFINITY PREDICTED BY RF-SCORE:    0.00 PKD
ROOT
HETATM    1  C   UNL     1     -10.737   5.935  66.969  1.00  0.00    -0.318 C  
HETATM    2  N   UNL     1     -11.137   7.309  67.112  1.00  0.00    -0.563 N  
HETATM    3  C   UNL     1     -10.311   8.248  67.694  1.00  0.00    -0.248 C  
HETATM    4  H   UNL     1     -12.055   7.597  66.774  1.00  0.00     0.000 HD 
HETATM    5  O   UNL     1      -9.194   7.990  68.128  1.00  0.00    -0.134 OA 
ENDROOT
BRANCH   3   6
HETATM    6  C   UNL     1     -10.866   9.593  67.744  1.00  0.00    -0.278 A  
HETATM    7  C   UNL     1     -10.769  10.600  66.806  1.00  0.00    -0.210 A  
HETATM    8  N   UNL     1     -11.428  11.709  67.301  1.00  0.00    -0.466 NA 
HETATM    9  N   UNL     1     -11.966  11.456  68.528  1.00  0.00    -0.555 NA 
HETATM   10  C   UNL     1     -11.632  10.186  68.776  1.00  0.00     0.031 A  
BRANCH   8  11
HETATM   11  C   UNL     1     -11.477  12.994  66.649  1.00  0.00    -0.336 A  
HETATM   12  N   UNL     1     -10.945  14.064  67.294  1.00  0.00    -0.290 NA 
HETATM   13  C   UNL     1     -10.846  15.134  66.485  1.00  0.00    -0.317 A  
HETATM   14  C   UNL     1     -11.266  15.232  65.170  1.00  0.00    -0.370 A  
HETATM   15  N   UNL     1     -10.964  16.466  64.643  1.00  0.00    -0.730 NA 
HETATM   16  C   UNL     1     -11.891  14.102  64.629  1.00  0.00    -0.431 A  
HETATM   17  N   UNL     1     -12.411  14.062  63.342  1.00  0.00    -1.154 NA 
HETATM   18  N   UNL     1     -11.983  12.990  65.386  1.00  0.00    -0.387 NA 
HETATM   19  C   UNL     1     -10.330  17.095  65.607  1.00  0.00    -0.183 A  
HETATM   20  H1  UNL     1     -12.866  13.239  62.948  1.00  0.00     0.000 HD 
HETATM   21  N   UNL     1     -10.274  16.349  66.761  1.00  0.00    -0.279 NA 
HETATM   22  H2  UNL     1     -11.662  14.329  62.704  1.00  0.00     0.000 HD 
BRANCH  21  23
HETATM   23  C1* UNL     1      -9.664  16.802  67.988  1.00  0.00    -0.243 C  
HETATM   24  O4* UNL     1     -10.497  17.829  68.557  1.00  0.00    -0.366 OA 
HETATM   25  C4* UNL     1      -9.850  19.106  68.385  1.00  0.00    -0.404 C  
HETATM   26  C3* UNL     1      -8.376  18.849  68.038  1.00  0.00    -0.294 C  
HETATM   27  H2* UNL     1      -6.554  17.054  68.883  1.00  0.00     0.000 HD 
HETATM   28  C2* UNL     1      -8.234  17.330  67.899  1.00  0.00    -0.219 C  
HETATM   29  O2* UNL     1      -7.443  16.726  68.939  1.00  0.00    -0.220 OA 
HETATM   30  O3* UNL     1      -7.495  19.353  69.051  1.00  0.00    -0.358 OA 
HETATM   31  H3* UNL     1      -6.584  19.194  68.836  1.00  0.00     0.000 HD 
BRANCH  25  32
HETATM   32  C5* UNL     1     -10.612  19.911  67.321  1.00  0.00    -0.386 C  
HETATM   33  O5* UNL     1      -9.769  20.934  66.785  1.00  0.00    -0.646 OA 
HETATM   34  H5* UNL     1     -10.240  21.431  66.127  1.00  0.00     0.000 HD 
ENDBRANCH  25  32
ENDBRANCH  21  23
ENDBRANCH   8  11
ENDBRANCH   3   6
TORSDOF 4
ENDMDL
MODEL        8
REMARK 921   NORMALIZED FREE ENERGY PREDICTED BY IDOCK:   -8.26 KCAL/MOL
REMARK 922        TOTAL FREE ENERGY PREDICTED BY IDOCK:  -10.70 KCAL/MOL
REMARK 923 INTER-LIGAND FREE ENERGY PREDICTED BY IDOCK:  -10.15 KCAL/MOL
REMARK 924 INTRA-LIGAND FREE ENERGY PREDICTED BY IDOCK:   -0.55 KCAL/MOL
REMARK 927      BINDING AFFINITY PREDICTED BY RF-SCORE:    0.00 PKD
ROOT
HETATM    1  C   UNL     1      -5.777  21.374  64.171  1.00  0.00    -0.101 C  
HETATM    2  N   UNL     1      -6.766  20.795  65.040  1.00  0.00    -0.511 N  
HETATM    3  C   UNL     1      -6.680  19.487  65.466  1.00  0.00    -0.283 C  
HETATM    4  H   UNL     1      -7.551  21.368  65.350  1.00  0.00     0.000 HD 
HETATM    5  O   UNL     1      -5.774  18.728  65.143  1.00  0.00    -0.194 OA 
ENDROOT
BRANCH   3   6
HETATM    6  C   UNL     1      -7.756  19.069  66.354  1.00  0.00    -0.289 A  
HETATM    7  C   UNL     1      -8.264  17.802  66.554  1.00  0.00    -0.269 A  
HETATM    8  N   UNL     1      -9.297  17.896  67.466  1.00  0.00    -0.252 NA 
HETATM    9  N   UNL     1      -9.472  19.182  67.883  1.00  0.00    -0.310 NA 
HETATM   10  C   UNL     1      -8.538  19.870  67.219  1.00  0.00    -0.325 A  
BRANCH   8  11
HETATM   11  C   UNL     1     -10.138  16.797  67.871  1.00  0.00    -0.284 A  
HETATM   12  N   UNL     1     -10.155  15.680  67.099  1.00  0.00    -0.251 NA 
HETATM   13  C   UNL     1     -10.787  14.662  67.710  1.00  0.00    -0.267 A  
HETATM   14  C   UNL     1     -11.417  14.684  68.941  1.00  0.00    -0.298 A  
HETATM   15  N   UNL     1     -11.919  13.446  69.266  1.00  0.00    -0.325 NA 
HETATM   16  C   UNL     1     -11.427  15.913  69.614  1.00  0.00    -0.346 A  
HETATM   17  N   UNL     1     -12.062  16.108  70.833  1.00  0.00    -0.534 NA 
HETATM   18  N   UNL     1     -10.777  16.957  69.062  1.00  0.00    -0.328 NA 
HETATM   19  C   UNL     1     -11.560  12.669  68.268  1.00  0.00    -0.332 A  
HETATM   20  H1  UNL     1     -12.069  17.002  71.323  1.00  0.00     0.000 HD 
HETATM   21  N   UNL     1     -10.912  13.367  67.277  1.00  0.00    -0.269 NA 
HETATM   22  H2  UNL     1     -11.697  15.410  71.481  1.00  0.00     0.000 HD 
BRANCH  21  23
HETATM   23  C1* UNL     1     -10.434  12.775  66.051  1.00  0.00    -0.274 C  
HETATM   24  O4* UNL     1     -10.309  13.813  65.062  1.00  0.00    -0.359 OA 
HETATM   25  C4* UNL     1     -11.370  13.671  64.096  1.00  0.00    -0.304 C  
HETATM   26  C3* UNL     1     -11.969  12.265  64.252  1.00  0.00    -0.407 C  
HETATM   27  H2* UNL     1     -10.909   9.839  64.749  1.00  0.00     0.000 HD 
HETATM   28  C2* UNL     1     -11.264  11.638  65.459  1.00  0.00    -0.205 C  
HETATM   29  O2* UNL     1     -10.392  10.546  65.117  1.00  0.00    -0.304 OA 
HETATM   30  O3* UNL     1     -11.770  11.469  63.076  1.00  0.00    -0.872 OA 
HETATM   31  H3* UNL     1     -12.141  10.600  63.172  1.00  0.00     0.000 HD 
BRANCH  25  32
HETATM   32  C5* UNL     1     -12.383  14.807  64.297  1.00  0.00    -0.320 C  
HETATM   33  O5* UNL     1     -11.859  16.029  63.773  1.00  0.00    -1.334 OA 
HETATM   34  H5* UNL     1     -12.485  16.732  63.897  1.00  0.00     0.000 HD 
ENDBRANCH  25  32
ENDBRANCH  21  23
ENDBRANCH   8  11
ENDBRANCH   3   6
TORSDOF 4
ENDMDL
MODEL        9
REMARK 921   NORMALIZED FREE ENERGY PREDICTED BY IDOCK:   -8.18 KCAL/MOL
REMARK 922        TOTAL FREE ENERGY PREDICTED BY IDOCK:  -10.61 KCAL/MOL
REMARK 923 INTER-LIGAND FREE ENERGY PREDICTED BY IDOCK:   -9.73 KCAL/MOL
REMARK 924 INTRA-LIGAND FREE ENERGY PREDICTED BY IDOCK:   -0.87 KCAL/MOL
REMARK 927      BINDING AFFINITY PREDICTED BY RF-SCORE:    0.00 PKD
ROOT
HETATM    1  C   UNL     1     -13.826   7.812  71.535  1.00  0.00    -0.358 C  
HETATM    2  N   UNL     1     -13.650   9.176  71.114  1.00  0.00    -0.569 N  
HETATM    3  C   UNL     1     -12.447   9.832  71.263  1.00  0.00    -0.367 C  
HETATM    4  H   UNL     1     -14.436   9.672  70.694  1.00  0.00     0.000 HD 
HETATM    5  O   UNL     1     -11.451   9.316  71.757  1.00  0.00    -0.366 OA 
ENDROOT
BRANCH   3   6
HETATM    6  C   UNL     1     -12.439  11.202  70.769  1.00  0.00    -0.479 A  
HETATM    7  C   UNL     1     -12.107  11.663  69.512  1.00  0.00    -0.270 A  
HETATM    8  N   UNL     1     -12.219  13.040  69.519  1.00  0.00    -0.203 NA 
HETATM    9  N   UNL     1     -12.630  13.496  70.737  1.00  0.00    -0.331 NA 
HETATM   10  C   UNL     1     -12.768  12.387  71.471  1.00  0.00    -0.228 A  
BRANCH   8  11
HETATM   11  C   UNL     1     -11.873  13.898  68.413  1.00  0.00    -0.374 A  
HETATM   12  N   UNL     1     -11.040  14.944  68.646  1.00  0.00    -0.251 NA 
HETATM   13  C   UNL     1     -10.619  15.510  67.500  1.00  0.00    -0.297 A  
HETATM   14  C   UNL     1     -10.989  15.168  66.212  1.00  0.00    -0.335 A  
HETATM   15  N   UNL     1     -10.325  15.935  65.283  1.00  0.00    -0.493 NA 
HETATM   16  C   UNL     1     -11.930  14.138  66.085  1.00  0.00    -0.422 A  
HETATM   17  N   UNL     1     -12.437  13.715  64.864  1.00  0.00    -0.568 NA 
HETATM   18  N   UNL     1     -12.357  13.512  67.201  1.00  0.00    -0.262 NA 
HETATM   19  C   UNL     1      -9.529  16.703  65.994  1.00  0.00    -0.251 A  
HETATM   20  H1  UNL     1     -13.121  12.965  64.772  1.00  0.00     0.000 HD 
HETATM   21  N   UNL     1      -9.703  16.518  67.345  1.00  0.00    -0.243 NA 
HETATM   22  H2  UNL     1     -11.642  13.474  64.272  1.00  0.00     0.000 HD 
BRANCH  21  23
HETATM   23  C1* UNL     1      -8.985  17.249  68.361  1.00  0.00    -0.269 C  
HETATM   24  O4* UNL     1      -9.844  18.285  68.870  1.00  0.00    -0.362 OA 
HETATM   25  C4* UNL     1      -9.385  19.560  68.376  1.00  0.00    -0.367 C  
HETATM   26  C3* UNL     1      -7.955  19.377  67.847  1.00  0.00    -0.300 C  
HETATM   27  H2* UNL     1      -5.831  17.949  68.686  1.00  0.00     0.000 HD 
HETATM   28  C2* UNL     1      -7.655  17.879  67.953  1.00  0.00    -0.221 C  
HETATM   29  O2* UNL     1      -6.658  17.558  68.940  1.00  0.00    -0.205 OA 
HETATM   30  O3* UNL     1      -7.006  20.143  68.602  1.00  0.00    -0.297 OA 
HETATM   31  H3* UNL     1      -6.122  20.029  68.273  1.00  0.00     0.000 HD 
BRANCH  25  32
HETATM   32  C5* UNL     1     -10.380  20.076  67.326  1.00  0.00    -0.410 C  
HETATM   33  O5* UNL     1      -9.698  20.357  66.102  1.00  0.00    -0.636 OA 
HETATM   34  H5* UNL     1     -10.313  20.675  65.452  1.00  0.00     0.000 HD 
ENDBRANCH  25  32
ENDBRANCH  21  23
ENDBRANCH   8  11
ENDBRANCH   3   6
TORSDOF 4
ENDMDL
MODEL       10
REMARK 921   NORMALIZED FREE ENERGY PREDICTED BY IDOCK:   -8.07 KCAL/MOL
REMARK 922        TOTAL FREE ENERGY PREDICTED BY IDOCK:  -10.46 KCAL/MOL
REMARK 923 INTER-LIGAND FREE ENERGY PREDICTED BY IDOCK:   -9.80 KCAL/MOL
REMARK 924 INTRA-LIGAND FREE ENERGY PREDICTED BY IDOCK:   -0.67 KCAL/MOL
REMARK 927      BINDING AFFINITY PREDICTED BY RF-SCORE:    0.00 PKD
ROOT
HETATM    1  C   UNL     1     -11.417   6.594  70.101  1.00  0.00    -0.385 C  
HETATM    2  N   UNL     1     -11.645   8.000  69.902  1.00  0.00    -0.440 N  
HETATM    3  C   UNL     1     -11.764   8.873  70.963  1.00  0.00    -0.289 C  
HETATM    4  H   UNL     1     -11.720   8.362  68.952  1.00  0.00     0.000 HD 
HETATM    5  O   UNL     1     -11.688   8.526  72.136  1.00  0.00    -0.333 OA 
ENDROOT
BRANCH   3   6
HETATM    6  C   UNL     1     -11.976  10.262  70.582  1.00  0.00    -0.436 A  
HETATM    7  C   UNL     1     -11.718  10.873  69.372  1.00  0.00    -0.325 A  
HETATM    8  N   UNL     1     -12.051  12.209  69.489  1.00  0.00    -0.244 NA 
HETATM    9  N   UNL     1     -12.533  12.490  70.733  1.00  0.00    -0.325 NA 
HETATM   10  C   UNL     1     -12.493  11.317  71.372  1.00  0.00    -0.287 A  
BRANCH   8  11
HETATM   11  C   UNL     1     -11.844  13.199  68.462  1.00  0.00    -0.342 A  
HETATM   12  N   UNL     1     -11.114  14.302  68.768  1.00  0.00    -0.245 NA 
HETATM   13  C   UNL     1     -10.805  15.015  67.671  1.00  0.00    -0.291 A  
HETATM   14  C   UNL     1     -11.194  14.759  66.368  1.00  0.00    -0.342 A  
HETATM   15  N   UNL     1     -10.654  15.677  65.497  1.00  0.00    -0.379 NA 
HETATM   16  C   UNL     1     -12.028  13.651  66.173  1.00  0.00    -0.416 A  
HETATM   17  N   UNL     1     -12.542  13.293  64.933  1.00  0.00    -0.636 NA 
HETATM   18  N   UNL     1     -12.339  12.881  67.235  1.00  0.00    -0.256 NA 
HETATM   19  C   UNL     1      -9.911  16.455  66.253  1.00  0.00    -0.323 A  
HETATM   20  H1  UNL     1     -13.150  12.487  64.791  1.00  0.00     0.000 HD 
HETATM   21  N   UNL     1     -10.005  16.125  67.584  1.00  0.00    -0.238 NA 
HETATM   22  H2  UNL     1     -11.754  13.196  64.294  1.00  0.00     0.000 HD 
BRANCH  21  23
HETATM   23  C1* UNL     1      -9.321  16.830  68.642  1.00  0.00    -0.252 C  
HETATM   24  O4* UNL     1     -10.151  17.924  69.071  1.00  0.00    -0.359 OA 
HETATM   25  C4* UNL     1      -9.580  19.161  68.597  1.00  0.00    -0.413 C  
HETATM   26  C3* UNL     1      -8.128  18.883  68.180  1.00  0.00    -0.302 C  
HETATM   27  H2* UNL     1      -6.164  17.344  69.197  1.00  0.00     0.000 HD 
HETATM   28  C2* UNL     1      -7.928  17.371  68.328  1.00  0.00    -0.253 C  
HETATM   29  O2* UNL     1      -7.030  17.008  69.392  1.00  0.00    -0.226 OA 
HETATM   30  O3* UNL     1      -7.193  19.603  68.995  1.00  0.00    -0.351 OA 
HETATM   31  H3* UNL     1      -6.295  19.431  68.736  1.00  0.00     0.000 HD 
BRANCH  25  32
HETATM   32  C5* UNL     1     -10.459  19.716  67.468  1.00  0.00    -0.458 C  
HETATM   33  O5* UNL     1      -9.760  20.746  66.764  1.00  0.00    -0.649 OA 
HETATM   34  H5* UNL     1     -10.304  21.089  66.065  1.00  0.00     0.000 HD 
ENDBRANCH  25  32
ENDBRANCH  21  23
ENDBRANCH   8  11
ENDBRANCH   3   6
TORSDOF 4
ENDMDL
MODEL       11
REMARK 921   NORMALIZED FREE ENERGY PREDICTED BY IDOCK:   -7.95 KCAL/MOL
REMARK 922        TOTAL FREE ENERGY PREDICTED BY IDOCK:  -10.32 KCAL/MOL
REMARK 923 INTER-LIGAND FREE ENERGY PREDICTED BY IDOCK:   -9.94 KCAL/MOL
REMARK 924 INTRA-LIGAND FREE ENERGY PREDICTED BY IDOCK:   -0.37 KCAL/MOL
REMARK 927      BINDING AFFINITY PREDICTED BY RF-SCORE:    0.00 PKD
ROOT
HETATM    1  C   UNL     1     -10.926   5.919  69.805  1.00  0.00    -0.382 C  
HETATM    2  N   UNL     1     -11.391   7.243  70.122  1.00  0.00    -0.417 N  
HETATM    3  C   UNL     1     -12.227   7.481  71.192  1.00  0.00    -0.301 C  
HETATM    4  H   UNL     1     -11.096   8.026  69.539  1.00  0.00     0.000 HD 
HETATM    5  O   UNL     1     -12.632   6.601  71.943  1.00  0.00    -0.350 OA 
ENDROOT
BRANCH   3   6
HETATM    6  C   UNL     1     -12.588   8.879  71.378  1.00  0.00    -0.351 A  
HETATM    7  C   UNL     1     -12.072   9.993  70.749  1.00  0.00    -0.327 A  
HETATM    8  N   UNL     1     -12.701  11.107  71.270  1.00  0.00    -0.422 NA 
HETATM    9  N   UNL     1     -13.625  10.758  72.209  1.00  0.00    -0.089 NA 
HETATM   10  C   UNL     1     -13.555   9.424  72.256  1.00  0.00    -0.462 A  
BRANCH   8  11
HETATM   11  C   UNL     1     -12.375  12.470  70.928  1.00  0.00    -0.255 A  
HETATM   12  N   UNL     1     -11.628  12.694  69.818  1.00  0.00    -0.253 NA 
HETATM   13  C   UNL     1     -11.600  13.999  69.491  1.00  0.00    -0.295 A  
HETATM   14  C   UNL     1     -12.181  15.048  70.181  1.00  0.00    -0.343 A  
HETATM   15  N   UNL     1     -11.983  16.243  69.529  1.00  0.00    -0.053 NA 
HETATM   16  C   UNL     1     -12.847  14.720  71.368  1.00  0.00    -0.336 A  
HETATM   17  N   UNL     1     -13.438  15.665  72.197  1.00  0.00    -0.476 NA 
HETATM   18  N   UNL     1     -12.936  13.422  71.723  1.00  0.00    -0.355 NA 
HETATM   19  C   UNL     1     -11.329  15.921  68.435  1.00  0.00    -0.361 A  
HETATM   20  H1  UNL     1     -13.923  15.426  73.061  1.00  0.00     0.000 HD 
HETATM   21  N   UNL     1     -11.031  14.579  68.388  1.00  0.00    -0.237 NA 
HETATM   22  H2  UNL     1     -14.086  16.208  71.626  1.00  0.00     0.000 HD 
BRANCH  21  23
HETATM   23  C1* UNL     1     -10.293  13.952  67.317  1.00  0.00    -0.257 C  
HETATM   24  O4* UNL     1      -9.574  14.973  66.602  1.00  0.00    -0.237 OA 
HETATM   25  C4* UNL     1     -10.210  15.189  65.325  1.00  0.00    -0.368 C  
HETATM   26  C3* UNL     1     -11.139  13.997  65.051  1.00  0.00    -0.363 C  
HETATM   27  H2* UNL     1     -10.941  11.347  65.491  1.00  0.00     0.000 HD 
HETATM   28  C2* UNL     1     -11.094  13.128  66.311  1.00  0.00    -0.287 C  
HETATM   29  O2* UNL     1     -10.443  11.860  66.117  1.00  0.00    -0.224 OA 
HETATM   30  O3* UNL     1     -10.719  13.250  63.901  1.00  0.00    -0.528 OA 
HETATM   31  H3* UNL     1     -11.294  12.513  63.731  1.00  0.00     0.000 HD 
BRANCH  25  32
HETATM   32  C5* UNL     1     -10.926  16.547  65.349  1.00  0.00    -0.131 C  
HETATM   33  O5* UNL     1     -11.525  16.807  64.077  1.00  0.00    -1.481 OA 
HETATM   34  H5* UNL     1     -11.968  17.647  64.092  1.00  0.00     0.000 HD 
ENDBRANCH  25  32
ENDBRANCH  21  23
ENDBRANCH   8  11
ENDBRANCH   3   6
TORSDOF 4
ENDMDL
MODEL       12
REMARK 921   NORMALIZED FREE ENERGY PREDICTED BY IDOCK:   -7.92 KCAL/MOL
REMARK 922        TOTAL FREE ENERGY PREDICTED BY IDOCK:  -10.29 KCAL/MOL
REMARK 923 INTER-LIGAND FREE ENERGY PREDICTED BY IDOCK:   -9.50 KCAL/MOL
REMARK 924 INTRA-LIGAND FREE ENERGY PREDICTED BY IDOCK:   -0.79 KCAL/MOL
REMARK 927      BINDING AFFINITY PREDICTED BY RF-SCORE:    0.00 PKD
ROOT
HETATM    1  C   UNL     1     -12.407  15.854  71.998  1.00  0.00    -0.475 C  
HETATM    2  N   UNL     1     -12.152  14.556  71.434  1.00  0.00    -0.354 N  
HETATM    3  C   UNL     1     -12.990  13.487  71.668  1.00  0.00    -0.359 C  
HETATM    4  H   UNL     1     -11.330  14.423  70.845  1.00  0.00     0.000 HD 
HETATM    5  O   UNL     1     -13.998  13.555  72.362  1.00  0.00    -0.608 OA 
ENDROOT
BRANCH   3   6
HETATM    6  C   UNL     1     -12.593  12.251  71.007  1.00  0.00    -0.352 A  
HETATM    7  C   UNL     1     -11.834  12.090  69.866  1.00  0.00    -0.331 A  
HETATM    8  N   UNL     1     -11.744  10.737  69.602  1.00  0.00    -0.298 NA 
HETATM    9  N   UNL     1     -12.405  10.005  70.542  1.00  0.00    -0.238 NA 
HETATM   10  C   UNL     1     -12.899  10.921  71.382  1.00  0.00    -0.449 A  
BRANCH   8  11
HETATM   11  C   UNL     1     -11.103  10.168  68.442  1.00  0.00    -0.218 A  
HETATM   12  N   UNL     1     -11.290  10.772  67.241  1.00  0.00    -0.410 NA 
HETATM   13  C   UNL     1     -10.458  10.285  66.303  1.00  0.00    -0.144 A  
HETATM   14  C   UNL     1      -9.541   9.259  66.448  1.00  0.00    -0.238 A  
HETATM   15  N   UNL     1      -8.831   9.059  65.287  1.00  0.00    -0.193 NA 
HETATM   16  C   UNL     1      -9.495   8.636  67.701  1.00  0.00    -0.141 A  
HETATM   17  N   UNL     1      -8.664   7.561  67.988  1.00  0.00    -0.122 NA 
HETATM   18  N   UNL     1     -10.283   9.110  68.688  1.00  0.00    -0.199 NA 
HETATM   19  C   UNL     1      -9.278   9.979  64.461  1.00  0.00    -0.262 A  
HETATM   20  H1  UNL     1      -8.631   7.108  68.900  1.00  0.00     0.000 HD 
HETATM   21  N   UNL     1     -10.298  10.717  65.013  1.00  0.00    -0.303 NA 
HETATM   22  H2  UNL     1      -7.712   7.841  67.753  1.00  0.00     0.000 HD 
BRANCH  21  23
HETATM   23  C1* UNL     1     -10.996  11.775  64.321  1.00  0.00    -0.359 C  
HETATM   24  O4* UNL     1     -10.179  12.958  64.354  1.00  0.00    -0.362 OA 
HETATM   25  C4* UNL     1     -10.756  13.902  65.279  1.00  0.00    -0.345 C  
HETATM   26  C3* UNL     1     -12.202  13.466  65.560  1.00  0.00    -0.455 C  
HETATM   27  H2* UNL     1     -14.162  12.432  64.029  1.00  0.00     0.000 HD 
HETATM   28  C2* UNL     1     -12.391  12.134  64.830  1.00  0.00    -0.230 C  
HETATM   29  O2* UNL     1     -13.295  12.209  63.713  1.00  0.00    -0.701 OA 
HETATM   30  O3* UNL     1     -13.150  14.439  65.099  1.00  0.00    -0.633 OA 
HETATM   31  H3* UNL     1     -14.044  14.170  65.274  1.00  0.00     0.000 HD 
BRANCH  25  32
HETATM   32  C5* UNL     1      -9.871  13.977  66.532  1.00  0.00    -0.290 C  
HETATM   33  O5* UNL     1      -8.686  13.201  66.342  1.00  0.00    -0.430 OA 
HETATM   34  H5* UNL     1      -8.138  13.248  67.116  1.00  0.00     0.000 HD 
ENDBRANCH  25  32
ENDBRANCH  21  23
ENDBRANCH   8  11
ENDBRANCH   3   6
TORSDOF 4
ENDMDL
MODEL       13
REMARK 921   NORMALIZED FREE ENERGY PREDICTED BY IDOCK:   -7.88 KCAL/MOL
REMARK 922        TOTAL FREE ENERGY PREDICTED BY IDOCK:  -10.23 KCAL/MOL
REMARK 923 INTER-LIGAND FREE ENERGY PREDICTED BY IDOCK:   -9.44 KCAL/MOL
REMARK 924 INTRA-LIGAND FREE ENERGY PREDICTED BY IDOCK:   -0.79 KCAL/MOL
REMARK 927      BINDING AFFINITY PREDICTED BY RF-SCORE:    0.00 PKD
ROOT
HETATM    1  C   UNL     1      -6.201  21.132  66.107  1.00  0.00    -0.240 C  
HETATM    2  N   UNL     1      -7.367  20.498  66.659  1.00  0.00    -0.410 N  
HETATM    3  C   UNL     1      -7.756  19.232  66.274  1.00  0.00    -0.289 C  
HETATM    4  H   UNL     1      -7.922  20.997  67.354  1.00  0.00     0.000 HD 
HETATM    5  O   UNL     1      -7.151  18.561  65.446  1.00  0.00    -0.530 OA 
ENDROOT
BRANCH   3   6
HETATM    6  C   UNL     1      -8.950  18.736  66.944  1.00  0.00    -0.302 A  
HETATM    7  C   UNL     1      -9.124  17.551  67.629  1.00  0.00    -0.243 A  
HETATM    8  N   UNL     1     -10.434  17.500  68.066  1.00  0.00    -0.373 NA 
HETATM    9  N   UNL     1     -11.120  18.621  67.704  1.00  0.00    -0.152 NA 
HETATM   10  C   UNL     1     -10.219  19.355  67.043  1.00  0.00    -0.408 A  
BRANCH   8  11
HETATM   11  C   UNL     1     -11.028  16.377  68.748  1.00  0.00    -0.344 A  
HETATM   12  N   UNL     1     -11.294  15.255  68.033  1.00  0.00    -0.330 NA 
HETATM   13  C   UNL     1     -11.621  14.222  68.829  1.00  0.00    -0.322 A  
HETATM   14  C   UNL     1     -11.751  14.234  70.206  1.00  0.00    -0.275 A  
HETATM   15  N   UNL     1     -12.055  12.982  70.688  1.00  0.00    -0.319 NA 
HETATM   16  C   UNL     1     -11.550  15.466  70.841  1.00  0.00    -0.358 A  
HETATM   17  N   UNL     1     -11.694  15.651  72.209  1.00  0.00    -0.453 NA 
HETATM   18  N   UNL     1     -11.185  16.527  70.092  1.00  0.00    -0.256 NA 
HETATM   19  C   UNL     1     -12.067  12.209  69.625  1.00  0.00    -0.218 A  
HETATM   20  H1  UNL     1     -11.548  16.548  72.671  1.00  0.00     0.000 HD 
HETATM   21  N   UNL     1     -11.856  12.921  68.467  1.00  0.00    -0.323 NA 
HETATM   22  H2  UNL     1     -11.092  14.970  72.673  1.00  0.00     0.000 HD 
BRANCH  21  23
HETATM   23  C1* UNL     1     -11.847  12.334  67.148  1.00  0.00    -0.258 C  
HETATM   24  O4* UNL     1     -10.608  11.625  66.974  1.00  0.00    -0.218 OA 
HETATM   25  C4* UNL     1      -9.763  12.369  66.071  1.00  0.00    -0.244 C  
HETATM   26  C3* UNL     1     -10.640  13.396  65.340  1.00  0.00    -0.303 C  
HETATM   27  H2* UNL     1     -13.141  13.328  64.341  1.00  0.00     0.000 HD 
HETATM   28  C2* UNL     1     -12.033  13.283  65.966  1.00  0.00    -0.423 C  
HETATM   29  O2* UNL     1     -13.025  12.738  65.077  1.00  0.00    -0.811 OA 
HETATM   30  O3* UNL     1     -10.693  13.141  63.929  1.00  0.00    -0.501 OA 
HETATM   31  H3* UNL     1     -11.235  13.777  63.477  1.00  0.00     0.000 HD 
BRANCH  25  32
HETATM   32  C5* UNL     1      -8.607  12.989  66.869  1.00  0.00    -0.119 C  
HETATM   33  O5* UNL     1      -8.519  14.390  66.595  1.00  0.00    -0.417 OA 
HETATM   34  H5* UNL     1      -7.804  14.774  67.088  1.00  0.00     0.000 HD 
ENDBRANCH  25  32
ENDBRANCH  21  23
ENDBRANCH   8  11
ENDBRANCH   3   6
TORSDOF 4
ENDMDL
MODEL       14
REMARK 921   NORMALIZED FREE ENERGY PREDICTED BY IDOCK:   -7.78 KCAL/MOL
REMARK 922        TOTAL FREE ENERGY PREDICTED BY IDOCK:  -10.11 KCAL/MOL
REMARK 923 INTER-LIGAND FREE ENERGY PREDICTED BY IDOCK:   -9.19 KCAL/MOL
REMARK 924 INTRA-LIGAND FREE ENERGY PREDICTED BY IDOCK:   -0.92 KCAL/MOL
REMARK 927      BINDING AFFINITY PREDICTED BY RF-SCORE:    0.00 PKD
ROOT
HETATM    1  C   UNL     1      -5.304  14.232  71.743  1.00  0.00    -0.197 C  
HETATM    2  N   UNL     1      -6.181  14.642  70.680  1.00  0.00    -0.158 N  
HETATM    3  C   UNL     1      -6.056  15.872  70.069  1.00  0.00    -0.138 C  
HETATM    4  H   UNL     1      -6.915  14.006  70.368  1.00  0.00     0.000 HD 
HETATM    5  O   UNL     1      -5.205  16.697  70.380  1.00  0.00    -0.184 OA 
ENDROOT
BRANCH   3   6
HETATM    6  C   UNL     1      -7.015  16.117  69.002  1.00  0.00    -0.178 A  
HETATM    7  C   UNL     1      -7.880  15.227  68.398  1.00  0.00    -0.122 A  
HETATM    8  N   UNL     1      -8.575  15.907  67.417  1.00  0.00    -0.167 NA 
HETATM    9  N   UNL     1      -8.205  17.218  67.368  1.00  0.00    -0.189 NA 
HETATM   10  C   UNL     1      -7.281  17.333  68.327  1.00  0.00    -0.211 A  
BRANCH   8  11
HETATM   11  C   UNL     1      -9.513  15.300  66.506  1.00  0.00    -0.283 A  
HETATM   12  N   UNL     1      -9.852  14.000  66.700  1.00  0.00    -0.275 NA 
HETATM   13  C   UNL     1     -10.897  13.637  65.936  1.00  0.00    -0.275 A  
HETATM   14  C   UNL     1     -11.560  14.412  65.001  1.00  0.00    -0.374 A  
HETATM   15  N   UNL     1     -12.610  13.724  64.439  1.00  0.00    -0.666 NA 
HETATM   16  C   UNL     1     -11.070  15.709  64.805  1.00  0.00    -0.412 A  
HETATM   17  N   UNL     1     -11.595  16.590  63.869  1.00  0.00    -1.578 NA 
HETATM   18  N   UNL     1     -10.046  16.136  65.573  1.00  0.00    -0.503 NA 
HETATM   19  C   UNL     1     -12.614  12.562  65.054  1.00  0.00    -0.345 A  
HETATM   20  H1  UNL     1     -11.238  17.534  63.727  1.00  0.00     0.000 HD 
HETATM   21  N   UNL     1     -11.567  12.442  65.937  1.00  0.00    -0.379 NA 
HETATM   22  H2  UNL     1     -12.595  16.668  64.053  1.00  0.00     0.000 HD 
BRANCH  21  23
HETATM   23  C1* UNL     1     -11.308  11.262  66.728  1.00  0.00    -0.111 C  
HETATM   24  O4* UNL     1     -12.209  11.258  67.849  1.00  0.00    -0.570 OA 
HETATM   25  C4* UNL     1     -11.471  11.577  69.046  1.00  0.00    -0.291 C  
HETATM   26  C3* UNL     1      -9.976  11.401  68.742  1.00  0.00    -0.177 C  
HETATM   27  H2* UNL     1      -8.571   9.611  67.299  1.00  0.00     0.000 HD 
HETATM   28  C2* UNL     1      -9.885  11.075  67.249  1.00  0.00    -0.178 C  
HETATM   29  O2* UNL     1      -9.456   9.728  66.975  1.00  0.00    -0.149 OA 
HETATM   30  O3* UNL     1      -9.392  10.353  69.529  1.00  0.00    -0.311 OA 
HETATM   31  H3* UNL     1      -8.468  10.245  69.341  1.00  0.00     0.000 HD 
BRANCH  25  32
HETATM   32  C5* UNL     1     -11.853  12.991  69.506  1.00  0.00    -0.323 C  
HETATM   33  O5* UNL     1     -10.676  13.783  69.683  1.00  0.00    -0.447 OA 
HETATM   34  H5* UNL     1     -10.912  14.658  69.967  1.00  0.00     0.000 HD 
ENDBRANCH  25  32
ENDBRANCH  21  23
ENDBRANCH   8  11
ENDBRANCH   3   6
TORSDOF 4
ENDMDL
MODEL       15
REMARK 921   NORMALIZED FREE ENERGY PREDICTED BY IDOCK:   -7.77 KCAL/MOL
REMARK 922        TOTAL FREE ENERGY PREDICTED BY IDOCK:  -10.10 KCAL/MOL
REMARK 923 INTER-LIGAND FREE ENERGY PREDICTED BY IDOCK:  -10.00 KCAL/MOL
REMARK 924 INTRA-LIGAND FREE ENERGY PREDICTED BY IDOCK:   -0.10 KCAL/MOL
REMARK 927      BINDING AFFINITY PREDICTED BY RF-SCORE:    0.00 PKD
ROOT
HETATM    1  C   UNL     1     -12.097   6.824  71.124  1.00  0.00    -0.370 C  
HETATM    2  N   UNL     1     -11.683   7.885  70.244  1.00  0.00    -0.474 N  
HETATM    3  C   UNL     1     -11.164   9.067  70.728  1.00  0.00    -0.275 C  
HETATM    4  H   UNL     1     -11.777   7.760  69.237  1.00  0.00     0.000 HD 
HETATM    5  O   UNL     1     -11.017   9.303  71.921  1.00  0.00    -0.363 OA 
ENDROOT
BRANCH   3   6
HETATM    6  C   UNL     1     -10.782  10.025  69.700  1.00  0.00    -0.282 A  
HETATM    7  C   UNL     1     -11.583  10.905  69.003  1.00  0.00    -0.316 A  
HETATM    8  N   UNL     1     -10.785  11.592  68.109  1.00  0.00    -0.203 NA 
HETATM    9  N   UNL     1      -9.483  11.202  68.208  1.00  0.00    -0.175 NA 
HETATM   10  C   UNL     1      -9.493  10.273  69.170  1.00  0.00    -0.215 A  
BRANCH   8  11
HETATM   11  C   UNL     1     -11.269  12.543  67.139  1.00  0.00    -0.300 A  
HETATM   12  N   UNL     1     -10.756  13.800  67.157  1.00  0.00    -0.280 NA 
HETATM   13  C   UNL     1     -11.115  14.500  66.067  1.00  0.00    -0.329 A  
HETATM   14  C   UNL     1     -11.947  14.087  65.041  1.00  0.00    -0.401 A  
HETATM   15  N   UNL     1     -12.056  15.053  64.068  1.00  0.00    -0.516 NA 
HETATM   16  C   UNL     1     -12.503  12.808  65.167  1.00  0.00    -0.501 A  
HETATM   17  N   UNL     1     -13.394  12.270  64.247  1.00  0.00    -0.622 NA 
HETATM   18  N   UNL     1     -12.147  12.049  66.223  1.00  0.00    -0.528 NA 
HETATM   19  C   UNL     1     -11.266  16.023  64.473  1.00  0.00    -0.297 A  
HETATM   20  H1  UNL     1     -13.798  11.339  64.339  1.00  0.00     0.000 HD 
HETATM   21  N   UNL     1     -10.709  15.757  65.701  1.00  0.00    -0.348 NA 
HETATM   22  H2  UNL     1     -12.951  12.320  63.330  1.00  0.00     0.000 HD 
BRANCH  21  23
HETATM   23  C1* UNL     1      -9.827  16.660  66.401  1.00  0.00    -0.292 C  
HETATM   24  O4* UNL     1      -9.623  16.156  67.733  1.00  0.00    -0.221 OA 
HETATM   25  C4* UNL     1     -10.348  16.986  68.665  1.00  0.00    -0.351 C  
HETATM   26  C3* UNL     1     -10.715  18.294  67.948  1.00  0.00    -0.311 C  
HETATM   27  H2* UNL     1      -9.425  19.875  66.190  1.00  0.00     0.000 HD 
HETATM   28  C2* UNL     1     -10.261  18.121  66.496  1.00  0.00    -0.391 C  
HETATM   29  O2* UNL     1      -9.155  18.967  66.131  1.00  0.00    -0.434 OA 
HETATM   30  O3* UNL     1     -10.077  19.428  68.551  1.00  0.00    -0.400 OA 
HETATM   31  H3* UNL     1     -10.304  20.237  68.108  1.00  0.00     0.000 HD 
BRANCH  25  32
HETATM   32  C5* UNL     1     -11.558  16.202  69.194  1.00  0.00    -0.285 C  
HETATM   33  O5* UNL     1     -11.666  16.366  70.610  1.00  0.00    -0.516 OA 
HETATM   34  H5* UNL     1     -12.415  15.882  70.937  1.00  0.00     0.000 HD 
ENDBRANCH  25  32
ENDBRANCH  21  23
ENDBRANCH   8  11
ENDBRANCH   3   6
TORSDOF 4
ENDMDL
MODEL       16
REMARK 921   NORMALIZED FREE ENERGY PREDICTED BY IDOCK:   -7.70 KCAL/MOL
REMARK 922        TOTAL FREE ENERGY PREDICTED BY IDOCK:  -10.01 KCAL/MOL
REMARK 923 INTER-LIGAND FREE ENERGY PREDICTED BY IDOCK:   -9.37 KCAL/MOL
REMARK 924 INTRA-LIGAND FREE ENERGY PREDICTED BY IDOCK:   -0.64 KCAL/MOL
REMARK 927      BINDING AFFINITY PREDICTED BY RF-SCORE:    0.00 PKD
ROOT
HETATM    1  C   UNL     1     -14.410  15.372  72.116  1.00  0.00    -0.544 C  
HETATM    2  N   UNL     1     -13.684  15.350  70.875  1.00  0.00    -0.814 N  
HETATM    3  C   UNL     1     -12.371  15.763  70.795  1.00  0.00    -0.390 C  
HETATM    4  H   UNL     1     -14.152  15.019  70.031  1.00  0.00     0.000 HD 
HETATM    5  O   UNL     1     -11.732  16.176  71.756  1.00  0.00    -0.470 OA 
ENDROOT
BRANCH   3   6
HETATM    6  C   UNL     1     -11.784  15.660  69.466  1.00  0.00    -0.382 A  
HETATM    7  C   UNL     1     -11.833  14.601  68.583  1.00  0.00    -0.311 A  
HETATM    8  N   UNL     1     -11.107  14.949  67.460  1.00  0.00    -0.307 NA 
HETATM    9  N   UNL     1     -10.597  16.208  67.572  1.00  0.00    -0.311 NA 
HETATM   10  C   UNL     1     -11.017  16.625  68.771  1.00  0.00    -0.309 A  
BRANCH   8  11
HETATM   11  C   UNL     1     -10.851  14.072  66.344  1.00  0.00    -0.299 A  
HETATM   12  N   UNL     1     -10.001  13.030  66.526  1.00  0.00    -0.256 NA 
HETATM   13  C   UNL     1     -10.037  12.171  65.491  1.00  0.00    -0.248 A  
HETATM   14  C   UNL     1     -10.774  12.293  64.327  1.00  0.00    -0.351 A  
HETATM   15  N   UNL     1     -10.596  11.202  63.509  1.00  0.00    -0.368 NA 
HETATM   16  C   UNL     1     -11.545  13.454  64.195  1.00  0.00    -0.398 A  
HETATM   17  N   UNL     1     -12.299  13.745  63.066  1.00  0.00    -1.030 NA 
HETATM   18  N   UNL     1     -11.573  14.331  65.220  1.00  0.00    -0.336 NA 
HETATM   19  C   UNL     1      -9.797  10.406  64.184  1.00  0.00    -0.313 A  
HETATM   20  H1  UNL     1     -12.860  14.591  62.971  1.00  0.00     0.000 HD 
HETATM   21  N   UNL     1      -9.392  10.968  65.372  1.00  0.00    -0.210 NA 
HETATM   22  H2  UNL     1     -12.917  12.951  62.900  1.00  0.00     0.000 HD 
BRANCH  21  23
HETATM   23  C1* UNL     1      -8.489  10.331  66.301  1.00  0.00    -0.135 C  
HETATM   24  O4* UNL     1      -9.261   9.519  67.202  1.00  0.00    -0.132 OA 
HETATM   25  C4* UNL     1      -9.298  10.157  68.496  1.00  0.00    -0.151 C  
HETATM   26  C3* UNL     1      -8.192  11.221  68.531  1.00  0.00    -0.150 C  
HETATM   27  H2* UNL     1      -5.672  11.314  67.582  1.00  0.00     0.000 HD 
HETATM   28  C2* UNL     1      -7.584  11.244  67.125  1.00  0.00    -0.137 C  
HETATM   29  O2* UNL     1      -6.235  10.746  67.070  1.00  0.00    -0.060 OA 
HETATM   30  O3* UNL     1      -7.192  10.917  69.513  1.00  0.00    -0.127 OA 
HETATM   31  H3* UNL     1      -6.508  11.575  69.535  1.00  0.00     0.000 HD 
BRANCH  25  32
HETATM   32  C5* UNL     1     -10.709  10.714  68.736  1.00  0.00    -0.215 C  
HETATM   33  O5* UNL     1     -11.552  10.410  67.622  1.00  0.00    -0.615 OA 
HETATM   34  H5* UNL     1     -12.425  10.754  67.771  1.00  0.00     0.000 HD 
ENDBRANCH  25  32
ENDBRANCH  21  23
ENDBRANCH   8  11
ENDBRANCH   3   6
TORSDOF 4
ENDMDL
MODEL       17
REMARK 921   NORMALIZED FREE ENERGY PREDICTED BY IDOCK:   -7.65 KCAL/MOL
REMARK 922        TOTAL FREE ENERGY PREDICTED BY IDOCK:   -9.95 KCAL/MOL
REMARK 923 INTER-LIGAND FREE ENERGY PREDICTED BY IDOCK:   -9.65 KCAL/MOL
REMARK 924 INTRA-LIGAND FREE ENERGY PREDICTED BY IDOCK:   -0.30 KCAL/MOL
REMARK 927      BINDING AFFINITY PREDICTED BY RF-SCORE:    0.00 PKD
ROOT
HETATM    1  C   UNL     1     -11.555   7.734  71.311  1.00  0.00    -0.277 C  
HETATM    2  N   UNL     1     -11.488   8.543  70.124  1.00  0.00    -0.462 N  
HETATM    3  C   UNL     1     -10.340   9.221  69.772  1.00  0.00    -0.218 C  
HETATM    4  H   UNL     1     -12.311   8.618  69.526  1.00  0.00     0.000 HD 
HETATM    5  O   UNL     1      -9.307   9.189  70.431  1.00  0.00    -0.194 OA 
ENDROOT
BRANCH   3   6
HETATM    6  C   UNL     1     -10.441   9.980  68.534  1.00  0.00    -0.229 A  
HETATM    7  C   UNL     1     -10.661  11.331  68.367  1.00  0.00    -0.203 A  
HETATM    8  N   UNL     1     -10.709  11.591  67.011  1.00  0.00    -0.245 NA 
HETATM    9  N   UNL     1     -10.512  10.456  66.283  1.00  0.00    -0.197 NA 
HETATM   10  C   UNL     1     -10.343   9.502  67.205  1.00  0.00    -0.253 A  
BRANCH   8  11
HETATM   11  C   UNL     1     -11.007  12.878  66.431  1.00  0.00    -0.285 A  
HETATM   12  N   UNL     1     -10.599  13.992  67.091  1.00  0.00    -0.273 NA 
HETATM   13  C   UNL     1     -10.730  15.096  66.334  1.00  0.00    -0.317 A  
HETATM   14  C   UNL     1     -11.260  15.179  65.059  1.00  0.00    -0.409 A  
HETATM   15  N   UNL     1     -11.195  16.465  64.576  1.00  0.00    -0.767 NA 
HETATM   16  C   UNL     1     -11.744  13.987  64.506  1.00  0.00    -0.413 A  
HETATM   17  N   UNL     1     -12.349  13.916  63.258  1.00  0.00    -1.148 NA 
HETATM   18  N   UNL     1     -11.603  12.844  65.208  1.00  0.00    -0.326 NA 
HETATM   19  C   UNL     1     -10.593  17.147  65.525  1.00  0.00    -0.150 A  
HETATM   20  H1  UNL     1     -12.701  13.048  62.855  1.00  0.00     0.000 HD 
HETATM   21  N   UNL     1     -10.333  16.373  66.631  1.00  0.00    -0.290 NA 
HETATM   22  H2  UNL     1     -11.702  14.323  62.583  1.00  0.00     0.000 HD 
BRANCH  21  23
HETATM   23  C1* UNL     1      -9.707  16.868  67.835  1.00  0.00    -0.254 C  
HETATM   24  O4* UNL     1     -10.420  18.039  68.269  1.00  0.00    -0.375 OA 
HETATM   25  C4* UNL     1      -9.613  19.205  68.004  1.00  0.00    -0.332 C  
HETATM   26  C3* UNL     1      -8.174  18.737  67.744  1.00  0.00    -0.263 C  
HETATM   27  H2* UNL     1      -6.617  16.825  68.829  1.00  0.00     0.000 HD 
HETATM   28  C2* UNL     1      -8.220  17.206  67.755  1.00  0.00    -0.197 C  
HETATM   29  O2* UNL     1      -7.542  16.615  68.878  1.00  0.00    -0.219 OA 
HETATM   30  O3* UNL     1      -7.266  19.227  68.740  1.00  0.00    -0.316 OA 
HETATM   31  H3* UNL     1      -6.377  18.937  68.579  1.00  0.00     0.000 HD 
BRANCH  25  32
HETATM   32  C5* UNL     1     -10.236  19.988  66.839  1.00  0.00    -0.462 C  
HETATM   33  O5* UNL     1      -9.213  20.644  66.087  1.00  0.00    -0.583 OA 
HETATM   34  H5* UNL     1      -9.598  21.128  65.366  1.00  0.00     0.000 HD 
ENDBRANCH  25  32
ENDBRANCH  21  23
ENDBRANCH   8  11
ENDBRANCH   3   6
TORSDOF 4
ENDMDL
MODEL       18
REMARK 921   NORMALIZED FREE ENERGY PREDICTED BY IDOCK:   -7.64 KCAL/MOL
REMARK 922        TOTAL FREE ENERGY PREDICTED BY IDOCK:   -9.93 KCAL/MOL
REMARK 923 INTER-LIGAND FREE ENERGY PREDICTED BY IDOCK:   -9.40 KCAL/MOL
REMARK 924 INTRA-LIGAND FREE ENERGY PREDICTED BY IDOCK:   -0.54 KCAL/MOL
REMARK 927      BINDING AFFINITY PREDICTED BY RF-SCORE:    0.00 PKD
ROOT
HETATM    1  C   UNL     1     -10.308   4.849  70.060  1.00  0.00    -0.172 C  
HETATM    2  N   UNL     1     -11.021   6.084  70.243  1.00  0.00    -0.328 N  
HETATM    3  C   UNL     1     -11.517   6.459  71.474  1.00  0.00    -0.306 C  
HETATM    4  H   UNL     1     -11.164   6.699  69.442  1.00  0.00     0.000 HD 
HETATM    5  O   UNL     1     -11.394   5.783  72.488  1.00  0.00    -0.282 OA 
ENDROOT
BRANCH   3   6
HETATM    6  C   UNL     1     -12.199   7.746  71.484  1.00  0.00    -0.344 A  
HETATM    7  C   UNL     1     -11.697   8.989  71.158  1.00  0.00    -0.302 A  
HETATM    8  N   UNL     1     -12.702   9.918  71.346  1.00  0.00    -0.370 NA 
HETATM    9  N   UNL     1     -13.853   9.321  71.771  1.00  0.00    -0.355 NA 
HETATM   10  C   UNL     1     -13.541   8.023  71.839  1.00  0.00    -0.313 A  
BRANCH   8  11
HETATM   11  C   UNL     1     -12.544  11.343  71.193  1.00  0.00    -0.386 A  
HETATM   12  N   UNL     1     -11.705  11.797  70.228  1.00  0.00    -0.282 NA 
HETATM   13  C   UNL     1     -11.832  13.123  70.041  1.00  0.00    -0.290 A  
HETATM   14  C   UNL     1     -12.646  13.994  70.744  1.00  0.00    -0.360 A  
HETATM   15  N   UNL     1     -12.549  15.274  70.250  1.00  0.00    -0.366 NA 
HETATM   16  C   UNL     1     -13.399  13.440  71.786  1.00  0.00    -0.394 A  
HETATM   17  N   UNL     1     -14.223  14.191  72.614  1.00  0.00    -0.555 NA 
HETATM   18  N   UNL     1     -13.336  12.108  71.992  1.00  0.00    -0.467 NA 
HETATM   19  C   UNL     1     -11.722  15.177  69.233  1.00  0.00    -0.329 A  
HETATM   20  H1  UNL     1     -14.772  13.787  73.373  1.00  0.00     0.000 HD 
HETATM   21  N   UNL     1     -11.223  13.903  69.093  1.00  0.00    -0.262 NA 
HETATM   22  H2  UNL     1     -14.868  14.705  72.015  1.00  0.00     0.000 HD 
BRANCH  21  23
HETATM   23  C1* UNL     1     -10.271  13.515  68.080  1.00  0.00    -0.243 C  
HETATM   24  O4* UNL     1     -10.563  14.247  66.876  1.00  0.00    -0.271 OA 
HETATM   25  C4* UNL     1     -11.154  13.352  65.913  1.00  0.00    -0.280 C  
HETATM   26  C3* UNL     1     -10.879  11.912  66.372  1.00  0.00    -0.279 C  
HETATM   27  H2* UNL     1      -8.761  10.697  67.510  1.00  0.00     0.000 HD 
HETATM   28  C2* UNL     1     -10.191  12.029  67.736  1.00  0.00    -0.202 C  
HETATM   29  O2* UNL     1      -8.811  11.621  67.724  1.00  0.00    -0.149 OA 
HETATM   30  O3* UNL     1     -10.048  11.206  65.441  1.00  0.00    -0.238 OA 
HETATM   31  H3* UNL     1      -9.879  10.316  65.725  1.00  0.00     0.000 HD 
BRANCH  25  32
HETATM   32  C5* UNL     1     -12.646  13.688  65.769  1.00  0.00    -0.461 C  
HETATM   33  O5* UNL     1     -13.259  12.804  64.828  1.00  0.00    -0.812 OA 
HETATM   34  H5* UNL     1     -14.181  13.012  64.739  1.00  0.00     0.000 HD 
ENDBRANCH  25  32
ENDBRANCH  21  23
ENDBRANCH   8  11
ENDBRANCH   3   6
TORSDOF 4
ENDMDL
MODEL       19
REMARK 921   NORMALIZED FREE ENERGY PREDICTED BY IDOCK:   -7.63 KCAL/MOL
REMARK 922        TOTAL FREE ENERGY PREDICTED BY IDOCK:   -9.92 KCAL/MOL
REMARK 923 INTER-LIGAND FREE ENERGY PREDICTED BY IDOCK:   -9.17 KCAL/MOL
REMARK 924 INTRA-LIGAND FREE ENERGY PREDICTED BY IDOCK:   -0.75 KCAL/MOL
REMARK 927      BINDING AFFINITY PREDICTED BY RF-SCORE:    0.00 PKD
ROOT
HETATM    1  C   UNL     1     -10.164  18.125  66.101  1.00  0.00    -0.367 C  
HETATM    2  N   UNL     1     -10.508  16.732  66.196  1.00  0.00    -0.307 N  
HETATM    3  C   UNL     1     -11.128  16.066  65.160  1.00  0.00    -0.283 C  
HETATM    4  H   UNL     1     -10.289  16.224  67.052  1.00  0.00     0.000 HD 
HETATM    5  O   UNL     1     -11.429  16.598  64.098  1.00  0.00    -1.131 OA 
ENDROOT
BRANCH   3   6
HETATM    6  C   UNL     1     -11.391  14.657  65.418  1.00  0.00    -0.344 A  
HETATM    7  C   UNL     1     -10.536  13.701  65.926  1.00  0.00    -0.296 A  
HETATM    8  N   UNL     1     -11.216  12.499  65.966  1.00  0.00    -0.300 NA 
HETATM    9  N   UNL     1     -12.495  12.641  65.515  1.00  0.00    -0.648 NA 
HETATM   10  C   UNL     1     -12.589  13.937  65.201  1.00  0.00    -0.434 A  
BRANCH   8  11
HETATM   11  C   UNL     1     -10.635  11.239  66.357  1.00  0.00    -0.266 A  
HETATM   12  N   UNL     1     -10.867  10.785  67.614  1.00  0.00    -0.258 NA 
HETATM   13  C   UNL     1     -10.471   9.508  67.765  1.00  0.00    -0.254 A  
HETATM   14  C   UNL     1      -9.844   8.710  66.825  1.00  0.00    -0.253 A  
HETATM   15  N   UNL     1      -9.625   7.443  67.315  1.00  0.00    -0.143 NA 
HETATM   16  C   UNL     1      -9.561   9.305  65.589  1.00  0.00    -0.254 A  
HETATM   17  N   UNL     1      -8.892   8.651  64.563  1.00  0.00    -0.415 NA 
HETATM   18  N   UNL     1      -9.970  10.572  65.374  1.00  0.00    -0.270 NA 
HETATM   19  C   UNL     1     -10.151   7.456  68.519  1.00  0.00    -0.175 A  
HETATM   20  H1  UNL     1      -8.687   9.085  63.664  1.00  0.00     0.000 HD 
HETATM   21  N   UNL     1     -10.635   8.698  68.858  1.00  0.00    -0.185 NA 
HETATM   22  H2  UNL     1      -9.398   7.786  64.374  1.00  0.00     0.000 HD 
BRANCH  21  23
HETATM   23  C1* UNL     1     -11.238   9.011  70.131  1.00  0.00    -0.171 C  
HETATM   24  O4* UNL     1     -10.272   9.714  70.932  1.00  0.00    -0.295 OA 
HETATM   25  C4* UNL     1      -9.795   8.835  71.972  1.00  0.00    -0.306 C  
HETATM   26  C3* UNL     1     -10.772   7.654  72.079  1.00  0.00    -0.227 C  
HETATM   27  H2* UNL     1     -13.451   7.437  71.911  1.00  0.00     0.000 HD 
HETATM   28  C2* UNL     1     -11.785   7.841  70.946  1.00  0.00    -0.265 C  
HETATM   29  O2* UNL     1     -13.111   8.164  71.404  1.00  0.00    -0.298 OA 
HETATM   30  O3* UNL     1     -11.430   7.621  73.352  1.00  0.00    -0.643 OA 
HETATM   31  H3* UNL     1     -12.033   6.891  73.418  1.00  0.00     0.000 HD 
BRANCH  25  32
HETATM   32  C5* UNL     1      -8.350   8.425  71.655  1.00  0.00    -0.156 C  
HETATM   33  O5* UNL     1      -7.565   8.431  72.850  1.00  0.00    -0.227 OA 
HETATM   34  H5* UNL     1      -6.672   8.177  72.653  1.00  0.00     0.000 HD 
ENDBRANCH  25  32
ENDBRANCH  21  23
ENDBRANCH   8  11
ENDBRANCH   3   6
TORSDOF 4
ENDMDL
MODEL       20
REMARK 921   NORMALIZED FREE ENERGY PREDICTED BY IDOCK:   -7.62 KCAL/MOL
REMARK 922        TOTAL FREE ENERGY PREDICTED BY IDOCK:   -9.92 KCAL/MOL
REMARK 923 INTER-LIGAND FREE ENERGY PREDICTED BY IDOCK:   -9.45 KCAL/MOL
REMARK 924 INTRA-LIGAND FREE ENERGY PREDICTED BY IDOCK:   -0.47 KCAL/MOL
REMARK 927      BINDING AFFINITY PREDICTED BY RF-SCORE:    0.00 PKD
ROOT
HETATM    1  C   UNL     1     -11.020   3.526  63.774  1.00  0.00    -0.077 C  
HETATM    2  N   UNL     1     -11.079   4.422  64.898  1.00  0.00    -0.846 N  
HETATM    3  C   UNL     1     -10.064   4.487  65.828  1.00  0.00    -0.255 C  
HETATM    4  H   UNL     1     -11.894   5.024  65.010  1.00  0.00     0.000 HD 
HETATM    5  O   UNL     1      -9.051   3.799  65.773  1.00  0.00    -0.135 OA 
ENDROOT
BRANCH   3   6
HETATM    6  C   UNL     1     -10.280   5.458  66.892  1.00  0.00    -0.279 A  
HETATM    7  C   UNL     1     -10.505   6.815  66.787  1.00  0.00    -0.228 A  
HETATM    8  N   UNL     1     -10.621   7.328  68.064  1.00  0.00    -0.205 NA 
HETATM    9  N   UNL     1     -10.496   6.348  69.003  1.00  0.00    -0.201 NA 
HETATM   10  C   UNL     1     -10.302   5.234  68.289  1.00  0.00    -0.111 A  
BRANCH   8  11
HETATM   11  C   UNL     1     -10.777   8.727  68.376  1.00  0.00    -0.062 A  
HETATM   12  N   UNL     1     -10.816   9.615  67.350  1.00  0.00    -0.240 NA 
HETATM   13  C   UNL     1     -11.197  10.837  67.763  1.00  0.00    -0.316 A  
HETATM   14  C   UNL     1     -11.474  11.235  69.059  1.00  0.00    -0.302 A  
HETATM   15  N   UNL     1     -11.876  12.550  69.101  1.00  0.00    -0.306 NA 
HETATM   16  C   UNL     1     -11.308  10.267  70.057  1.00  0.00    -0.301 A  
HETATM   17  N   UNL     1     -11.498  10.525  71.408  1.00  0.00    -0.062 NA 
HETATM   18  N   UNL     1     -10.963   9.015  69.693  1.00  0.00    -0.186 NA 
HETATM   19  C   UNL     1     -11.887  12.935  67.844  1.00  0.00    -0.339 A  
HETATM   20  H1  UNL     1     -11.378   9.820  72.135  1.00  0.00     0.000 HD 
HETATM   21  N   UNL     1     -11.439  11.948  66.998  1.00  0.00    -0.440 NA 
HETATM   22  H2  UNL     1     -12.435  10.914  71.515  1.00  0.00     0.000 HD 
BRANCH  21  23
HETATM   23  C1* UNL     1     -11.317  12.103  65.567  1.00  0.00    -0.344 C  
HETATM   24  O4* UNL     1     -10.173  12.932  65.296  1.00  0.00    -0.288 OA 
HETATM   25  C4* UNL     1     -10.626  14.232  64.866  1.00  0.00    -0.431 C  
HETATM   26  C3* UNL     1     -12.107  14.113  64.478  1.00  0.00    -0.468 C  
HETATM   27  H2* UNL     1     -13.552  12.222  63.215  1.00  0.00     0.000 HD 
HETATM   28  C2* UNL     1     -12.521  12.681  64.827  1.00  0.00    -0.484 C  
HETATM   29  O2* UNL     1     -12.803  11.863  63.676  1.00  0.00    -0.646 OA 
HETATM   30  O3* UNL     1     -12.315  14.379  63.084  1.00  0.00    -1.014 OA 
HETATM   31  H3* UNL     1     -13.231  14.306  62.844  1.00  0.00     0.000 HD 
BRANCH  25  32
HETATM   32  C5* UNL     1     -10.352  15.250  65.983  1.00  0.00    -0.312 C  
HETATM   33  O5* UNL     1     -10.085  16.536  65.418  1.00  0.00    -0.570 OA 
HETATM   34  H5* UNL     1      -9.915  17.166  66.109  1.00  0.00     0.000 HD 
ENDBRANCH  25  32
ENDBRANCH  21  23
ENDBRANCH   8  11
ENDBRANCH   3   6
TORSDOF 4
ENDMDL
MODEL       21
REMARK 921   NORMALIZED FREE ENERGY PREDICTED BY IDOCK:   -7.60 KCAL/MOL
REMARK 922        TOTAL FREE ENERGY PREDICTED BY IDOCK:   -9.89 KCAL/MOL
REMARK 923 INTER-LIGAND FREE ENERGY PREDICTED BY IDOCK:   -9.13 KCAL/MOL
REMARK 924 INTRA-LIGAND FREE ENERGY PREDICTED BY IDOCK:   -0.75 KCAL/MOL
REMARK 927      BINDING AFFINITY PREDICTED BY RF-SCORE:    0.00 PKD
ROOT
HETATM    1  C   UNL     1      -5.283  20.889  70.176  1.00  0.00    -0.324 C  
HETATM    2  N   UNL     1      -6.445  20.150  69.761  1.00  0.00    -0.326 N  
HETATM    3  C   UNL     1      -6.762  19.985  68.430  1.00  0.00    -0.301 C  
HETATM    4  H   UNL     1      -7.051  19.737  70.470  1.00  0.00     0.000 HD 
HETATM    5  O   UNL     1      -6.093  20.446  67.512  1.00  0.00    -0.196 OA 
ENDROOT
BRANCH   3   6
HETATM    6  C   UNL     1      -7.962  19.197  68.187  1.00  0.00    -0.339 A  
HETATM    7  C   UNL     1      -8.105  18.059  67.420  1.00  0.00    -0.222 A  
HETATM    8  N   UNL     1      -9.433  17.681  67.462  1.00  0.00    -0.254 NA 
HETATM    9  N   UNL     1     -10.163  18.525  68.244  1.00  0.00    -0.376 NA 
HETATM   10  C   UNL     1      -9.270  19.420  68.679  1.00  0.00    -0.378 A  
BRANCH   8  11
HETATM   11  C   UNL     1      -9.998  16.584  66.715  1.00  0.00    -0.276 A  
HETATM   12  N   UNL     1     -10.050  15.362  67.304  1.00  0.00    -0.236 NA 
HETATM   13  C   UNL     1     -10.804  14.500  66.600  1.00  0.00    -0.311 A  
HETATM   14  C   UNL     1     -11.432  14.733  65.389  1.00  0.00    -0.341 A  
HETATM   15  N   UNL     1     -12.154  13.634  64.983  1.00  0.00    -0.371 NA 
HETATM   16  C   UNL     1     -11.236  15.996  64.817  1.00  0.00    -0.339 A  
HETATM   17  N   UNL     1     -11.757  16.363  63.583  1.00  0.00    -1.221 NA 
HETATM   18  N   UNL     1     -10.517  16.910  65.500  1.00  0.00    -0.600 NA 
HETATM   19  C   UNL     1     -12.005  12.761  65.955  1.00  0.00    -0.449 A  
HETATM   20  H1  UNL     1     -11.614  17.283  63.167  1.00  0.00     0.000 HD 
HETATM   21  N   UNL     1     -11.158  13.220  66.936  1.00  0.00    -0.283 NA 
HETATM   22  H2  UNL     1     -12.763  16.199  63.618  1.00  0.00     0.000 HD 
BRANCH  21  23
HETATM   23  C1* UNL     1     -10.788  12.459  68.106  1.00  0.00    -0.221 C  
HETATM   24  O4* UNL     1      -9.361  12.275  68.097  1.00  0.00    -0.196 OA 
HETATM   25  C4* UNL     1      -9.066  10.904  67.763  1.00  0.00    -0.149 C  
HETATM   26  C3* UNL     1     -10.353  10.085  67.940  1.00  0.00    -0.207 C  
HETATM   27  H2* UNL     1     -12.352  10.133  69.745  1.00  0.00     0.000 HD 
HETATM   28  C2* UNL     1     -11.451  11.095  68.285  1.00  0.00    -0.303 C  
HETATM   29  O2* UNL     1     -11.940  10.981  69.634  1.00  0.00    -0.303 OA 
HETATM   30  O3* UNL     1     -10.220   9.103  68.977  1.00  0.00    -0.195 OA 
HETATM   31  H3* UNL     1     -11.016   8.596  69.086  1.00  0.00     0.000 HD 
BRANCH  25  32
HETATM   32  C5* UNL     1      -8.482  10.851  66.343  1.00  0.00    -0.163 C  
HETATM   33  O5* UNL     1      -7.101  11.221  66.368  1.00  0.00    -0.252 OA 
HETATM   34  H5* UNL     1      -6.740  11.189  65.490  1.00  0.00     0.000 HD 
ENDBRANCH  25  32
ENDBRANCH  21  23
ENDBRANCH   8  11
ENDBRANCH   3   6
TORSDOF 4
ENDMDL
MODEL       22
REMARK 921   NORMALIZED FREE ENERGY PREDICTED BY IDOCK:   -7.55 KCAL/MOL
REMARK 922        TOTAL FREE ENERGY PREDICTED BY IDOCK:   -9.83 KCAL/MOL
REMARK 923 INTER-LIGAND FREE ENERGY PREDICTED BY IDOCK:   -9.08 KCAL/MOL
REMARK 924 INTRA-LIGAND FREE ENERGY PREDICTED BY IDOCK:   -0.74 KCAL/MOL
REMARK 927      BINDING AFFINITY PREDICTED BY RF-SCORE:    0.00 PKD
ROOT
HETATM    1  C   UNL     1     -11.223  15.036  65.492  1.00  0.00    -0.344 C  
HETATM    2  N   UNL     1     -11.486  14.273  66.683  1.00  0.00    -0.350 N  
HETATM    3  C   UNL     1     -11.624  14.877  67.915  1.00  0.00    -0.344 C  
HETATM    4  H   UNL     1     -11.572  13.260  66.615  1.00  0.00     0.000 HD 
HETATM    5  O   UNL     1     -11.534  16.086  68.090  1.00  0.00    -0.338 OA 
ENDROOT
BRANCH   3   6
HETATM    6  C   UNL     1     -11.902  13.958  69.010  1.00  0.00    -0.397 A  
HETATM    7  C   UNL     1     -11.671  12.600  69.075  1.00  0.00    -0.318 A  
HETATM    8  N   UNL     1     -12.125  12.148  70.299  1.00  0.00    -0.338 NA 
HETATM    9  N   UNL     1     -12.632  13.169  71.045  1.00  0.00    -0.353 NA 
HETATM   10  C   UNL     1     -12.483  14.247  70.268  1.00  0.00    -0.361 A  
BRANCH   8  11
HETATM   11  C   UNL     1     -12.138  10.766  70.711  1.00  0.00    -0.372 A  
HETATM   12  N   UNL     1     -11.155   9.949  70.255  1.00  0.00    -0.285 NA 
HETATM   13  C   UNL     1     -11.152   8.766  70.896  1.00  0.00    -0.268 A  
HETATM   14  C   UNL     1     -12.041   8.337  71.865  1.00  0.00    -0.332 A  
HETATM   15  N   UNL     1     -11.707   7.086  72.329  1.00  0.00    -0.273 NA 
HETATM   16  C   UNL     1     -13.079   9.218  72.194  1.00  0.00    -0.443 A  
HETATM   17  N   UNL     1     -14.077   8.913  73.110  1.00  0.00    -1.225 NA 
HETATM   18  N   UNL     1     -13.107  10.432  71.607  1.00  0.00    -0.434 NA 
HETATM   19  C   UNL     1     -10.604   6.776  71.684  1.00  0.00    -0.214 A  
HETATM   20  H1  UNL     1     -14.832   9.555  73.349  1.00  0.00     0.000 HD 
HETATM   21  N   UNL     1     -10.252   7.741  70.770  1.00  0.00    -0.197 NA 
HETATM   22  H2  UNL     1     -13.619   8.645  73.981  1.00  0.00     0.000 HD 
BRANCH  21  23
HETATM   23  C1* UNL     1      -9.103   7.650  69.900  1.00  0.00    -0.147 C  
HETATM   24  O4* UNL     1      -9.521   7.964  68.560  1.00  0.00    -0.147 OA 
HETATM   25  C4* UNL     1      -9.544   6.752  67.779  1.00  0.00    -0.124 C  
HETATM   26  C3* UNL     1      -8.744   5.683  68.539  1.00  0.00    -0.110 C  
HETATM   27  H2* UNL     1      -6.477   5.742  69.993  1.00  0.00     0.000 HD 
HETATM   28  C2* UNL     1      -8.354   6.320  69.876  1.00  0.00    -0.129 C  
HETATM   29  O2* UNL     1      -6.943   6.570  70.008  1.00  0.00    -0.059 OA 
HETATM   30  O3* UNL     1      -7.579   5.272  67.810  1.00  0.00    -0.085 OA 
HETATM   31  H3* UNL     1      -7.085   4.611  68.280  1.00  0.00     0.000 HD 
BRANCH  25  32
HETATM   32  C5* UNL     1     -11.005   6.363  67.506  1.00  0.00    -0.364 C  
HETATM   33  O5* UNL     1     -11.103   5.679  66.255  1.00  0.00    -0.734 OA 
HETATM   34  H5* UNL     1     -12.007   5.438  66.086  1.00  0.00     0.000 HD 
ENDBRANCH  25  32
ENDBRANCH  21  23
ENDBRANCH   8  11
ENDBRANCH   3   6
TORSDOF 4
ENDMDL
MODEL       23
REMARK 921   NORMALIZED FREE ENERGY PREDICTED BY IDOCK:   -7.49 KCAL/MOL
REMARK 922        TOTAL FREE ENERGY PREDICTED BY IDOCK:   -9.75 KCAL/MOL
REMARK 923 INTER-LIGAND FREE ENERGY PREDICTED BY IDOCK:   -9.31 KCAL/MOL
REMARK 924 INTRA-LIGAND FREE ENERGY PREDICTED BY IDOCK:   -0.43 KCAL/MOL
REMARK 927      BINDING AFFINITY PREDICTED BY RF-SCORE:    0.00 PKD
ROOT
HETATM    1  C   UNL     1      -5.141  20.440  69.268  1.00  0.00    -0.233 C  
HETATM    2  N   UNL     1      -5.765  19.208  68.865  1.00  0.00    -0.205 N  
HETATM    3  C   UNL     1      -7.132  19.100  68.726  1.00  0.00    -0.331 C  
HETATM    4  H   UNL     1      -5.181  18.393  68.677  1.00  0.00     0.000 HD 
HETATM    5  O   UNL     1      -7.909  20.025  68.932  1.00  0.00    -0.159 OA 
ENDROOT
BRANCH   3   6
HETATM    6  C   UNL     1      -7.594  17.787  68.296  1.00  0.00    -0.256 A  
HETATM    7  C   UNL     1      -8.487  17.474  67.292  1.00  0.00    -0.214 A  
HETATM    8  N   UNL     1      -8.640  16.102  67.270  1.00  0.00    -0.171 NA 
HETATM    9  N   UNL     1      -7.864  15.503  68.217  1.00  0.00    -0.125 NA 
HETATM   10  C   UNL     1      -7.237  16.520  68.816  1.00  0.00    -0.197 A  
BRANCH   8  11
HETATM   11  C   UNL     1      -9.558  15.392  66.414  1.00  0.00    -0.293 A  
HETATM   12  N   UNL     1      -9.758  14.069  66.641  1.00  0.00    -0.279 NA 
HETATM   13  C   UNL     1     -10.799  13.593  65.934  1.00  0.00    -0.275 A  
HETATM   14  C   UNL     1     -11.579  14.284  65.024  1.00  0.00    -0.367 A  
HETATM   15  N   UNL     1     -12.582  13.489  64.523  1.00  0.00    -0.640 NA 
HETATM   16  C   UNL     1     -11.227  15.619  64.789  1.00  0.00    -0.382 A  
HETATM   17  N   UNL     1     -11.881  16.429  63.869  1.00  0.00    -1.402 NA 
HETATM   18  N   UNL     1     -10.214  16.156  65.499  1.00  0.00    -0.498 NA 
HETATM   19  C   UNL     1     -12.443  12.342  65.152  1.00  0.00    -0.253 A  
HETATM   20  H1  UNL     1     -11.625  17.401  63.698  1.00  0.00     0.000 HD 
HETATM   21  N   UNL     1     -11.348  12.339  65.983  1.00  0.00    -0.334 NA 
HETATM   22  H2  UNL     1     -12.874  16.413  64.102  1.00  0.00     0.000 HD 
BRANCH  21  23
HETATM   23  C1* UNL     1     -10.937  11.203  66.774  1.00  0.00    -0.249 C  
HETATM   24  O4* UNL     1     -11.844  11.067  67.882  1.00  0.00    -0.600 OA 
HETATM   25  C4* UNL     1     -11.174  11.480  69.091  1.00  0.00    -0.274 C  
HETATM   26  C3* UNL     1      -9.665  11.517  68.807  1.00  0.00    -0.126 C  
HETATM   27  H2* UNL     1      -8.004   9.950  67.379  1.00  0.00     0.000 HD 
HETATM   28  C2* UNL     1      -9.509  11.214  67.314  1.00  0.00    -0.164 C  
HETATM   29  O2* UNL     1      -8.892   9.943  67.043  1.00  0.00    -0.133 OA 
HETATM   30  O3* UNL     1      -8.952  10.558  69.600  1.00  0.00    -0.379 OA 
HETATM   31  H3* UNL     1      -8.019  10.581  69.424  1.00  0.00     0.000 HD 
BRANCH  25  32
HETATM   32  C5* UNL     1     -11.758  12.825  69.549  1.00  0.00    -0.318 C  
HETATM   33  O5* UNL     1     -12.056  12.778  70.946  1.00  0.00    -0.455 OA 
HETATM   34  H5* UNL     1     -12.417  13.610  71.230  1.00  0.00     0.000 HD 
ENDBRANCH  25  32
ENDBRANCH  21  23
ENDBRANCH   8  11
ENDBRANCH   3   6
TORSDOF 4
ENDMDL
MODEL       24
REMARK 921   NORMALIZED FREE ENERGY PREDICTED BY IDOCK:   -7.43 KCAL/MOL
REMARK 922        TOTAL FREE ENERGY PREDICTED BY IDOCK:   -9.68 KCAL/MOL
REMARK 923 INTER-LIGAND FREE ENERGY PREDICTED BY IDOCK:   -9.15 KCAL/MOL
REMARK 924 INTRA-LIGAND FREE ENERGY PREDICTED BY IDOCK:   -0.53 KCAL/MOL
REMARK 927      BINDING AFFINITY PREDICTED BY RF-SCORE:    0.00 PKD
ROOT
HETATM    1  C   UNL     1      -5.180  18.568  70.838  1.00  0.00    -0.275 C  
HETATM    2  N   UNL     1      -6.135  18.306  69.795  1.00  0.00    -0.236 N  
HETATM    3  C   UNL     1      -6.683  19.322  69.041  1.00  0.00    -0.316 C  
HETATM    4  H   UNL     1      -6.416  17.343  69.609  1.00  0.00     0.000 HD 
HETATM    5  O   UNL     1      -6.405  20.506  69.198  1.00  0.00    -0.302 OA 
ENDROOT
BRANCH   3   6
HETATM    6  C   UNL     1      -7.621  18.879  68.019  1.00  0.00    -0.292 A  
HETATM    7  C   UNL     1      -8.022  17.595  67.717  1.00  0.00    -0.218 A  
HETATM    8  N   UNL     1      -8.900  17.661  66.653  1.00  0.00    -0.254 NA 
HETATM    9  N   UNL     1      -9.100  18.951  66.258  1.00  0.00    -0.425 NA 
HETATM   10  C   UNL     1      -8.338  19.669  67.089  1.00  0.00    -0.298 A  
BRANCH   8  11
HETATM   11  C   UNL     1      -9.475  16.517  65.990  1.00  0.00    -0.282 A  
HETATM   12  N   UNL     1      -9.013  15.284  66.316  1.00  0.00    -0.302 NA 
HETATM   13  C   UNL     1      -9.787  14.310  65.806  1.00  0.00    -0.287 A  
HETATM   14  C   UNL     1     -10.896  14.461  64.992  1.00  0.00    -0.407 A  
HETATM   15  N   UNL     1     -11.466  13.245  64.696  1.00  0.00    -0.328 NA 
HETATM   16  C   UNL     1     -11.231  15.772  64.633  1.00  0.00    -0.363 A  
HETATM   17  N   UNL     1     -12.284  16.084  63.783  1.00  0.00    -1.134 NA 
HETATM   18  N   UNL     1     -10.509  16.789  65.147  1.00  0.00    -0.678 NA 
HETATM   19  C   UNL     1     -10.743  12.369  65.357  1.00  0.00    -0.282 A  
HETATM   20  H1  UNL     1     -12.528  17.039  63.521  1.00  0.00     0.000 HD 
HETATM   21  N   UNL     1      -9.685  12.958  66.008  1.00  0.00    -0.254 NA 
HETATM   22  H2  UNL     1     -13.123  15.651  64.167  1.00  0.00     0.000 HD 
BRANCH  21  23
HETATM   23  C1* UNL     1      -8.708  12.233  66.786  1.00  0.00    -0.175 C  
HETATM   24  O4* UNL     1      -8.834  10.832  66.482  1.00  0.00    -0.147 OA 
HETATM   25  C4* UNL     1      -9.445  10.161  67.603  1.00  0.00    -0.148 C  
HETATM   26  C3* UNL     1      -9.357  11.094  68.819  1.00  0.00    -0.149 C  
HETATM   27  H2* UNL     1      -7.466  12.781  69.735  1.00  0.00     0.000 HD 
HETATM   28  C2* UNL     1      -8.760  12.407  68.302  1.00  0.00    -0.175 C  
HETATM   29  O2* UNL     1      -7.434  12.673  68.792  1.00  0.00    -0.106 OA 
HETATM   30  O3* UNL     1      -8.540  10.538  69.858  1.00  0.00    -0.377 OA 
HETATM   31  H3* UNL     1      -8.486  11.115  70.611  1.00  0.00     0.000 HD 
BRANCH  25  32
HETATM   32  C5* UNL     1     -10.878   9.762  67.223  1.00  0.00    -0.177 C  
HETATM   33  O5* UNL     1     -11.812  10.408  68.091  1.00  0.00    -0.761 OA 
HETATM   34  H5* UNL     1     -12.699  10.161  67.857  1.00  0.00     0.000 HD 
ENDBRANCH  25  32
ENDBRANCH  21  23
ENDBRANCH   8  11
ENDBRANCH   3   6
TORSDOF 4
ENDMDL
MODEL       25
REMARK 921   NORMALIZED FREE ENERGY PREDICTED BY IDOCK:   -7.43 KCAL/MOL
REMARK 922        TOTAL FREE ENERGY PREDICTED BY IDOCK:   -9.68 KCAL/MOL
REMARK 923 INTER-LIGAND FREE ENERGY PREDICTED BY IDOCK:   -8.64 KCAL/MOL
REMARK 924 INTRA-LIGAND FREE ENERGY PREDICTED BY IDOCK:   -1.03 KCAL/MOL
REMARK 927      BINDING AFFINITY PREDICTED BY RF-SCORE:    0.00 PKD
ROOT
HETATM    1  C   UNL     1     -10.076   4.889  70.309  1.00  0.00    -0.252 C  
HETATM    2  N   UNL     1     -10.800   6.129  70.389  1.00  0.00    -0.284 N  
HETATM    3  C   UNL     1     -11.696   6.381  71.405  1.00  0.00    -0.306 C  
HETATM    4  H   UNL     1     -10.646   6.841  69.675  1.00  0.00     0.000 HD 
HETATM    5  O   UNL     1     -11.943   5.584  72.303  1.00  0.00    -0.126 OA 
ENDROOT
BRANCH   3   6
HETATM    6  C   UNL     1     -12.329   7.691  71.342  1.00  0.00    -0.358 A  
HETATM    7  C   UNL     1     -11.768   8.903  70.993  1.00  0.00    -0.289 A  
HETATM    8  N   UNL     1     -12.744   9.873  71.108  1.00  0.00    -0.347 NA 
HETATM    9  N   UNL     1     -13.932   9.335  71.506  1.00  0.00    -0.273 NA 
HETATM   10  C   UNL     1     -13.672   8.029  71.633  1.00  0.00    -0.356 A  
BRANCH   8  11
HETATM   11  C   UNL     1     -12.526  11.285  70.911  1.00  0.00    -0.394 A  
HETATM   12  N   UNL     1     -12.064  11.703  69.706  1.00  0.00    -0.303 NA 
HETATM   13  C   UNL     1     -12.131  13.041  69.583  1.00  0.00    -0.241 A  
HETATM   14  C   UNL     1     -12.549  13.950  70.539  1.00  0.00    -0.312 A  
HETATM   15  N   UNL     1     -12.526  15.235  70.048  1.00  0.00    -0.323 NA 
HETATM   16  C   UNL     1     -12.913  13.423  71.784  1.00  0.00    -0.342 A  
HETATM   17  N   UNL     1     -13.306  14.209  72.859  1.00  0.00    -0.644 NA 
HETATM   18  N   UNL     1     -12.899  12.084  71.948  1.00  0.00    -0.296 NA 
HETATM   19  C   UNL     1     -12.142  15.106  68.797  1.00  0.00    -0.165 A  
HETATM   20  H1  UNL     1     -13.572  13.824  73.765  1.00  0.00     0.000 HD 
HETATM   21  N   UNL     1     -11.845  13.802  68.479  1.00  0.00    -0.355 NA 
HETATM   22  H2  UNL     1     -14.077  14.795  72.541  1.00  0.00     0.000 HD 
BRANCH  21  23
HETATM   23  C1* UNL     1     -11.370  13.373  67.185  1.00  0.00    -0.315 C  
HETATM   24  O4* UNL     1      -9.961  13.099  67.286  1.00  0.00    -0.225 OA 
HETATM   25  C4* UNL     1      -9.231  14.148  66.617  1.00  0.00    -0.252 C  
HETATM   26  C3* UNL     1     -10.216  14.918  65.726  1.00  0.00    -0.336 C  
HETATM   27  H2* UNL     1     -12.292  14.176  64.178  1.00  0.00     0.000 HD 
HETATM   28  C2* UNL     1     -11.598  14.323  66.012  1.00  0.00    -0.360 C  
HETATM   29  O2* UNL     1     -12.151  13.585  64.907  1.00  0.00    -0.363 OA 
HETATM   30  O3* UNL     1      -9.885  14.793  64.336  1.00  0.00    -0.357 OA 
HETATM   31  H3* UNL     1     -10.495  15.270  63.785  1.00  0.00     0.000 HD 
BRANCH  25  32
HETATM   32  C5* UNL     1      -8.531  15.018  67.672  1.00  0.00    -0.160 C  
HETATM   33  O5* UNL     1      -8.788  14.503  68.981  1.00  0.00    -0.310 OA 
HETATM   34  H5* UNL     1      -8.355  15.041  69.633  1.00  0.00     0.000 HD 
ENDBRANCH  25  32
ENDBRANCH  21  23
ENDBRANCH   8  11
ENDBRANCH   3   6
TORSDOF 4
ENDMDL
MODEL       26
REMARK 921   NORMALIZED FREE ENERGY PREDICTED BY IDOCK:   -7.40 KCAL/MOL
REMARK 922        TOTAL FREE ENERGY PREDICTED BY IDOCK:   -9.64 KCAL/MOL
REMARK 923 INTER-LIGAND FREE ENERGY PREDICTED BY IDOCK:   -8.84 KCAL/MOL
REMARK 924 INTRA-LIGAND FREE ENERGY PREDICTED BY IDOCK:   -0.80 KCAL/MOL
REMARK 927      BINDING AFFINITY PREDICTED BY RF-SCORE:    0.00 PKD
ROOT
HETATM    1  C   UNL     1      -9.047   4.922  65.377  1.00  0.00    -0.155 C  
HETATM    2  N   UNL     1      -9.125   6.358  65.417  1.00  0.00    -0.367 N  
HETATM    3  C   UNL     1      -8.055   7.131  65.814  1.00  0.00    -0.130 C  
HETATM    4  H   UNL     1      -9.995   6.816  65.145  1.00  0.00     0.000 HD 
HETATM    5  O   UNL     1      -6.975   6.666  66.159  1.00  0.00    -0.059 OA 
ENDROOT
BRANCH   3   6
HETATM    6  C   UNL     1      -8.301   8.566  65.781  1.00  0.00    -0.144 A  
HETATM    7  C   UNL     1      -9.472   9.233  65.483  1.00  0.00    -0.240 A  
HETATM    8  N   UNL     1      -9.218  10.589  65.549  1.00  0.00    -0.177 NA 
HETATM    9  N   UNL     1      -7.923  10.833  65.898  1.00  0.00    -0.157 NA 
HETATM   10  C   UNL     1      -7.389   9.616  66.043  1.00  0.00    -0.099 A  
BRANCH   8  11
HETATM   11  C   UNL     1     -10.171  11.619  65.219  1.00  0.00    -0.272 A  
HETATM   12  N   UNL     1      -9.916  12.888  65.628  1.00  0.00    -0.264 NA 
HETATM   13  C   UNL     1     -10.752  13.774  65.057  1.00  0.00    -0.382 A  
HETATM   14  C   UNL     1     -11.802  13.502  64.198  1.00  0.00    -0.437 A  
HETATM   15  N   UNL     1     -12.414  14.659  63.777  1.00  0.00    -0.742 NA 
HETATM   16  C   UNL     1     -12.042  12.151  63.916  1.00  0.00    -0.488 A  
HETATM   17  N   UNL     1     -13.088  11.715  63.113  1.00  0.00    -0.752 NA 
HETATM   18  N   UNL     1     -11.211  11.224  64.434  1.00  0.00    -0.214 NA 
HETATM   19  C   UNL     1     -11.719  15.625  64.335  1.00  0.00    -0.218 A  
HETATM   20  H1  UNL     1     -13.263  10.731  62.907  1.00  0.00     0.000 HD 
HETATM   21  N   UNL     1     -10.730  15.140  65.158  1.00  0.00    -0.392 NA 
HETATM   22  H2  UNL     1     -13.010  12.202  62.221  1.00  0.00     0.000 HD 
BRANCH  21  23
HETATM   23  C1* UNL     1      -9.833  15.975  65.924  1.00  0.00    -0.348 C  
HETATM   24  O4* UNL     1      -9.439  15.254  67.105  1.00  0.00    -0.207 OA 
HETATM   25  C4* UNL     1     -10.102  15.830  68.249  1.00  0.00    -0.222 C  
HETATM   26  C3* UNL     1     -10.640  17.209  67.841  1.00  0.00    -0.376 C  
HETATM   27  H2* UNL     1      -9.680  19.196  66.296  1.00  0.00     0.000 HD 
HETATM   28  C2* UNL     1     -10.352  17.348  66.343  1.00  0.00    -0.317 C  
HETATM   29  O2* UNL     1      -9.358  18.342  66.035  1.00  0.00    -0.505 OA 
HETATM   30  O3* UNL     1     -10.013  18.266  68.581  1.00  0.00    -0.361 OA 
HETATM   31  H3* UNL     1     -10.347  19.118  68.328  1.00  0.00     0.000 HD 
BRANCH  25  32
HETATM   32  C5* UNL     1     -11.184  14.857  68.740  1.00  0.00    -0.275 C  
HETATM   33  O5* UNL     1     -12.296  14.868  67.842  1.00  0.00    -0.543 OA 
HETATM   34  H5* UNL     1     -12.965  14.266  68.146  1.00  0.00     0.000 HD 
ENDBRANCH  25  32
ENDBRANCH  21  23
ENDBRANCH   8  11
ENDBRANCH   3   6
TORSDOF 4
ENDMDL
MODEL       27
REMARK 921   NORMALIZED FREE ENERGY PREDICTED BY IDOCK:   -7.38 KCAL/MOL
REMARK 922        TOTAL FREE ENERGY PREDICTED BY IDOCK:   -9.62 KCAL/MOL
REMARK 923 INTER-LIGAND FREE ENERGY PREDICTED BY IDOCK:   -8.65 KCAL/MOL
REMARK 924 INTRA-LIGAND FREE ENERGY PREDICTED BY IDOCK:   -0.97 KCAL/MOL
REMARK 927      BINDING AFFINITY PREDICTED BY RF-SCORE:    0.00 PKD
ROOT
HETATM    1  C   UNL     1     -10.162   6.626  74.166  1.00  0.00    -0.363 C  
HETATM    2  N   UNL     1     -10.538   7.323  72.965  1.00  0.00    -0.291 N  
HETATM    3  C   UNL     1      -9.745   8.311  72.421  1.00  0.00    -0.303 C  
HETATM    4  H   UNL     1     -11.415   7.081  72.503  1.00  0.00     0.000 HD 
HETATM    5  O   UNL     1      -8.678   8.667  72.908  1.00  0.00    -0.384 OA 
ENDROOT
BRANCH   3   6
HETATM    6  C   UNL     1     -10.268   8.901  71.196  1.00  0.00    -0.336 A  
HETATM    7  C   UNL     1      -9.881   8.665  69.893  1.00  0.00    -0.183 A  
HETATM    8  N   UNL     1     -10.639   9.475  69.070  1.00  0.00    -0.219 NA 
HETATM    9  N   UNL     1     -11.521  10.224  69.791  1.00  0.00    -0.259 NA 
HETATM   10  C   UNL     1     -11.296   9.863  71.059  1.00  0.00    -0.386 A  
BRANCH   8  11
HETATM   11  C   UNL     1     -10.471   9.582  67.642  1.00  0.00    -0.263 A  
HETATM   12  N   UNL     1     -10.818  10.746  67.038  1.00  0.00    -0.267 NA 
HETATM   13  C   UNL     1     -10.395  10.791  65.762  1.00  0.00    -0.230 A  
HETATM   14  C   UNL     1      -9.737   9.796  65.062  1.00  0.00    -0.233 A  
HETATM   15  N   UNL     1      -9.419  10.208  63.789  1.00  0.00    -0.291 NA 
HETATM   16  C   UNL     1      -9.513   8.595  65.748  1.00  0.00    -0.122 A  
HETATM   17  N   UNL     1      -8.911   7.487  65.167  1.00  0.00    -0.361 NA 
HETATM   18  N   UNL     1      -9.886   8.510  67.041  1.00  0.00    -0.200 NA 
HETATM   19  C   UNL     1      -9.838  11.453  63.729  1.00  0.00    -0.319 A  
HETATM   20  H1  UNL     1      -8.748   6.613  65.667  1.00  0.00     0.000 HD 
HETATM   21  N   UNL     1     -10.478  11.839  64.882  1.00  0.00    -0.273 NA 
HETATM   22  H2  UNL     1      -8.014   7.791  64.789  1.00  0.00     0.000 HD 
BRANCH  21  23
HETATM   23  C1* UNL     1     -11.066  13.142  65.084  1.00  0.00    -0.287 C  
HETATM   24  O4* UNL     1     -10.043  14.034  65.560  1.00  0.00    -0.322 OA 
HETATM   25  C4* UNL     1     -10.267  14.302  66.960  1.00  0.00    -0.260 C  
HETATM   26  C3* UNL     1     -11.703  13.874  67.300  1.00  0.00    -0.386 C  
HETATM   27  H2* UNL     1     -14.051  14.041  65.991  1.00  0.00     0.000 HD 
HETATM   28  C2* UNL     1     -12.262  13.225  66.030  1.00  0.00    -0.424 C  
HETATM   29  O2* UNL     1     -13.308  13.989  65.402  1.00  0.00    -0.721 OA 
HETATM   30  O3* UNL     1     -12.510  14.990  67.700  1.00  0.00    -0.350 OA 
HETATM   31  H3* UNL     1     -13.397  14.725  67.911  1.00  0.00     0.000 HD 
BRANCH  25  32
HETATM   32  C5* UNL     1      -9.189  13.583  67.783  1.00  0.00    -0.213 C  
HETATM   33  O5* UNL     1      -9.801  12.761  68.780  1.00  0.00    -0.403 OA 
HETATM   34  H5* UNL     1      -9.134  12.316  69.290  1.00  0.00     0.000 HD 
ENDBRANCH  25  32
ENDBRANCH  21  23
ENDBRANCH   8  11
ENDBRANCH   3   6
TORSDOF 4
ENDMDL
MODEL       28
REMARK 921   NORMALIZED FREE ENERGY PREDICTED BY IDOCK:   -7.33 KCAL/MOL
REMARK 922        TOTAL FREE ENERGY PREDICTED BY IDOCK:   -9.55 KCAL/MOL
REMARK 923 INTER-LIGAND FREE ENERGY PREDICTED BY IDOCK:   -8.53 KCAL/MOL
REMARK 924 INTRA-LIGAND FREE ENERGY PREDICTED BY IDOCK:   -1.02 KCAL/MOL
REMARK 927      BINDING AFFINITY PREDICTED BY RF-SCORE:    0.00 PKD
ROOT
HETATM    1  C   UNL     1     -10.056   7.711  73.375  1.00  0.00    -0.319 C  
HETATM    2  N   UNL     1     -10.023   8.347  72.085  1.00  0.00    -0.276 N  
HETATM    3  C   UNL     1     -11.097   9.064  71.602  1.00  0.00    -0.363 C  
HETATM    4  H   UNL     1      -9.183   8.266  71.513  1.00  0.00     0.000 HD 
HETATM    5  O   UNL     1     -12.145   9.212  72.220  1.00  0.00    -0.330 OA 
ENDROOT
BRANCH   3   6
HETATM    6  C   UNL     1     -10.889   9.654  70.287  1.00  0.00    -0.339 A  
HETATM    7  C   UNL     1     -11.108  10.954  69.882  1.00  0.00    -0.241 A  
HETATM    8  N   UNL     1     -10.797  11.041  68.539  1.00  0.00    -0.196 NA 
HETATM    9  N   UNL     1     -10.365   9.842  68.054  1.00  0.00    -0.190 NA 
HETATM   10  C   UNL     1     -10.415   9.025  69.111  1.00  0.00    -0.225 A  
BRANCH   8  11
HETATM   11  C   UNL     1     -10.977  12.220  67.729  1.00  0.00    -0.232 A  
HETATM   12  N   UNL     1     -10.090  13.238  67.866  1.00  0.00    -0.229 NA 
HETATM   13  C   UNL     1     -10.234  14.160  66.898  1.00  0.00    -0.267 A  
HETATM   14  C   UNL     1     -11.181  14.173  65.888  1.00  0.00    -0.313 A  
HETATM   15  N   UNL     1     -11.001  15.249  65.051  1.00  0.00    -0.416 NA 
HETATM   16  C   UNL     1     -12.112  13.127  65.893  1.00  0.00    -0.444 A  
HETATM   17  N   UNL     1     -13.152  13.028  64.978  1.00  0.00    -0.764 NA 
HETATM   18  N   UNL     1     -11.990  12.157  66.822  1.00  0.00    -0.615 NA 
HETATM   19  C   UNL     1      -9.933  15.858  65.517  1.00  0.00    -0.278 A  
HETATM   20  H1  UNL     1     -13.830  12.266  64.981  1.00  0.00     0.000 HD 
HETATM   21  N   UNL     1      -9.458  15.265  66.663  1.00  0.00    -0.242 NA 
HETATM   22  H2  UNL     1     -12.740  13.063  64.045  1.00  0.00     0.000 HD 
BRANCH  21  23
HETATM   23  C1* UNL     1      -8.316  15.740  67.407  1.00  0.00    -0.168 C  
HETATM   24  O4* UNL     1      -8.788  16.363  68.615  1.00  0.00    -0.213 OA 
HETATM   25  C4* UNL     1      -8.638  17.793  68.496  1.00  0.00    -0.291 C  
HETATM   26  C3* UNL     1      -7.683  18.074  67.326  1.00  0.00    -0.209 C  
HETATM   27  H2* UNL     1      -5.437  16.883  66.435  1.00  0.00     0.000 HD 
HETATM   28  C2* UNL     1      -7.379  16.713  66.694  1.00  0.00    -0.255 C  
HETATM   29  O2* UNL     1      -6.020  16.278  66.879  1.00  0.00    -0.326 OA 
HETATM   30  O3* UNL     1      -6.476  18.712  67.767  1.00  0.00    -0.206 OA 
HETATM   31  H3* UNL     1      -5.886  18.885  67.044  1.00  0.00     0.000 HD 
BRANCH  25  32
HETATM   32  C5* UNL     1     -10.028  18.427  68.334  1.00  0.00    -0.379 C  
HETATM   33  O5* UNL     1     -11.043  17.447  68.561  1.00  0.00    -0.207 OA 
HETATM   34  H5* UNL     1     -11.902  17.839  68.461  1.00  0.00     0.000 HD 
ENDBRANCH  25  32
ENDBRANCH  21  23
ENDBRANCH   8  11
ENDBRANCH   3   6
TORSDOF 4
ENDMDL
MODEL       29
REMARK 921   NORMALIZED FREE ENERGY PREDICTED BY IDOCK:   -7.32 KCAL/MOL
REMARK 922        TOTAL FREE ENERGY PREDICTED BY IDOCK:   -9.55 KCAL/MOL
REMARK 923 INTER-LIGAND FREE ENERGY PREDICTED BY IDOCK:   -8.89 KCAL/MOL
REMARK 924 INTRA-LIGAND FREE ENERGY PREDICTED BY IDOCK:   -0.65 KCAL/MOL
REMARK 927      BINDING AFFINITY PREDICTED BY RF-SCORE:    0.00 PKD
ROOT
HETATM    1  C   UNL     1     -11.271   5.893  70.664  1.00  0.00    -0.214 C  
HETATM    2  N   UNL     1     -11.545   7.305  70.642  1.00  0.00    -0.347 N  
HETATM    3  C   UNL     1     -12.460   7.879  71.497  1.00  0.00    -0.318 C  
HETATM    4  H   UNL     1     -11.049   7.896  69.975  1.00  0.00     0.000 HD 
HETATM    5  O   UNL     1     -13.101   7.245  72.327  1.00  0.00    -0.062 OA 
ENDROOT
BRANCH   3   6
HETATM    6  C   UNL     1     -12.603   9.321  71.350  1.00  0.00    -0.411 A  
HETATM    7  C   UNL     1     -12.077  10.144  70.376  1.00  0.00    -0.246 A  
HETATM    8  N   UNL     1     -12.454  11.441  70.664  1.00  0.00    -0.340 NA 
HETATM    9  N   UNL     1     -13.224  11.494  71.788  1.00  0.00    -0.432 NA 
HETATM   10  C   UNL     1     -13.314  10.219  72.182  1.00  0.00    -0.299 A  
BRANCH   8  11
HETATM   11  C   UNL     1     -12.029  12.604  69.924  1.00  0.00    -0.295 A  
HETATM   12  N   UNL     1     -12.081  12.559  68.569  1.00  0.00    -0.192 NA 
HETATM   13  C   UNL     1     -11.885  13.773  68.022  1.00  0.00    -0.373 A  
HETATM   14  C   UNL     1     -11.600  14.954  68.685  1.00  0.00    -0.318 A  
HETATM   15  N   UNL     1     -11.506  16.007  67.806  1.00  0.00    -0.163 NA 
HETATM   16  C   UNL     1     -11.470  14.872  70.077  1.00  0.00    -0.278 A  
HETATM   17  N   UNL     1     -11.138  15.958  70.876  1.00  0.00    -0.323 NA 
HETATM   18  N   UNL     1     -11.693  13.686  70.679  1.00  0.00    -0.132 NA 
HETATM   19  C   UNL     1     -11.774  15.484  66.629  1.00  0.00     0.278 A  
HETATM   20  H1  UNL     1     -11.044  15.898  71.889  1.00  0.00     0.000 HD 
HETATM   21  N   UNL     1     -11.964  14.124  66.700  1.00  0.00    -0.427 NA 
HETATM   22  H2  UNL     1     -11.810  16.699  70.677  1.00  0.00     0.000 HD 
BRANCH  21  23
HETATM   23  C1* UNL     1     -12.242  13.286  65.558  1.00  0.00    -0.457 C  
HETATM   24  O4* UNL     1     -11.962  11.922  65.916  1.00  0.00    -0.480 OA 
HETATM   25  C4* UNL     1     -10.747  11.504  65.259  1.00  0.00    -0.279 C  
HETATM   26  C3* UNL     1     -10.445  12.509  64.138  1.00  0.00    -0.403 C  
HETATM   27  H2* UNL     1     -11.983  13.837  62.369  1.00  0.00     0.000 HD 
HETATM   28  C2* UNL     1     -11.502  13.610  64.263  1.00  0.00    -0.366 C  
HETATM   29  O2* UNL     1     -12.443  13.635  63.175  1.00  0.00    -0.786 OA 
HETATM   30  O3* UNL     1     -10.501  11.894  62.843  1.00  0.00    -0.634 OA 
HETATM   31  H3* UNL     1     -10.313  12.515  62.150  1.00  0.00     0.000 HD 
BRANCH  25  32
HETATM   32  C5* UNL     1      -9.631  11.383  66.307  1.00  0.00    -0.213 C  
HETATM   33  O5* UNL     1      -8.914  12.616  66.404  1.00  0.00    -0.383 OA 
HETATM   34  H5* UNL     1      -8.223  12.541  67.052  1.00  0.00     0.000 HD 
ENDBRANCH  25  32
ENDBRANCH  21  23
ENDBRANCH   8  11
ENDBRANCH   3   6
TORSDOF 4
ENDMDL
MODEL       30
REMARK 921   NORMALIZED FREE ENERGY PREDICTED BY IDOCK:   -7.32 KCAL/MOL
REMARK 922        TOTAL FREE ENERGY PREDICTED BY IDOCK:   -9.55 KCAL/MOL
REMARK 923 INTER-LIGAND FREE ENERGY PREDICTED BY IDOCK:   -8.81 KCAL/MOL
REMARK 924 INTRA-LIGAND FREE ENERGY PREDICTED BY IDOCK:   -0.74 KCAL/MOL
REMARK 927      BINDING AFFINITY PREDICTED BY RF-SCORE:    0.00 PKD
ROOT
HETATM    1  C   UNL     1     -11.273   4.889  73.332  1.00  0.00    -0.338 C  
HETATM    2  N   UNL     1     -11.669   6.083  72.634  1.00  0.00    -0.494 N  
HETATM    3  C   UNL     1     -10.963   7.261  72.755  1.00  0.00    -0.323 C  
HETATM    4  H   UNL     1     -12.493   6.058  72.034  1.00  0.00     0.000 HD 
HETATM    5  O   UNL     1      -9.964   7.383  73.454  1.00  0.00    -0.253 OA 
ENDROOT
BRANCH   3   6
HETATM    6  C   UNL     1     -11.492   8.367  71.968  1.00  0.00    -0.418 A  
HETATM    7  C   UNL     1     -11.092   8.808  70.724  1.00  0.00    -0.260 A  
HETATM    8  N   UNL     1     -11.863   9.904  70.391  1.00  0.00    -0.257 NA 
HETATM    9  N   UNL     1     -12.768  10.187  71.371  1.00  0.00    -0.388 NA 
HETATM   10  C   UNL     1     -12.543   9.254  72.302  1.00  0.00    -0.332 A  
BRANCH   8  11
HETATM   11  C   UNL     1     -11.689  10.700  69.202  1.00  0.00    -0.253 A  
HETATM   12  N   UNL     1     -12.015  12.017  69.255  1.00  0.00    -0.295 NA 
HETATM   13  C   UNL     1     -11.587  12.681  68.166  1.00  0.00    -0.338 A  
HETATM   14  C   UNL     1     -10.942  12.152  67.062  1.00  0.00    -0.271 A  
HETATM   15  N   UNL     1     -10.613  13.135  66.159  1.00  0.00    -0.275 NA 
HETATM   16  C   UNL     1     -10.740  10.766  67.063  1.00  0.00    -0.265 A  
HETATM   17  N   UNL     1     -10.153  10.081  66.007  1.00  0.00    -0.260 NA 
HETATM   18  N   UNL     1     -11.118  10.058  68.147  1.00  0.00    -0.233 NA 
HETATM   19  C   UNL     1     -11.012  14.253  66.724  1.00  0.00    -0.304 A  
HETATM   20  H1  UNL     1     -10.006   9.072  66.008  1.00  0.00     0.000 HD 
HETATM   21  N   UNL     1     -11.650  14.028  67.921  1.00  0.00    -0.323 NA 
HETATM   22  H2  UNL     1      -9.251  10.519  65.825  1.00  0.00     0.000 HD 
BRANCH  21  23
HETATM   23  C1* UNL     1     -12.218  15.069  68.743  1.00  0.00    -0.082 C  
HETATM   24  O4* UNL     1     -11.496  16.289  68.496  1.00  0.00    -0.371 OA 
HETATM   25  C4* UNL     1     -10.659  16.577  69.635  1.00  0.00    -0.302 C  
HETATM   26  C3* UNL     1     -11.149  15.722  70.813  1.00  0.00    -0.341 C  
HETATM   27  H2* UNL     1     -13.588  14.984  71.686  1.00  0.00     0.000 HD 
HETATM   28  C2* UNL     1     -12.253  14.823  70.250  1.00  0.00    -0.338 C  
HETATM   29  O2* UNL     1     -13.566  15.138  70.749  1.00  0.00    -0.353 OA 
HETATM   30  O3* UNL     1     -11.647  16.531  71.887  1.00  0.00    -0.537 OA 
HETATM   31  H3* UNL     1     -11.950  16.001  72.615  1.00  0.00     0.000 HD 
BRANCH  25  32
HETATM   32  C5* UNL     1      -9.192  16.331  69.251  1.00  0.00    -0.192 C  
HETATM   33  O5* UNL     1      -8.846  14.965  69.489  1.00  0.00    -0.411 OA 
HETATM   34  H5* UNL     1      -7.940  14.812  69.252  1.00  0.00     0.000 HD 
ENDBRANCH  25  32
ENDBRANCH  21  23
ENDBRANCH   8  11
ENDBRANCH   3   6
TORSDOF 4
ENDMDL
MODEL       31
REMARK 921   NORMALIZED FREE ENERGY PREDICTED BY IDOCK:   -7.30 KCAL/MOL
REMARK 922        TOTAL FREE ENERGY PREDICTED BY IDOCK:   -9.52 KCAL/MOL
REMARK 923 INTER-LIGAND FREE ENERGY PREDICTED BY IDOCK:   -8.53 KCAL/MOL
REMARK 924 INTRA-LIGAND FREE ENERGY PREDICTED BY IDOCK:   -0.99 KCAL/MOL
REMARK 927      BINDING AFFINITY PREDICTED BY RF-SCORE:    0.00 PKD
ROOT
HETATM    1  C   UNL     1     -10.132  18.841  65.962  1.00  0.00    -0.317 C  
HETATM    2  N   UNL     1     -10.279  17.438  66.243  1.00  0.00    -0.340 N  
HETATM    3  C   UNL     1     -10.868  16.575  65.344  1.00  0.00    -0.206 C  
HETATM    4  H   UNL     1      -9.938  17.071  67.132  1.00  0.00     0.000 HD 
HETATM    5  O   UNL     1     -11.307  16.928  64.256  1.00  0.00    -1.202 OA 
ENDROOT
BRANCH   3   6
HETATM    6  C   UNL     1     -10.921  15.187  65.783  1.00  0.00    -0.350 A  
HETATM    7  C   UNL     1     -11.401  14.677  66.972  1.00  0.00    -0.355 A  
HETATM    8  N   UNL     1     -11.217  13.309  66.954  1.00  0.00    -0.296 NA 
HETATM    9  N   UNL     1     -10.645  12.902  65.785  1.00  0.00    -0.271 NA 
HETATM   10  C   UNL     1     -10.483  14.033  65.090  1.00  0.00    -0.397 A  
BRANCH   8  11
HETATM   11  C   UNL     1     -11.514  12.426  68.054  1.00  0.00    -0.322 A  
HETATM   12  N   UNL     1     -11.111  11.132  67.969  1.00  0.00    -0.252 NA 
HETATM   13  C   UNL     1     -11.240  10.491  69.145  1.00  0.00    -0.256 A  
HETATM   14  C   UNL     1     -11.764  10.997  70.321  1.00  0.00    -0.355 A  
HETATM   15  N   UNL     1     -11.699  10.069  71.334  1.00  0.00    -0.362 NA 
HETATM   16  C   UNL     1     -12.242  12.312  70.276  1.00  0.00    -0.262 A  
HETATM   17  N   UNL     1     -12.841  12.943  71.359  1.00  0.00    -0.341 NA 
HETATM   18  N   UNL     1     -12.103  13.012  69.132  1.00  0.00    -0.245 NA 
HETATM   19  C   UNL     1     -11.103   9.029  70.795  1.00  0.00    -0.272 A  
HETATM   20  H1  UNL     1     -13.189  13.901  71.326  1.00  0.00     0.000 HD 
HETATM   21  N   UNL     1     -10.847   9.216  69.457  1.00  0.00    -0.215 NA 
HETATM   22  H2  UNL     1     -12.191  12.883  72.143  1.00  0.00     0.000 HD 
BRANCH  21  23
HETATM   23  C1* UNL     1     -10.229   8.228  68.606  1.00  0.00    -0.204 C  
HETATM   24  O4* UNL     1      -8.801   8.381  68.693  1.00  0.00    -0.136 OA 
HETATM   25  C4* UNL     1      -8.316   8.969  67.468  1.00  0.00    -0.116 C  
HETATM   26  C3* UNL     1      -9.418   8.833  66.408  1.00  0.00    -0.228 C  
HETATM   27  H2* UNL     1     -11.189   6.893  65.806  1.00  0.00     0.000 HD 
HETATM   28  C2* UNL     1     -10.628   8.234  67.132  1.00  0.00    -0.270 C  
HETATM   29  O2* UNL     1     -10.940   6.890  66.723  1.00  0.00    -0.329 OA 
HETATM   30  O3* UNL     1      -9.009   7.994  65.319  1.00  0.00    -0.383 OA 
HETATM   31  H3* UNL     1      -9.691   7.910  64.664  1.00  0.00     0.000 HD 
BRANCH  25  32
HETATM   32  C5* UNL     1      -7.890  10.418  67.745  1.00  0.00    -0.101 C  
HETATM   33  O5* UNL     1      -8.462  11.291  66.769  1.00  0.00    -0.150 OA 
HETATM   34  H5* UNL     1      -8.199  12.188  66.941  1.00  0.00     0.000 HD 
ENDBRANCH  25  32
ENDBRANCH  21  23
ENDBRANCH   8  11
ENDBRANCH   3   6
TORSDOF 4
ENDMDL
MODEL       32
REMARK 921   NORMALIZED FREE ENERGY PREDICTED BY IDOCK:   -7.24 KCAL/MOL
REMARK 922        TOTAL FREE ENERGY PREDICTED BY IDOCK:   -9.44 KCAL/MOL
REMARK 923 INTER-LIGAND FREE ENERGY PREDICTED BY IDOCK:   -8.42 KCAL/MOL
REMARK 924 INTRA-LIGAND FREE ENERGY PREDICTED BY IDOCK:   -1.02 KCAL/MOL
REMARK 927      BINDING AFFINITY PREDICTED BY RF-SCORE:    0.00 PKD
ROOT
HETATM    1  C   UNL     1      -7.841  20.792  67.303  1.00  0.00    -0.240 C  
HETATM    2  N   UNL     1      -8.420  19.477  67.231  1.00  0.00    -0.290 N  
HETATM    3  C   UNL     1      -9.615  19.177  67.849  1.00  0.00    -0.325 C  
HETATM    4  H   UNL     1      -7.934  18.748  66.709  1.00  0.00     0.000 HD 
HETATM    5  O   UNL     1     -10.265  19.989  68.496  1.00  0.00    -0.442 OA 
ENDROOT
BRANCH   3   6
HETATM    6  C   UNL     1     -10.064  17.804  67.662  1.00  0.00    -0.342 A  
HETATM    7  C   UNL     1      -9.786  16.941  66.622  1.00  0.00    -0.271 A  
HETATM    8  N   UNL     1     -10.455  15.757  66.860  1.00  0.00    -0.311 NA 
HETATM    9  N   UNL     1     -11.152  15.810  68.031  1.00  0.00    -0.332 NA 
HETATM   10  C   UNL     1     -10.901  17.035  68.505  1.00  0.00    -0.310 A  
BRANCH   8  11
HETATM   11  C   UNL     1     -10.484  14.633  65.957  1.00  0.00    -0.305 A  
HETATM   12  N   UNL     1      -9.749  13.536  66.269  1.00  0.00    -0.289 NA 
HETATM   13  C   UNL     1     -10.050  12.492  65.476  1.00  0.00    -0.265 A  
HETATM   14  C   UNL     1     -10.939  12.474  64.416  1.00  0.00    -0.340 A  
HETATM   15  N   UNL     1     -11.024  11.219  63.859  1.00  0.00    -0.369 NA 
HETATM   16  C   UNL     1     -11.574  13.685  64.114  1.00  0.00    -0.352 A  
HETATM   17  N   UNL     1     -12.453  13.840  63.051  1.00  0.00    -1.000 NA 
HETATM   18  N   UNL     1     -11.335  14.754  64.901  1.00  0.00    -0.395 NA 
HETATM   19  C   UNL     1     -10.233  10.473  64.597  1.00  0.00    -0.294 A  
HETATM   20  H1  UNL     1     -12.916  14.722  62.832  1.00  0.00     0.000 HD 
HETATM   21  N   UNL     1      -9.583  11.207  65.562  1.00  0.00    -0.217 NA 
HETATM   22  H2  UNL     1     -13.181  13.133  63.153  1.00  0.00     0.000 HD 
BRANCH  21  23
HETATM   23  C1* UNL     1      -8.630  10.652  66.494  1.00  0.00    -0.142 C  
HETATM   24  O4* UNL     1      -9.355   9.994  67.548  1.00  0.00    -0.143 OA 
HETATM   25  C4* UNL     1      -9.266  10.790  68.747  1.00  0.00    -0.189 C  
HETATM   26  C3* UNL     1      -8.124  11.800  68.562  1.00  0.00    -0.140 C  
HETATM   27  H2* UNL     1      -5.687  11.662  67.422  1.00  0.00     0.000 HD 
HETATM   28  C2* UNL     1      -7.631  11.621  67.124  1.00  0.00    -0.152 C  
HETATM   29  O2* UNL     1      -6.309  11.060  67.031  1.00  0.00    -0.070 OA 
HETATM   30  O3* UNL     1      -7.060  11.577  69.498  1.00  0.00    -0.275 OA 
HETATM   31  H3* UNL     1      -6.354  12.203  69.383  1.00  0.00     0.000 HD 
BRANCH  25  32
HETATM   32  C5* UNL     1     -10.633  11.434  69.020  1.00  0.00    -0.191 C  
HETATM   33  O5* UNL     1     -10.495  12.854  69.112  1.00  0.00    -0.430 OA 
HETATM   34  H5* UNL     1     -11.341  13.253  69.281  1.00  0.00     0.000 HD 
ENDBRANCH  25  32
ENDBRANCH  21  23
ENDBRANCH   8  11
ENDBRANCH   3   6
TORSDOF 4
ENDMDL
MODEL       33
REMARK 921   NORMALIZED FREE ENERGY PREDICTED BY IDOCK:   -7.20 KCAL/MOL
REMARK 922        TOTAL FREE ENERGY PREDICTED BY IDOCK:   -9.40 KCAL/MOL
REMARK 923 INTER-LIGAND FREE ENERGY PREDICTED BY IDOCK:   -8.56 KCAL/MOL
REMARK 924 INTRA-LIGAND FREE ENERGY PREDICTED BY IDOCK:   -0.84 KCAL/MOL
REMARK 927      BINDING AFFINITY PREDICTED BY RF-SCORE:    0.00 PKD
ROOT
HETATM    1  C   UNL     1     -10.505  16.213  66.465  1.00  0.00    -0.297 C  
HETATM    2  N   UNL     1     -10.787  15.313  67.550  1.00  0.00    -0.297 N  
HETATM    3  C   UNL     1     -11.728  14.311  67.435  1.00  0.00    -0.394 C  
HETATM    4  H   UNL     1     -10.279  15.417  68.428  1.00  0.00     0.000 HD 
HETATM    5  O   UNL     1     -12.385  14.113  66.420  1.00  0.00    -0.460 OA 
ENDROOT
BRANCH   3   6
HETATM    6  C   UNL     1     -11.876  13.482  68.623  1.00  0.00    -0.404 A  
HETATM    7  C   UNL     1     -11.898  12.105  68.716  1.00  0.00    -0.303 A  
HETATM    8  N   UNL     1     -12.091  11.770  70.042  1.00  0.00    -0.323 NA 
HETATM    9  N   UNL     1     -12.180  12.883  70.825  1.00  0.00    -0.340 NA 
HETATM   10  C   UNL     1     -12.040  13.898  69.966  1.00  0.00    -0.345 A  
BRANCH   8  11
HETATM   11  C   UNL     1     -12.256  10.425  70.533  1.00  0.00    -0.323 A  
HETATM   12  N   UNL     1     -11.506   9.439  69.978  1.00  0.00    -0.143 NA 
HETATM   13  C   UNL     1     -11.586   8.295  70.680  1.00  0.00    -0.191 A  
HETATM   14  C   UNL     1     -12.359   8.054  71.802  1.00  0.00    -0.319 A  
HETATM   15  N   UNL     1     -12.156   6.781  72.282  1.00  0.00    -0.227 NA 
HETATM   16  C   UNL     1     -13.173   9.107  72.237  1.00  0.00    -0.461 A  
HETATM   17  N   UNL     1     -14.041   9.004  73.316  1.00  0.00    -1.211 NA 
HETATM   18  N   UNL     1     -13.103  10.288  71.590  1.00  0.00    -0.428 NA 
HETATM   19  C   UNL     1     -11.240   6.269  71.490  1.00  0.00    -0.290 A  
HETATM   20  H1  UNL     1     -14.633   9.771  73.633  1.00  0.00     0.000 HD 
HETATM   21  N   UNL     1     -10.895   7.130  70.475  1.00  0.00    -0.239 NA 
HETATM   22  H2  UNL     1     -13.493   8.692  74.118  1.00  0.00     0.000 HD 
BRANCH  21  23
HETATM   23  C1* UNL     1      -9.936   6.819  69.442  1.00  0.00    -0.157 C  
HETATM   24  O4* UNL     1      -8.622   7.147  69.927  1.00  0.00    -0.138 OA 
HETATM   25  C4* UNL     1      -8.159   8.340  69.260  1.00  0.00    -0.116 C  
HETATM   26  C3* UNL     1      -9.045   8.566  68.026  1.00  0.00    -0.140 C  
HETATM   27  H2* UNL     1     -10.150   6.918  66.203  1.00  0.00     0.000 HD 
HETATM   28  C2* UNL     1     -10.134   7.491  68.085  1.00  0.00    -0.183 C  
HETATM   29  O2* UNL     1     -10.027   6.500  67.047  1.00  0.00    -0.145 OA 
HETATM   30  O3* UNL     1      -8.295   8.465  66.807  1.00  0.00    -0.107 OA 
HETATM   31  H3* UNL     1      -8.843   8.606  66.044  1.00  0.00     0.000 HD 
BRANCH  25  32
HETATM   32  C5* UNL     1      -8.170   9.506  70.259  1.00  0.00    -0.187 C  
HETATM   33  O5* UNL     1      -8.872  10.621  69.704  1.00  0.00    -0.394 OA 
HETATM   34  H5* UNL     1      -8.878  11.342  70.322  1.00  0.00     0.000 HD 
ENDBRANCH  25  32
ENDBRANCH  21  23
ENDBRANCH   8  11
ENDBRANCH   3   6
TORSDOF 4
ENDMDL
MODEL       34
REMARK 921   NORMALIZED FREE ENERGY PREDICTED BY IDOCK:   -7.16 KCAL/MOL
REMARK 922        TOTAL FREE ENERGY PREDICTED BY IDOCK:   -9.35 KCAL/MOL
REMARK 923 INTER-LIGAND FREE ENERGY PREDICTED BY IDOCK:   -8.53 KCAL/MOL
REMARK 924 INTRA-LIGAND FREE ENERGY PREDICTED BY IDOCK:   -0.82 KCAL/MOL
REMARK 927      BINDING AFFINITY PREDICTED BY RF-SCORE:    0.00 PKD
ROOT
HETATM    1  C   UNL     1     -12.512  15.614  74.546  1.00  0.00    -0.588 C  
HETATM    2  N   UNL     1     -12.206  15.656  73.142  1.00  0.00    -0.431 N  
HETATM    3  C   UNL     1     -12.672  14.696  72.269  1.00  0.00    -0.335 C  
HETATM    4  H   UNL     1     -11.628  16.416  72.781  1.00  0.00     0.000 HD 
HETATM    5  O   UNL     1     -13.370  13.750  72.614  1.00  0.00    -0.526 OA 
ENDROOT
BRANCH   3   6
HETATM    6  C   UNL     1     -12.281  14.900  70.881  1.00  0.00    -0.389 A  
HETATM    7  C   UNL     1     -12.161  13.965  69.874  1.00  0.00    -0.344 A  
HETATM    8  N   UNL     1     -11.734  14.618  68.734  1.00  0.00    -0.314 NA 
HETATM    9  N   UNL     1     -11.586  15.955  68.957  1.00  0.00    -0.390 NA 
HETATM   10  C   UNL     1     -11.926  16.111  70.240  1.00  0.00    -0.064 A  
BRANCH   8  11
HETATM   11  C   UNL     1     -11.409  13.969  67.488  1.00  0.00    -0.321 A  
HETATM   12  N   UNL     1     -10.755  12.780  67.533  1.00  0.00    -0.227 NA 
HETATM   13  C   UNL     1     -10.727  12.181  66.329  1.00  0.00    -0.261 A  
HETATM   14  C   UNL     1     -11.224  12.675  65.136  1.00  0.00    -0.301 A  
HETATM   15  N   UNL     1     -11.057  11.769  64.114  1.00  0.00    -0.353 NA 
HETATM   16  C   UNL     1     -11.792  13.954  65.179  1.00  0.00    -0.362 A  
HETATM   17  N   UNL     1     -12.288  14.606  64.057  1.00  0.00    -0.999 NA 
HETATM   18  N   UNL     1     -11.878  14.584  66.368  1.00  0.00    -0.375 NA 
HETATM   19  C   UNL     1     -10.507  10.721  64.685  1.00  0.00    -0.276 A  
HETATM   20  H1  UNL     1     -12.702  15.537  64.089  1.00  0.00     0.000 HD 
HETATM   21  N   UNL     1     -10.243  10.937  66.017  1.00  0.00    -0.247 NA 
HETATM   22  H2  UNL     1     -12.971  13.986  63.622  1.00  0.00     0.000 HD 
BRANCH  21  23
HETATM   23  C1* UNL     1      -9.614   9.970  66.885  1.00  0.00    -0.175 C  
HETATM   24  O4* UNL     1      -8.386  10.533  67.380  1.00  0.00    -0.121 OA 
HETATM   25  C4* UNL     1      -7.275   9.884  66.728  1.00  0.00    -0.091 C  
HETATM   26  C3* UNL     1      -7.795   8.594  66.076  1.00  0.00    -0.102 C  
HETATM   27  H2* UNL     1      -9.583   6.724  66.826  1.00  0.00     0.000 HD 
HETATM   28  C2* UNL     1      -9.312   8.596  66.289  1.00  0.00    -0.220 C  
HETATM   29  O2* UNL     1      -9.771   7.578  67.197  1.00  0.00    -0.150 OA 
HETATM   30  O3* UNL     1      -7.201   7.427  66.659  1.00  0.00    -0.076 OA 
HETATM   31  H3* UNL     1      -7.522   6.629  66.255  1.00  0.00     0.000 HD 
BRANCH  25  32
HETATM   32  C5* UNL     1      -6.633  10.869  65.740  1.00  0.00    -0.005 C  
HETATM   33  O5* UNL     1      -6.138  12.012  66.440  1.00  0.00    -0.487 OA 
HETATM   34  H5* UNL     1      -5.740  12.621  65.829  1.00  0.00     0.000 HD 
ENDBRANCH  25  32
ENDBRANCH  21  23
ENDBRANCH   8  11
ENDBRANCH   3   6
TORSDOF 4
ENDMDL
MODEL       35
REMARK 921   NORMALIZED FREE ENERGY PREDICTED BY IDOCK:   -7.16 KCAL/MOL
REMARK 922        TOTAL FREE ENERGY PREDICTED BY IDOCK:   -9.34 KCAL/MOL
REMARK 923 INTER-LIGAND FREE ENERGY PREDICTED BY IDOCK:   -9.04 KCAL/MOL
REMARK 924 INTRA-LIGAND FREE ENERGY PREDICTED BY IDOCK:   -0.30 KCAL/MOL
REMARK 927      BINDING AFFINITY PREDICTED BY RF-SCORE:    0.00 PKD
ROOT
HETATM    1  C   UNL     1      -9.575   4.987  74.115  1.00  0.00    -0.132 C  
HETATM    2  N   UNL     1      -9.735   5.948  73.057  1.00  0.00    -0.154 N  
HETATM    3  C   UNL     1     -10.941   6.121  72.411  1.00  0.00    -0.259 C  
HETATM    4  H   UNL     1      -8.936   6.516  72.777  1.00  0.00     0.000 HD 
HETATM    5  O   UNL     1     -11.951   5.483  72.681  1.00  0.00    -0.245 OA 
ENDROOT
BRANCH   3   6
HETATM    6  C   UNL     1     -10.930   7.146  71.376  1.00  0.00    -0.258 A  
HETATM    7  C   UNL     1     -11.052   8.513  71.516  1.00  0.00    -0.275 A  
HETATM    8  N   UNL     1     -11.016   9.076  70.255  1.00  0.00    -0.241 NA 
HETATM    9  N   UNL     1     -10.858   8.123  69.293  1.00  0.00    -0.119 NA 
HETATM   10  C   UNL     1     -10.798   6.976  69.977  1.00  0.00    -0.261 A  
BRANCH   8  11
HETATM   11  C   UNL     1     -11.199  10.479  69.977  1.00  0.00    -0.315 A  
HETATM   12  N   UNL     1     -10.730  10.969  68.801  1.00  0.00    -0.190 NA 
HETATM   13  C   UNL     1     -11.172  12.218  68.570  1.00  0.00    -0.271 A  
HETATM   14  C   UNL     1     -11.957  12.996  69.401  1.00  0.00    -0.281 A  
HETATM   15  N   UNL     1     -12.251  14.207  68.819  1.00  0.00    -0.280 NA 
HETATM   16  C   UNL     1     -12.307  12.433  70.635  1.00  0.00    -0.279 A  
HETATM   17  N   UNL     1     -13.048  13.107  71.597  1.00  0.00    -0.383 NA 
HETATM   18  N   UNL     1     -11.920  11.169  70.902  1.00  0.00    -0.311 NA 
HETATM   19  C   UNL     1     -11.689  14.150  67.632  1.00  0.00    -0.387 A  
HETATM   20  H1  UNL     1     -13.302  12.697  72.495  1.00  0.00     0.000 HD 
HETATM   21  N   UNL     1     -10.983  12.984  67.449  1.00  0.00    -0.254 NA 
HETATM   22  H2  UNL     1     -13.910  13.421  71.152  1.00  0.00     0.000 HD 
BRANCH  21  23
HETATM   23  C1* UNL     1     -10.241  12.667  66.252  1.00  0.00    -0.251 C  
HETATM   24  O4* UNL     1      -9.996  13.888  65.532  1.00  0.00    -0.299 OA 
HETATM   25  C4* UNL     1     -10.841  13.922  64.363  1.00  0.00    -0.290 C  
HETATM   26  C3* UNL     1     -11.367  12.500  64.117  1.00  0.00    -0.380 C  
HETATM   27  H2* UNL     1     -10.268  10.049  64.332  1.00  0.00     0.000 HD 
HETATM   28  C2* UNL     1     -10.868  11.656  65.295  1.00  0.00    -0.283 C  
HETATM   29  O2* UNL     1      -9.878  10.678  64.928  1.00  0.00    -0.252 OA 
HETATM   30  O3* UNL     1     -10.895  11.966  62.872  1.00  0.00    -0.650 OA 
HETATM   31  H3* UNL     1     -11.221  11.087  62.721  1.00  0.00     0.000 HD 
BRANCH  25  32
HETATM   32  C5* UNL     1     -11.945  14.968  64.576  1.00  0.00    -0.371 C  
HETATM   33  O5* UNL     1     -11.590  16.192  63.928  1.00  0.00    -1.369 OA 
HETATM   34  H5* UNL     1     -12.273  16.840  64.059  1.00  0.00     0.000 HD 
ENDBRANCH  25  32
ENDBRANCH  21  23
ENDBRANCH   8  11
ENDBRANCH   3   6
TORSDOF 4
ENDMDL
MODEL       36
REMARK 921   NORMALIZED FREE ENERGY PREDICTED BY IDOCK:   -7.12 KCAL/MOL
REMARK 922        TOTAL FREE ENERGY PREDICTED BY IDOCK:   -9.29 KCAL/MOL
REMARK 923 INTER-LIGAND FREE ENERGY PREDICTED BY IDOCK:   -8.44 KCAL/MOL
REMARK 924 INTRA-LIGAND FREE ENERGY PREDICTED BY IDOCK:   -0.85 KCAL/MOL
REMARK 927      BINDING AFFINITY PREDICTED BY RF-SCORE:    0.00 PKD
ROOT
HETATM    1  C   UNL     1      -7.866   7.293  64.154  1.00  0.00    -0.118 C  
HETATM    2  N   UNL     1      -8.530   8.522  64.499  1.00  0.00    -0.330 N  
HETATM    3  C   UNL     1      -8.990   9.393  63.535  1.00  0.00    -0.115 C  
HETATM    4  H   UNL     1      -8.665   8.754  65.483  1.00  0.00     0.000 HD 
HETATM    5  O   UNL     1      -8.870   9.195  62.332  1.00  0.00    -0.232 OA 
ENDROOT
BRANCH   3   6
HETATM    6  C   UNL     1      -9.651  10.580  64.058  1.00  0.00    -0.367 A  
HETATM    7  C   UNL     1      -9.377  11.279  65.216  1.00  0.00    -0.203 A  
HETATM    8  N   UNL     1     -10.285  12.316  65.313  1.00  0.00    -0.275 NA 
HETATM    9  N   UNL     1     -11.136  12.329  64.248  1.00  0.00    -0.323 NA 
HETATM   10  C   UNL     1     -10.740  11.293  63.501  1.00  0.00    -0.335 A  
BRANCH   8  11
HETATM   11  C   UNL     1     -10.379  13.223  66.429  1.00  0.00    -0.286 A  
HETATM   12  N   UNL     1     -10.128  14.540  66.213  1.00  0.00    -0.284 NA 
HETATM   13  C   UNL     1     -10.479  15.294  67.269  1.00  0.00    -0.275 A  
HETATM   14  C   UNL     1     -10.981  14.857  68.482  1.00  0.00    -0.255 A  
HETATM   15  N   UNL     1     -11.267  15.914  69.314  1.00  0.00    -0.310 NA 
HETATM   16  C   UNL     1     -11.110  13.471  68.640  1.00  0.00    -0.269 A  
HETATM   17  N   UNL     1     -11.551  12.875  69.814  1.00  0.00    -0.477 NA 
HETATM   18  N   UNL     1     -10.807  12.671  67.598  1.00  0.00    -0.216 NA 
HETATM   19  C   UNL     1     -10.985  16.983  68.602  1.00  0.00    -0.217 A  
HETATM   20  H1  UNL     1     -11.645  11.867  69.929  1.00  0.00     0.000 HD 
HETATM   21  N   UNL     1     -10.460  16.661  67.372  1.00  0.00    -0.315 NA 
HETATM   22  H2  UNL     1     -12.452  13.292  70.047  1.00  0.00     0.000 HD 
BRANCH  21  23
HETATM   23  C1* UNL     1     -10.032  17.634  66.396  1.00  0.00    -0.334 C  
HETATM   24  O4* UNL     1      -8.661  17.364  66.055  1.00  0.00    -0.499 OA 
HETATM   25  C4* UNL     1      -7.822  18.375  66.650  1.00  0.00    -0.248 C  
HETATM   26  C3* UNL     1      -8.718  19.551  67.066  1.00  0.00    -0.305 C  
HETATM   27  H2* UNL     1     -10.860  20.742  65.947  1.00  0.00     0.000 HD 
HETATM   28  C2* UNL     1     -10.156  19.106  66.783  1.00  0.00    -0.381 C  
HETATM   29  O2* UNL     1     -10.783  19.826  65.706  1.00  0.00    -0.512 OA 
HETATM   30  O3* UNL     1      -8.401  20.745  66.337  1.00  0.00    -0.498 OA 
HETATM   31  H3* UNL     1      -8.955  21.472  66.594  1.00  0.00     0.000 HD 
BRANCH  25  32
HETATM   32  C5* UNL     1      -7.033  17.749  67.810  1.00  0.00    -0.187 C  
HETATM   33  O5* UNL     1      -7.350  18.417  69.033  1.00  0.00    -0.277 OA 
HETATM   34  H5* UNL     1      -6.863  18.030  69.751  1.00  0.00     0.000 HD 
ENDBRANCH  25  32
ENDBRANCH  21  23
ENDBRANCH   8  11
ENDBRANCH   3   6
TORSDOF 4
ENDMDL
MODEL       37
REMARK 921   NORMALIZED FREE ENERGY PREDICTED BY IDOCK:   -7.10 KCAL/MOL
REMARK 922        TOTAL FREE ENERGY PREDICTED BY IDOCK:   -9.27 KCAL/MOL
REMARK 923 INTER-LIGAND FREE ENERGY PREDICTED BY IDOCK:   -8.91 KCAL/MOL
REMARK 924 INTRA-LIGAND FREE ENERGY PREDICTED BY IDOCK:   -0.36 KCAL/MOL
REMARK 927      BINDING AFFINITY PREDICTED BY RF-SCORE:    0.00 PKD
ROOT
HETATM    1  C   UNL     1     -11.388   6.312  70.043  1.00  0.00    -0.416 C  
HETATM    2  N   UNL     1     -11.102   7.406  69.154  1.00  0.00    -0.435 N  
HETATM    3  C   UNL     1     -10.129   8.339  69.442  1.00  0.00    -0.198 C  
HETATM    4  H   UNL     1     -11.633   7.493  68.287  1.00  0.00     0.000 HD 
HETATM    5  O   UNL     1      -9.445   8.312  70.458  1.00  0.00    -0.163 OA 
ENDROOT
BRANCH   3   6
HETATM    6  C   UNL     1      -9.960   9.369  68.426  1.00  0.00    -0.191 A  
HETATM    7  C   UNL     1     -10.847  10.353  68.041  1.00  0.00    -0.270 A  
HETATM    8  N   UNL     1     -10.262  11.078  67.021  1.00  0.00    -0.203 NA 
HETATM    9  N   UNL     1      -9.013  10.612  66.736  1.00  0.00    -0.138 NA 
HETATM   10  C   UNL     1      -8.841   9.598  67.590  1.00  0.00    -0.125 A  
BRANCH   8  11
HETATM   11  C   UNL     1     -10.910  12.141  66.293  1.00  0.00    -0.282 A  
HETATM   12  N   UNL     1     -10.497  13.415  66.509  1.00  0.00    -0.279 NA 
HETATM   13  C   UNL     1     -11.013  14.267  65.606  1.00  0.00    -0.309 A  
HETATM   14  C   UNL     1     -11.907  13.972  64.592  1.00  0.00    -0.417 A  
HETATM   15  N   UNL     1     -12.185  15.086  63.834  1.00  0.00    -0.574 NA 
HETATM   16  C   UNL     1     -12.348  12.645  64.516  1.00  0.00    -0.464 A  
HETATM   17  N   UNL     1     -13.281  12.204  63.587  1.00  0.00    -0.664 NA 
HETATM   18  N   UNL     1     -11.833  11.743  65.375  1.00  0.00    -0.264 NA 
HETATM   19  C   UNL     1     -11.437  16.035  64.350  1.00  0.00    -0.242 A  
HETATM   20  H1  UNL     1     -13.602  11.238  63.531  1.00  0.00     0.000 HD 
HETATM   21  N   UNL     1     -10.743  15.602  65.456  1.00  0.00    -0.371 NA 
HETATM   22  H2  UNL     1     -12.935  12.462  62.663  1.00  0.00     0.000 HD 
BRANCH  21  23
HETATM   23  C1* UNL     1      -9.868  16.441  66.241  1.00  0.00    -0.314 C  
HETATM   24  O4* UNL     1      -9.623  15.789  67.499  1.00  0.00    -0.221 OA 
HETATM   25  C4* UNL     1     -10.347  16.482  68.537  1.00  0.00    -0.289 C  
HETATM   26  C3* UNL     1     -10.764  17.854  67.988  1.00  0.00    -0.294 C  
HETATM   27  H2* UNL     1      -9.554  19.668  66.405  1.00  0.00     0.000 HD 
HETATM   28  C2* UNL     1     -10.338  17.867  66.517  1.00  0.00    -0.362 C  
HETATM   29  O2* UNL     1      -9.263  18.781  66.234  1.00  0.00    -0.367 OA 
HETATM   30  O3* UNL     1     -10.141  18.927  68.709  1.00  0.00    -0.388 OA 
HETATM   31  H3* UNL     1     -10.399  19.775  68.369  1.00  0.00     0.000 HD 
BRANCH  25  32
HETATM   32  C5* UNL     1     -11.524  15.607  68.992  1.00  0.00    -0.363 C  
HETATM   33  O5* UNL     1     -11.108  14.738  70.049  1.00  0.00    -0.305 OA 
HETATM   34  H5* UNL     1     -11.836  14.197  70.331  1.00  0.00     0.000 HD 
ENDBRANCH  25  32
ENDBRANCH  21  23
ENDBRANCH   8  11
ENDBRANCH   3   6
TORSDOF 4
ENDMDL
MODEL       38
REMARK 921   NORMALIZED FREE ENERGY PREDICTED BY IDOCK:   -7.09 KCAL/MOL
REMARK 922        TOTAL FREE ENERGY PREDICTED BY IDOCK:   -9.27 KCAL/MOL
REMARK 923 INTER-LIGAND FREE ENERGY PREDICTED BY IDOCK:   -8.79 KCAL/MOL
REMARK 924 INTRA-LIGAND FREE ENERGY PREDICTED BY IDOCK:   -0.47 KCAL/MOL
REMARK 927      BINDING AFFINITY PREDICTED BY RF-SCORE:    0.00 PKD
ROOT
HETATM    1  C   UNL     1     -13.686  13.797  72.540  1.00  0.00    -0.561 C  
HETATM    2  N   UNL     1     -13.091  14.015  71.248  1.00  0.00    -0.336 N  
HETATM    3  C   UNL     1     -12.470  15.202  70.927  1.00  0.00    -0.365 C  
HETATM    4  H   UNL     1     -13.131  13.271  70.552  1.00  0.00     0.000 HD 
HETATM    5  O   UNL     1     -12.377  16.148  71.700  1.00  0.00    -0.442 OA 
ENDROOT
BRANCH   3   6
HETATM    6  C   UNL     1     -11.909  15.247  69.584  1.00  0.00    -0.363 A  
HETATM    7  C   UNL     1     -11.915  14.265  68.614  1.00  0.00    -0.313 A  
HETATM    8  N   UNL     1     -11.238  14.750  67.512  1.00  0.00    -0.320 NA 
HETATM    9  N   UNL     1     -10.802  16.024  67.721  1.00  0.00    -0.326 NA 
HETATM   10  C   UNL     1     -11.218  16.312  68.959  1.00  0.00    -0.326 A  
BRANCH   8  11
HETATM   11  C   UNL     1     -10.956  13.987  66.321  1.00  0.00    -0.300 A  
HETATM   12  N   UNL     1      -9.999  13.027  66.383  1.00  0.00    -0.271 NA 
HETATM   13  C   UNL     1     -10.005  12.246  65.288  1.00  0.00    -0.230 A  
HETATM   14  C   UNL     1     -10.811  12.376  64.170  1.00  0.00    -0.372 A  
HETATM   15  N   UNL     1     -10.569  11.371  63.263  1.00  0.00    -0.351 NA 
HETATM   16  C   UNL     1     -11.698  13.460  64.164  1.00  0.00    -0.419 A  
HETATM   17  N   UNL     1     -12.535  13.753  63.096  1.00  0.00    -1.074 NA 
HETATM   18  N   UNL     1     -11.758  14.252  65.254  1.00  0.00    -0.345 NA 
HETATM   19  C   UNL     1      -9.662  10.614  63.838  1.00  0.00    -0.321 A  
HETATM   20  H1  UNL     1     -13.181  14.542  63.092  1.00  0.00     0.000 HD 
HETATM   21  N   UNL     1      -9.252  11.127  65.046  1.00  0.00    -0.200 NA 
HETATM   22  H2  UNL     1     -13.080  12.914  62.897  1.00  0.00     0.000 HD 
BRANCH  21  23
HETATM   23  C1* UNL     1      -8.242  10.520  65.881  1.00  0.00    -0.152 C  
HETATM   24  O4* UNL     1      -8.401   9.092  65.821  1.00  0.00    -0.117 OA 
HETATM   25  C4* UNL     1      -8.957   8.628  67.069  1.00  0.00    -0.133 C  
HETATM   26  C3* UNL     1      -8.791   9.747  68.107  1.00  0.00    -0.119 C  
HETATM   27  H2* UNL     1      -6.834  11.522  68.630  1.00  0.00     0.000 HD 
HETATM   28  C2* UNL     1      -8.209  10.943  67.348  1.00  0.00    -0.117 C  
HETATM   29  O2* UNL     1      -6.854  11.259  67.717  1.00  0.00    -0.069 OA 
HETATM   30  O3* UNL     1      -7.925   9.353  69.180  1.00  0.00    -0.086 OA 
HETATM   31  H3* UNL     1      -7.823  10.046  69.822  1.00  0.00     0.000 HD 
BRANCH  25  32
HETATM   32  C5* UNL     1     -10.414   8.201  66.836  1.00  0.00    -0.309 C  
HETATM   33  O5* UNL     1     -10.457   6.869  66.317  1.00  0.00    -0.454 OA 
HETATM   34  H5* UNL     1     -11.358   6.605  66.174  1.00  0.00     0.000 HD 
ENDBRANCH  25  32
ENDBRANCH  21  23
ENDBRANCH   8  11
ENDBRANCH   3   6
TORSDOF 4
ENDMDL
MODEL       39
REMARK 921   NORMALIZED FREE ENERGY PREDICTED BY IDOCK:   -7.08 KCAL/MOL
REMARK 922        TOTAL FREE ENERGY PREDICTED BY IDOCK:   -9.25 KCAL/MOL
REMARK 923 INTER-LIGAND FREE ENERGY PREDICTED BY IDOCK:   -8.36 KCAL/MOL
REMARK 924 INTRA-LIGAND FREE ENERGY PREDICTED BY IDOCK:   -0.89 KCAL/MOL
REMARK 927      BINDING AFFINITY PREDICTED BY RF-SCORE:    0.00 PKD
ROOT
HETATM    1  C   UNL     1     -11.382   6.483  69.847  1.00  0.00    -0.406 C  
HETATM    2  N   UNL     1     -10.950   7.552  68.988  1.00  0.00    -0.424 N  
HETATM    3  C   UNL     1     -10.846   7.389  67.622  1.00  0.00    -0.149 C  
HETATM    4  H   UNL     1     -10.714   8.455  69.399  1.00  0.00     0.000 HD 
HETATM    5  O   UNL     1     -11.108   6.340  67.045  1.00  0.00    -0.362 OA 
ENDROOT
BRANCH   3   6
HETATM    6  C   UNL     1     -10.409   8.577  66.903  1.00  0.00    -0.367 A  
HETATM    7  C   UNL     1     -10.905   9.862  66.981  1.00  0.00    -0.116 A  
HETATM    8  N   UNL     1     -10.197  10.647  66.092  1.00  0.00    -0.247 NA 
HETATM    9  N   UNL     1      -9.241   9.921  65.445  1.00  0.00    -0.193 NA 
HETATM   10  C   UNL     1      -9.372   8.689  65.946  1.00  0.00    -0.195 A  
BRANCH   8  11
HETATM   11  C   UNL     1     -10.476  12.035  65.819  1.00  0.00    -0.254 A  
HETATM   12  N   UNL     1      -9.703  12.977  66.417  1.00  0.00    -0.265 NA 
HETATM   13  C   UNL     1      -9.916  14.200  65.898  1.00  0.00    -0.311 A  
HETATM   14  C   UNL     1     -10.830  14.547  64.919  1.00  0.00    -0.421 A  
HETATM   15  N   UNL     1     -10.740  15.883  64.605  1.00  0.00    -0.525 NA 
HETATM   16  C   UNL     1     -11.648  13.517  64.437  1.00  0.00    -0.396 A  
HETATM   17  N   UNL     1     -12.646  13.716  63.492  1.00  0.00    -0.873 NA 
HETATM   18  N   UNL     1     -11.451  12.265  64.898  1.00  0.00    -0.324 NA 
HETATM   19  C   UNL     1      -9.755  16.334  65.349  1.00  0.00     0.125 A  
HETATM   20  H1  UNL     1     -13.241  12.966  63.140  1.00  0.00     0.000 HD 
HETATM   21  N   UNL     1      -9.253  15.364  66.185  1.00  0.00    -0.320 NA 
HETATM   22  H2  UNL     1     -12.214  14.165  62.684  1.00  0.00     0.000 HD 
BRANCH  21  23
HETATM   23  C1* UNL     1      -8.187  15.586  67.133  1.00  0.00    -0.215 C  
HETATM   24  O4* UNL     1      -8.772  15.896  68.410  1.00  0.00    -0.173 OA 
HETATM   25  C4* UNL     1      -8.592  17.301  68.682  1.00  0.00    -0.265 C  
HETATM   26  C3* UNL     1      -7.517  17.835  67.723  1.00  0.00    -0.204 C  
HETATM   27  H2* UNL     1      -5.207  16.824  66.773  1.00  0.00     0.000 HD 
HETATM   28  C2* UNL     1      -7.168  16.671  66.790  1.00  0.00    -0.237 C  
HETATM   29  O2* UNL     1      -5.841  16.150  66.986  1.00  0.00    -0.332 OA 
HETATM   30  O3* UNL     1      -6.353  18.289  68.428  1.00  0.00    -0.190 OA 
HETATM   31  H3* UNL     1      -5.689  18.619  67.835  1.00  0.00     0.000 HD 
BRANCH  25  32
HETATM   32  C5* UNL     1      -9.948  18.010  68.557  1.00  0.00    -0.390 C  
HETATM   33  O5* UNL     1     -11.002  17.046  68.505  1.00  0.00    -0.335 OA 
HETATM   34  H5* UNL     1     -11.841  17.485  68.428  1.00  0.00     0.000 HD 
ENDBRANCH  25  32
ENDBRANCH  21  23
ENDBRANCH   8  11
ENDBRANCH   3   6
TORSDOF 4
ENDMDL
MODEL       40
REMARK 921   NORMALIZED FREE ENERGY PREDICTED BY IDOCK:   -7.06 KCAL/MOL
REMARK 922        TOTAL FREE ENERGY PREDICTED BY IDOCK:   -9.22 KCAL/MOL
REMARK 923 INTER-LIGAND FREE ENERGY PREDICTED BY IDOCK:   -8.18 KCAL/MOL
REMARK 924 INTRA-LIGAND FREE ENERGY PREDICTED BY IDOCK:   -1.03 KCAL/MOL
REMARK 927      BINDING AFFINITY PREDICTED BY RF-SCORE:    0.00 PKD
ROOT
HETATM    1  C   UNL     1     -11.069  15.747  65.180  1.00  0.00    -0.324 C  
HETATM    2  N   UNL     1     -11.192  15.058  66.437  1.00  0.00    -0.335 N  
HETATM    3  C   UNL     1     -12.008  13.956  66.583  1.00  0.00    -0.442 C  
HETATM    4  H   UNL     1     -10.662  15.393  67.241  1.00  0.00     0.000 HD 
HETATM    5  O   UNL     1     -12.680  13.487  65.673  1.00  0.00    -0.480 OA 
ENDROOT
BRANCH   3   6
HETATM    6  C   UNL     1     -12.001  13.372  67.917  1.00  0.00    -0.360 A  
HETATM    7  C   UNL     1     -11.855  12.048  68.277  1.00  0.00    -0.287 A  
HETATM    8  N   UNL     1     -11.945  11.968  69.653  1.00  0.00    -0.308 NA 
HETATM    9  N   UNL     1     -12.130  13.199  70.209  1.00  0.00    -0.356 NA 
HETATM   10  C   UNL     1     -12.152  14.030  69.161  1.00  0.00    -0.337 A  
BRANCH   8  11
HETATM   11  C   UNL     1     -11.926  10.739  70.407  1.00  0.00    -0.357 A  
HETATM   12  N   UNL     1     -10.819   9.957  70.336  1.00  0.00    -0.298 NA 
HETATM   13  C   UNL     1     -10.840   8.978  71.258  1.00  0.00    -0.315 A  
HETATM   14  C   UNL     1     -11.850   8.699  72.161  1.00  0.00    -0.377 A  
HETATM   15  N   UNL     1     -11.509   7.650  72.982  1.00  0.00    -0.300 NA 
HETATM   16  C   UNL     1     -12.993   9.505  72.086  1.00  0.00    -0.412 A  
HETATM   17  N   UNL     1     -14.111   9.320  72.889  1.00  0.00    -1.031 NA 
HETATM   18  N   UNL     1     -13.009  10.525  71.203  1.00  0.00    -0.397 NA 
HETATM   19  C   UNL     1     -10.290   7.323  72.615  1.00  0.00    -0.225 A  
HETATM   20  H1  UNL     1     -14.942   9.907  72.835  1.00  0.00     0.000 HD 
HETATM   21  N   UNL     1      -9.856   8.067  71.543  1.00  0.00    -0.165 NA 
HETATM   22  H2  UNL     1     -13.794   9.331  73.858  1.00  0.00     0.000 HD 
BRANCH  21  23
HETATM   23  C1* UNL     1      -8.569   7.901  70.911  1.00  0.00    -0.128 C  
HETATM   24  O4* UNL     1      -8.763   7.233  69.652  1.00  0.00    -0.140 OA 
HETATM   25  C4* UNL     1      -8.292   5.874  69.763  1.00  0.00    -0.124 C  
HETATM   26  C3* UNL     1      -7.412   5.779  71.019  1.00  0.00    -0.090 C  
HETATM   27  H2* UNL     1      -5.606   7.426  72.152  1.00  0.00     0.000 HD 
HETATM   28  C2* UNL     1      -7.501   7.147  71.700  1.00  0.00    -0.086 C  
HETATM   29  O2* UNL     1      -6.271   7.894  71.661  1.00  0.00    -0.035 OA 
HETATM   30  O3* UNL     1      -6.053   5.458  70.693  1.00  0.00    -0.020 OA 
HETATM   31  H3* UNL     1      -5.509   5.399  71.469  1.00  0.00     0.000 HD 
BRANCH  25  32
HETATM   32  C5* UNL     1      -9.501   4.926  69.774  1.00  0.00    -0.154 C  
HETATM   33  O5* UNL     1     -10.701   5.662  69.528  1.00  0.00    -0.302 OA 
HETATM   34  H5* UNL     1     -11.449   5.076  69.535  1.00  0.00     0.000 HD 
ENDBRANCH  25  32
ENDBRANCH  21  23
ENDBRANCH   8  11
ENDBRANCH   3   6
TORSDOF 4
ENDMDL
MODEL       41
REMARK 921   NORMALIZED FREE ENERGY PREDICTED BY IDOCK:   -7.05 KCAL/MOL
REMARK 922        TOTAL FREE ENERGY PREDICTED BY IDOCK:   -9.21 KCAL/MOL
REMARK 923 INTER-LIGAND FREE ENERGY PREDICTED BY IDOCK:   -8.29 KCAL/MOL
REMARK 924 INTRA-LIGAND FREE ENERGY PREDICTED BY IDOCK:   -0.92 KCAL/MOL
REMARK 927      BINDING AFFINITY PREDICTED BY RF-SCORE:    0.00 PKD
ROOT
HETATM    1  C   UNL     1      -5.191  16.708  70.921  1.00  0.00    -0.165 C  
HETATM    2  N   UNL     1      -6.119  16.679  69.823  1.00  0.00    -0.221 N  
HETATM    3  C   UNL     1      -6.401  17.806  69.081  1.00  0.00    -0.233 C  
HETATM    4  H   UNL     1      -6.582  15.801  69.587  1.00  0.00     0.000 HD 
HETATM    5  O   UNL     1      -5.894  18.901  69.295  1.00  0.00    -0.213 OA 
ENDROOT
BRANCH   3   6
HETATM    6  C   UNL     1      -7.350  17.596  67.997  1.00  0.00    -0.214 A  
HETATM    7  C   UNL     1      -8.102  16.473  67.717  1.00  0.00    -0.161 A  
HETATM    8  N   UNL     1      -8.835  16.726  66.574  1.00  0.00    -0.255 NA 
HETATM    9  N   UNL     1      -8.602  17.985  66.105  1.00  0.00    -0.491 NA 
HETATM   10  C   UNL     1      -7.720  18.497  66.971  1.00  0.00    -0.225 A  
BRANCH   8  11
HETATM   11  C   UNL     1      -9.681  15.764  65.911  1.00  0.00    -0.354 A  
HETATM   12  N   UNL     1      -9.573  14.459  66.267  1.00  0.00    -0.301 NA 
HETATM   13  C   UNL     1     -10.569  13.717  65.750  1.00  0.00    -0.293 A  
HETATM   14  C   UNL     1     -11.579  14.143  64.905  1.00  0.00    -0.379 A  
HETATM   15  N   UNL     1     -12.448  13.118  64.611  1.00  0.00    -0.587 NA 
HETATM   16  C   UNL     1     -11.543  15.489  64.519  1.00  0.00    -0.283 A  
HETATM   17  N   UNL     1     -12.456  16.054  63.638  1.00  0.00    -0.651 NA 
HETATM   18  N   UNL     1     -10.586  16.285  65.038  1.00  0.00    -0.659 NA 
HETATM   19  C   UNL     1     -12.000  12.094  65.303  1.00  0.00    -0.248 A  
HETATM   20  H1  UNL     1     -12.430  17.034  63.358  1.00  0.00     0.000 HD 
HETATM   21  N   UNL     1     -10.836  12.392  65.973  1.00  0.00    -0.265 NA 
HETATM   22  H2  UNL     1     -13.388  15.869  64.007  1.00  0.00     0.000 HD 
BRANCH  21  23
HETATM   23  C1* UNL     1     -10.107  11.448  66.785  1.00  0.00    -0.216 C  
HETATM   24  O4* UNL     1      -8.787  11.297  66.233  1.00  0.00    -0.183 OA 
HETATM   25  C4* UNL     1      -8.691  10.010  65.589  1.00  0.00    -0.155 C  
HETATM   26  C3* UNL     1      -9.864   9.147  66.078  1.00  0.00    -0.272 C  
HETATM   27  H2* UNL     1     -11.081   8.844  68.462  1.00  0.00     0.000 HD 
HETATM   28  C2* UNL     1     -10.721  10.061  66.959  1.00  0.00    -0.178 C  
HETATM   29  O2* UNL     1     -10.699   9.707  68.354  1.00  0.00    -0.226 OA 
HETATM   30  O3* UNL     1      -9.413   8.004  66.817  1.00  0.00    -0.174 OA 
HETATM   31  H3* UNL     1     -10.138   7.471  67.118  1.00  0.00     0.000 HD 
BRANCH  25  32
HETATM   32  C5* UNL     1      -8.658  10.215  64.067  1.00  0.00    -0.192 C  
HETATM   33  O5* UNL     1      -9.961  10.008  63.517  1.00  0.00    -0.493 OA 
HETATM   34  H5* UNL     1      -9.940  10.135  62.575  1.00  0.00     0.000 HD 
ENDBRANCH  25  32
ENDBRANCH  21  23
ENDBRANCH   8  11
ENDBRANCH   3   6
TORSDOF 4
ENDMDL
MODEL       42
REMARK 921   NORMALIZED FREE ENERGY PREDICTED BY IDOCK:   -6.99 KCAL/MOL
REMARK 922        TOTAL FREE ENERGY PREDICTED BY IDOCK:   -9.14 KCAL/MOL
REMARK 923 INTER-LIGAND FREE ENERGY PREDICTED BY IDOCK:   -8.11 KCAL/MOL
REMARK 924 INTRA-LIGAND FREE ENERGY PREDICTED BY IDOCK:   -1.03 KCAL/MOL
REMARK 927      BINDING AFFINITY PREDICTED BY RF-SCORE:    0.00 PKD
ROOT
HETATM    1  C   UNL     1     -12.834  15.457  73.600  1.00  0.00    -0.548 C  
HETATM    2  N   UNL     1     -12.472  14.547  72.546  1.00  0.00    -0.288 N  
HETATM    3  C   UNL     1     -13.004  14.657  71.279  1.00  0.00    -0.339 C  
HETATM    4  H   UNL     1     -11.805  13.802  72.741  1.00  0.00     0.000 HD 
HETATM    5  O   UNL     1     -13.813  15.520  70.957  1.00  0.00    -0.545 OA 
ENDROOT
BRANCH   3   6
HETATM    6  C   UNL     1     -12.518  13.665  70.331  1.00  0.00    -0.364 A  
HETATM    7  C   UNL     1     -12.130  13.844  69.019  1.00  0.00    -0.329 A  
HETATM    8  N   UNL     1     -11.773  12.612  68.507  1.00  0.00    -0.314 NA 
HETATM    9  N   UNL     1     -11.898  11.632  69.447  1.00  0.00    -0.326 NA 
HETATM   10  C   UNL     1     -12.335  12.276  70.534  1.00  0.00    -0.264 A  
BRANCH   8  11
HETATM   11  C   UNL     1     -11.391  12.370  67.138  1.00  0.00    -0.329 A  
HETATM   12  N   UNL     1     -10.299  11.600  66.900  1.00  0.00    -0.214 NA 
HETATM   13  C   UNL     1     -10.198  11.266  65.601  1.00  0.00    -0.253 A  
HETATM   14  C   UNL     1     -11.026  11.665  64.567  1.00  0.00    -0.314 A  
HETATM   15  N   UNL     1     -10.645  11.093  63.375  1.00  0.00    -0.339 NA 
HETATM   16  C   UNL     1     -12.066  12.540  64.903  1.00  0.00    -0.440 A  
HETATM   17  N   UNL     1     -12.949  13.069  63.970  1.00  0.00    -0.489 NA 
HETATM   18  N   UNL     1     -12.234  12.878  66.198  1.00  0.00    -0.508 NA 
HETATM   19  C   UNL     1      -9.627  10.321  63.687  1.00  0.00    -0.277 A  
HETATM   20  H1  UNL     1     -13.706  13.706  64.215  1.00  0.00     0.000 HD 
HETATM   21  N   UNL     1      -9.287  10.426  65.015  1.00  0.00    -0.207 NA 
HETATM   22  H2  UNL     1     -13.362  12.286  63.465  1.00  0.00     0.000 HD 
BRANCH  21  23
HETATM   23  C1* UNL     1      -8.190   9.715  65.627  1.00  0.00    -0.120 C  
HETATM   24  O4* UNL     1      -8.592   8.349  65.834  1.00  0.00    -0.140 OA 
HETATM   25  C4* UNL     1      -8.821   8.135  67.242  1.00  0.00    -0.130 C  
HETATM   26  C3* UNL     1      -8.174   9.296  68.010  1.00  0.00    -0.115 C  
HETATM   27  H2* UNL     1      -5.885  10.684  67.699  1.00  0.00     0.000 HD 
HETATM   28  C2* UNL     1      -7.655  10.268  66.946  1.00  0.00    -0.105 C  
HETATM   29  O2* UNL     1      -6.219  10.340  66.879  1.00  0.00    -0.064 OA 
HETATM   30  O3* UNL     1      -7.106   8.846  68.854  1.00  0.00    -0.064 OA 
HETATM   31  H3* UNL     1      -6.706   9.565  69.329  1.00  0.00     0.000 HD 
BRANCH  25  32
HETATM   32  C5* UNL     1     -10.331   7.990  67.484  1.00  0.00    -0.261 C  
HETATM   33  O5* UNL     1     -10.809   9.086  68.267  1.00  0.00    -0.425 OA 
HETATM   34  H5* UNL     1     -11.743   8.996  68.417  1.00  0.00     0.000 HD 
ENDBRANCH  25  32
ENDBRANCH  21  23
ENDBRANCH   8  11
ENDBRANCH   3   6
TORSDOF 4
ENDMDL
MODEL       43
REMARK 921   NORMALIZED FREE ENERGY PREDICTED BY IDOCK:   -6.92 KCAL/MOL
REMARK 922        TOTAL FREE ENERGY PREDICTED BY IDOCK:   -9.05 KCAL/MOL
REMARK 923 INTER-LIGAND FREE ENERGY PREDICTED BY IDOCK:   -8.43 KCAL/MOL
REMARK 924 INTRA-LIGAND FREE ENERGY PREDICTED BY IDOCK:   -0.62 KCAL/MOL
REMARK 927      BINDING AFFINITY PREDICTED BY RF-SCORE:    0.00 PKD
ROOT
HETATM    1  C   UNL     1     -11.506  16.147  64.351  1.00  0.00    -0.193 C  
HETATM    2  N   UNL     1     -10.998  14.810  64.506  1.00  0.00    -0.628 N  
HETATM    3  C   UNL     1     -11.675  13.715  64.013  1.00  0.00    -0.364 C  
HETATM    4  H   UNL     1     -10.113  14.668  64.993  1.00  0.00     0.000 HD 
HETATM    5  O   UNL     1     -12.743  13.792  63.417  1.00  0.00    -0.795 OA 
ENDROOT
BRANCH   3   6
HETATM    6  C   UNL     1     -11.011  12.440  64.244  1.00  0.00    -0.396 A  
HETATM    7  C   UNL     1     -10.964  11.690  65.401  1.00  0.00    -0.270 A  
HETATM    8  N   UNL     1     -10.193  10.571  65.153  1.00  0.00    -0.306 NA 
HETATM    9  N   UNL     1      -9.747  10.554  63.865  1.00  0.00    -0.308 NA 
HETATM   10  C   UNL     1     -10.251  11.671  63.331  1.00  0.00    -0.433 A  
BRANCH   8  11
HETATM   11  C   UNL     1      -9.836   9.584  66.142  1.00  0.00    -0.272 A  
HETATM   12  N   UNL     1     -10.054   9.874  67.450  1.00  0.00    -0.192 NA 
HETATM   13  C   UNL     1      -9.900   8.792  68.233  1.00  0.00    -0.165 A  
HETATM   14  C   UNL     1      -9.512   7.523  67.842  1.00  0.00    -0.141 A  
HETATM   15  N   UNL     1      -9.502   6.654  68.908  1.00  0.00    -0.131 NA 
HETATM   16  C   UNL     1      -9.215   7.353  66.484  1.00  0.00    -0.165 A  
HETATM   17  N   UNL     1      -8.765   6.154  65.946  1.00  0.00    -0.153 NA 
HETATM   18  N   UNL     1      -9.388   8.397  65.648  1.00  0.00    -0.071 NA 
HETATM   19  C   UNL     1      -9.922   7.372  69.926  1.00  0.00    -0.188 A  
HETATM   20  H1  UNL     1      -8.549   6.030  64.957  1.00  0.00     0.000 HD 
HETATM   21  N   UNL     1     -10.132   8.686  69.580  1.00  0.00    -0.197 NA 
HETATM   22  H2  UNL     1      -9.440   5.434  66.202  1.00  0.00     0.000 HD 
BRANCH  21  23
HETATM   23  C1* UNL     1     -10.565   9.707  70.505  1.00  0.00    -0.306 C  
HETATM   24  O4* UNL     1     -10.769   9.097  71.792  1.00  0.00    -0.355 OA 
HETATM   25  C4* UNL     1     -12.185   9.008  72.050  1.00  0.00    -0.375 C  
HETATM   26  C3* UNL     1     -12.906   9.942  71.067  1.00  0.00    -0.331 C  
HETATM   27  H2* UNL     1     -12.350  12.384  70.075  1.00  0.00     0.000 HD 
HETATM   28  C2* UNL     1     -11.822  10.490  70.134  1.00  0.00    -0.320 C  
HETATM   29  O2* UNL     1     -11.568  11.897  70.306  1.00  0.00    -0.249 OA 
HETATM   30  O3* UNL     1     -13.583  11.009  71.745  1.00  0.00    -0.206 OA 
HETATM   31  H3* UNL     1     -14.029  11.586  71.136  1.00  0.00     0.000 HD 
BRANCH  25  32
HETATM   32  C5* UNL     1     -12.619   7.539  71.950  1.00  0.00    -0.294 C  
HETATM   33  O5* UNL     1     -13.600   7.387  70.921  1.00  0.00    -0.621 OA 
HETATM   34  H5* UNL     1     -13.868   6.478  70.858  1.00  0.00     0.000 HD 
ENDBRANCH  25  32
ENDBRANCH  21  23
ENDBRANCH   8  11
ENDBRANCH   3   6
TORSDOF 4
ENDMDL
MODEL       44
REMARK 921   NORMALIZED FREE ENERGY PREDICTED BY IDOCK:   -6.88 KCAL/MOL
REMARK 922        TOTAL FREE ENERGY PREDICTED BY IDOCK:   -9.00 KCAL/MOL
REMARK 923 INTER-LIGAND FREE ENERGY PREDICTED BY IDOCK:   -8.11 KCAL/MOL
REMARK 924 INTRA-LIGAND FREE ENERGY PREDICTED BY IDOCK:   -0.89 KCAL/MOL
REMARK 927      BINDING AFFINITY PREDICTED BY RF-SCORE:    0.00 PKD
ROOT
HETATM    1  C   UNL     1     -12.687  16.111  73.851  1.00  0.00    -0.543 C  
HETATM    2  N   UNL     1     -12.199  15.804  72.533  1.00  0.00    -0.423 N  
HETATM    3  C   UNL     1     -13.055  15.567  71.479  1.00  0.00    -0.496 C  
HETATM    4  H   UNL     1     -11.193  15.760  72.374  1.00  0.00     0.000 HD 
HETATM    5  O   UNL     1     -14.276  15.598  71.580  1.00  0.00    -0.508 OA 
ENDROOT
BRANCH   3   6
HETATM    6  C   UNL     1     -12.393  15.286  70.213  1.00  0.00    -0.407 A  
HETATM    7  C   UNL     1     -12.079  14.063  69.657  1.00  0.00    -0.355 A  
HETATM    8  N   UNL     1     -11.429  14.293  68.461  1.00  0.00    -0.280 NA 
HETATM    9  N   UNL     1     -11.320  15.627  68.206  1.00  0.00    -0.350 NA 
HETATM   10  C   UNL     1     -11.909  16.209  69.255  1.00  0.00    -0.172 A  
BRANCH   8  11
HETATM   11  C   UNL     1     -10.865  13.264  67.622  1.00  0.00    -0.258 A  
HETATM   12  N   UNL     1     -10.757  12.009  68.127  1.00  0.00    -0.207 NA 
HETATM   13  C   UNL     1     -10.442  11.113  67.174  1.00  0.00    -0.231 A  
HETATM   14  C   UNL     1     -10.184  11.368  65.838  1.00  0.00    -0.246 A  
HETATM   15  N   UNL     1      -9.936  10.203  65.149  1.00  0.00    -0.325 NA 
HETATM   16  C   UNL     1     -10.225  12.709  65.440  1.00  0.00    -0.284 A  
HETATM   17  N   UNL     1      -9.940  13.130  64.147  1.00  0.00    -0.729 NA 
HETATM   18  N   UNL     1     -10.572  13.644  66.348  1.00  0.00    -0.281 NA 
HETATM   19  C   UNL     1     -10.086   9.250  66.041  1.00  0.00    -0.192 A  
HETATM   20  H1  UNL     1      -9.970  14.107  63.857  1.00  0.00     0.000 HD 
HETATM   21  N   UNL     1     -10.346   9.752  67.295  1.00  0.00    -0.232 NA 
HETATM   22  H2  UNL     1     -10.548  12.607  63.517  1.00  0.00     0.000 HD 
BRANCH  21  23
HETATM   23  C1* UNL     1     -10.525   8.935  68.472  1.00  0.00    -0.182 C  
HETATM   24  O4* UNL     1      -9.869   9.581  69.577  1.00  0.00    -0.173 OA 
HETATM   25  C4* UNL     1      -8.667   8.853  69.901  1.00  0.00    -0.139 C  
HETATM   26  C3* UNL     1      -8.754   7.473  69.233  1.00  0.00    -0.136 C  
HETATM   27  H2* UNL     1     -10.761   5.718  68.846  1.00  0.00     0.000 HD 
HETATM   28  C2* UNL     1     -10.036   7.490  68.395  1.00  0.00    -0.170 C  
HETATM   29  O2* UNL     1     -11.065   6.617  68.893  1.00  0.00    -0.272 OA 
HETATM   30  O3* UNL     1      -8.792   6.414  70.200  1.00  0.00    -0.147 OA 
HETATM   31  H3* UNL     1      -8.845   5.561  69.786  1.00  0.00     0.000 HD 
BRANCH  25  32
HETATM   32  C5* UNL     1      -7.449   9.682  69.468  1.00  0.00    -0.096 C  
HETATM   33  O5* UNL     1      -7.825  11.051  69.296  1.00  0.00    -0.271 OA 
HETATM   34  H5* UNL     1      -7.072  11.564  69.027  1.00  0.00     0.000 HD 
ENDBRANCH  25  32
ENDBRANCH  21  23
ENDBRANCH   8  11
ENDBRANCH   3   6
TORSDOF 4
ENDMDL
MODEL       45
REMARK 921   NORMALIZED FREE ENERGY PREDICTED BY IDOCK:   -6.86 KCAL/MOL
REMARK 922        TOTAL FREE ENERGY PREDICTED BY IDOCK:   -8.97 KCAL/MOL
REMARK 923 INTER-LIGAND FREE ENERGY PREDICTED BY IDOCK:   -8.43 KCAL/MOL
REMARK 924 INTRA-LIGAND FREE ENERGY PREDICTED BY IDOCK:   -0.54 KCAL/MOL
REMARK 927      BINDING AFFINITY PREDICTED BY RF-SCORE:    0.00 PKD
ROOT
HETATM    1  C   UNL     1      -7.435  20.831  67.207  1.00  0.00    -0.328 C  
HETATM    2  N   UNL     1      -8.072  19.542  67.167  1.00  0.00    -0.264 N  
HETATM    3  C   UNL     1      -9.380  19.367  67.567  1.00  0.00    -0.311 C  
HETATM    4  H   UNL     1      -7.543  18.736  66.835  1.00  0.00     0.000 HD 
HETATM    5  O   UNL     1     -10.089  20.277  67.980  1.00  0.00    -0.397 OA 
ENDROOT
BRANCH   3   6
HETATM    6  C   UNL     1      -9.871  18.001  67.446  1.00  0.00    -0.309 A  
HETATM    7  C   UNL     1      -9.581  17.064  66.477  1.00  0.00    -0.278 A  
HETATM    8  N   UNL     1     -10.303  15.921  66.759  1.00  0.00    -0.293 NA 
HETATM    9  N   UNL     1     -11.046  16.073  67.892  1.00  0.00    -0.331 NA 
HETATM   10  C   UNL     1     -10.770  17.317  68.298  1.00  0.00    -0.349 A  
BRANCH   8  11
HETATM   11  C   UNL     1     -10.335  14.743  65.928  1.00  0.00    -0.320 A  
HETATM   12  N   UNL     1      -9.582  13.675  66.293  1.00  0.00    -0.267 NA 
HETATM   13  C   UNL     1      -9.884  12.581  65.573  1.00  0.00    -0.183 A  
HETATM   14  C   UNL     1     -10.793  12.487  64.533  1.00  0.00    -0.328 A  
HETATM   15  N   UNL     1     -10.873  11.199  64.057  1.00  0.00    -0.355 NA 
HETATM   16  C   UNL     1     -11.447  13.670  64.169  1.00  0.00    -0.329 A  
HETATM   17  N   UNL     1     -12.348  13.749  63.115  1.00  0.00    -1.106 NA 
HETATM   18  N   UNL     1     -11.207  14.789  64.883  1.00  0.00    -0.393 NA 
HETATM   19  C   UNL     1     -10.059  10.509  64.825  1.00  0.00    -0.336 A  
HETATM   20  H1  UNL     1     -12.825  14.611  62.850  1.00  0.00     0.000 HD 
HETATM   21  N   UNL     1      -9.400  11.308  65.729  1.00  0.00    -0.219 NA 
HETATM   22  H2  UNL     1     -13.066  13.043  63.275  1.00  0.00     0.000 HD 
BRANCH  21  23
HETATM   23  C1* UNL     1      -8.424  10.823  66.675  1.00  0.00    -0.142 C  
HETATM   24  O4* UNL     1      -8.545   9.392  66.761  1.00  0.00    -0.125 OA 
HETATM   25  C4* UNL     1      -9.158   9.047  68.021  1.00  0.00    -0.136 C  
HETATM   26  C3* UNL     1      -9.075  10.275  68.940  1.00  0.00    -0.168 C  
HETATM   27  H2* UNL     1      -7.191  12.152  69.369  1.00  0.00     0.000 HD 
HETATM   28  C2* UNL     1      -8.481  11.400  68.088  1.00  0.00    -0.152 C  
HETATM   29  O2* UNL     1      -7.156  11.793  68.490  1.00  0.00    -0.078 OA 
HETATM   30  O3* UNL     1      -8.259  10.023  70.092  1.00  0.00    -0.276 OA 
HETATM   31  H3* UNL     1      -8.209  10.782  70.661  1.00  0.00     0.000 HD 
BRANCH  25  32
HETATM   32  C5* UNL     1     -10.589   8.556  67.761  1.00  0.00    -0.175 C  
HETATM   33  O5* UNL     1     -10.594   7.602  66.697  1.00  0.00    -0.483 OA 
HETATM   34  H5* UNL     1     -11.479   7.298  66.536  1.00  0.00     0.000 HD 
ENDBRANCH  25  32
ENDBRANCH  21  23
ENDBRANCH   8  11
ENDBRANCH   3   6
TORSDOF 4
ENDMDL
MODEL       46
REMARK 921   NORMALIZED FREE ENERGY PREDICTED BY IDOCK:   -6.76 KCAL/MOL
REMARK 922        TOTAL FREE ENERGY PREDICTED BY IDOCK:   -8.86 KCAL/MOL
REMARK 923 INTER-LIGAND FREE ENERGY PREDICTED BY IDOCK:   -8.31 KCAL/MOL
REMARK 924 INTRA-LIGAND FREE ENERGY PREDICTED BY IDOCK:   -0.55 KCAL/MOL
REMARK 927      BINDING AFFINITY PREDICTED BY RF-SCORE:    0.00 PKD
ROOT
HETATM    1  C   UNL     1     -12.161  14.433  65.068  1.00  0.00    -0.415 C  
HETATM    2  N   UNL     1     -12.221  13.779  66.347  1.00  0.00    -0.440 N  
HETATM    3  C   UNL     1     -11.793  14.400  67.500  1.00  0.00    -0.386 C  
HETATM    4  H   UNL     1     -12.591  12.830  66.403  1.00  0.00     0.000 HD 
HETATM    5  O   UNL     1     -11.334  15.536  67.526  1.00  0.00    -0.314 OA 
ENDROOT
BRANCH   3   6
HETATM    6  C   UNL     1     -11.939  13.601  68.709  1.00  0.00    -0.394 A  
HETATM    7  C   UNL     1     -11.799  12.237  68.862  1.00  0.00    -0.303 A  
HETATM    8  N   UNL     1     -12.063  11.927  70.182  1.00  0.00    -0.319 NA 
HETATM    9  N   UNL     1     -12.355  13.046  70.903  1.00  0.00    -0.354 NA 
HETATM   10  C   UNL     1     -12.268  14.040  70.014  1.00  0.00    -0.352 A  
BRANCH   8  11
HETATM   11  C   UNL     1     -12.103  10.589  70.719  1.00  0.00    -0.370 A  
HETATM   12  N   UNL     1     -11.105   9.732  70.386  1.00  0.00    -0.283 NA 
HETATM   13  C   UNL     1     -11.138   8.614  71.133  1.00  0.00    -0.266 A  
HETATM   14  C   UNL     1     -12.073   8.278  72.096  1.00  0.00    -0.367 A  
HETATM   15  N   UNL     1     -11.767   7.075  72.689  1.00  0.00    -0.163 NA 
HETATM   16  C   UNL     1     -13.119   9.188  72.295  1.00  0.00    -0.438 A  
HETATM   17  N   UNL     1     -14.160   8.970  73.188  1.00  0.00    -1.223 NA 
HETATM   18  N   UNL     1     -13.113  10.342  71.597  1.00  0.00    -0.428 NA 
HETATM   19  C   UNL     1     -10.638   6.704  72.127  1.00  0.00    -0.212 A  
HETATM   20  H1  UNL     1     -14.921   9.633  73.332  1.00  0.00     0.000 HD 
HETATM   21  N   UNL     1     -10.239   7.579  71.144  1.00  0.00    -0.193 NA 
HETATM   22  H2  UNL     1     -13.743   8.783  74.100  1.00  0.00     0.000 HD 
BRANCH  21  23
HETATM   23  C1* UNL     1      -9.053   7.406  70.340  1.00  0.00    -0.157 C  
HETATM   24  O4* UNL     1      -8.073   6.698  71.121  1.00  0.00    -0.110 OA 
HETATM   25  C4* UNL     1      -7.032   7.616  71.513  1.00  0.00    -0.057 C  
HETATM   26  C3* UNL     1      -7.147   8.869  70.631  1.00  0.00    -0.071 C  
HETATM   27  H2* UNL     1      -7.726   9.263  68.030  1.00  0.00     0.000 HD 
HETATM   28  C2* UNL     1      -8.404   8.670  69.779  1.00  0.00    -0.123 C  
HETATM   29  O2* UNL     1      -8.130   8.477  68.379  1.00  0.00    -0.119 OA 
HETATM   30  O3* UNL     1      -5.991   9.043  69.801  1.00  0.00    -0.035 OA 
HETATM   31  H3* UNL     1      -6.062   9.818  69.256  1.00  0.00     0.000 HD 
BRANCH  25  32
HETATM   32  C5* UNL     1      -7.156   7.898  73.018  1.00  0.00    -0.090 C  
HETATM   33  O5* UNL     1      -6.560   9.159  73.331  1.00  0.00    -0.323 OA 
HETATM   34  H5* UNL     1      -6.637   9.333  74.261  1.00  0.00     0.000 HD 
ENDBRANCH  25  32
ENDBRANCH  21  23
ENDBRANCH   8  11
ENDBRANCH   3   6
TORSDOF 4
ENDMDL
MODEL       47
REMARK 921   NORMALIZED FREE ENERGY PREDICTED BY IDOCK:   -6.73 KCAL/MOL
REMARK 922        TOTAL FREE ENERGY PREDICTED BY IDOCK:   -8.81 KCAL/MOL
REMARK 923 INTER-LIGAND FREE ENERGY PREDICTED BY IDOCK:   -8.29 KCAL/MOL
REMARK 924 INTRA-LIGAND FREE ENERGY PREDICTED BY IDOCK:   -0.53 KCAL/MOL
REMARK 927      BINDING AFFINITY PREDICTED BY RF-SCORE:    0.00 PKD
ROOT
HETATM    1  C   UNL     1      -8.923   9.549  63.149  1.00  0.00    -0.194 C  
HETATM    2  N   UNL     1      -9.447   9.662  64.484  1.00  0.00    -0.432 N  
HETATM    3  C   UNL     1      -9.151   8.735  65.460  1.00  0.00    -0.163 C  
HETATM    4  H   UNL     1     -10.054  10.449  64.714  1.00  0.00     0.000 HD 
HETATM    5  O   UNL     1      -8.433   7.760  65.272  1.00  0.00    -0.138 OA 
ENDROOT
BRANCH   3   6
HETATM    6  C   UNL     1      -9.752   9.010  66.758  1.00  0.00    -0.279 A  
HETATM    7  C   UNL     1     -10.250  10.202  67.241  1.00  0.00    -0.222 A  
HETATM    8  N   UNL     1     -10.691   9.989  68.532  1.00  0.00    -0.221 NA 
HETATM    9  N   UNL     1     -10.513   8.690  68.906  1.00  0.00    -0.212 NA 
HETATM   10  C   UNL     1      -9.960   8.114  67.833  1.00  0.00    -0.182 A  
BRANCH   8  11
HETATM   11  C   UNL     1     -11.202  11.015  69.406  1.00  0.00    -0.268 A  
HETATM   12  N   UNL     1     -10.939  12.311  69.101  1.00  0.00    -0.203 NA 
HETATM   13  C   UNL     1     -11.663  13.158  69.854  1.00  0.00    -0.257 A  
HETATM   14  C   UNL     1     -12.541  12.832  70.872  1.00  0.00    -0.255 A  
HETATM   15  N   UNL     1     -13.137  13.956  71.394  1.00  0.00    -0.342 NA 
HETATM   16  C   UNL     1     -12.667  11.471  71.175  1.00  0.00    -0.356 A  
HETATM   17  N   UNL     1     -13.469  10.989  72.201  1.00  0.00    -0.529 NA 
HETATM   18  N   UNL     1     -11.990  10.576  70.425  1.00  0.00    -0.307 NA 
HETATM   19  C   UNL     1     -12.664  14.949  70.674  1.00  0.00    -0.367 A  
HETATM   20  H1  UNL     1     -13.561   9.998  72.421  1.00  0.00     0.000 HD 
HETATM   21  N   UNL     1     -11.731  14.524  69.758  1.00  0.00    -0.286 NA 
HETATM   22  H2  UNL     1     -14.409  11.354  72.049  1.00  0.00     0.000 HD 
BRANCH  21  23
HETATM   23  C1* UNL     1     -11.024  15.402  68.856  1.00  0.00    -0.261 C  
HETATM   24  O4* UNL     1     -11.858  15.642  67.709  1.00  0.00    -0.153 OA 
HETATM   25  C4* UNL     1     -11.323  14.920  66.580  1.00  0.00    -0.326 C  
HETATM   26  C3* UNL     1      -9.881  14.512  66.919  1.00  0.00    -0.262 C  
HETATM   27  H2* UNL     1      -7.859  15.735  68.213  1.00  0.00     0.000 HD 
HETATM   28  C2* UNL     1      -9.652  14.940  68.371  1.00  0.00    -0.209 C  
HETATM   29  O2* UNL     1      -8.713  16.022  68.514  1.00  0.00    -0.179 OA 
HETATM   30  O3* UNL     1      -8.932  15.140  66.046  1.00  0.00    -0.462 OA 
HETATM   31  H3* UNL     1      -8.041  14.888  66.255  1.00  0.00     0.000 HD 
BRANCH  25  32
HETATM   32  C5* UNL     1     -12.249  13.737  66.261  1.00  0.00    -0.447 C  
HETATM   33  O5* UNL     1     -13.118  14.075  65.178  1.00  0.00    -0.776 OA 
HETATM   34  H5* UNL     1     -13.691  13.343  64.980  1.00  0.00     0.000 HD 
ENDBRANCH  25  32
ENDBRANCH  21  23
ENDBRANCH   8  11
ENDBRANCH   3   6
TORSDOF 4
ENDMDL
MODEL       48
REMARK 921   NORMALIZED FREE ENERGY PREDICTED BY IDOCK:   -6.73 KCAL/MOL
REMARK 922        TOTAL FREE ENERGY PREDICTED BY IDOCK:   -8.81 KCAL/MOL
REMARK 923 INTER-LIGAND FREE ENERGY PREDICTED BY IDOCK:   -8.27 KCAL/MOL
REMARK 924 INTRA-LIGAND FREE ENERGY PREDICTED BY IDOCK:   -0.54 KCAL/MOL
REMARK 927      BINDING AFFINITY PREDICTED BY RF-SCORE:    0.00 PKD
ROOT
HETATM    1  C   UNL     1     -14.042   6.469  72.059  1.00  0.00     0.197 C  
HETATM    2  N   UNL     1     -13.547   7.660  71.423  1.00  0.00    -0.537 N  
HETATM    3  C   UNL     1     -12.278   8.140  71.669  1.00  0.00    -0.308 C  
HETATM    4  H   UNL     1     -14.150   8.163  70.773  1.00  0.00     0.000 HD 
HETATM    5  O   UNL     1     -11.488   7.601  72.435  1.00  0.00    -0.299 OA 
ENDROOT
BRANCH   3   6
HETATM    6  C   UNL     1     -11.934   9.346  70.930  1.00  0.00    -0.351 A  
HETATM    7  C   UNL     1     -10.796   9.612  70.196  1.00  0.00    -0.280 A  
HETATM    8  N   UNL     1     -10.899  10.897  69.699  1.00  0.00    -0.239 NA 
HETATM    9  N   UNL     1     -12.076  11.477  70.071  1.00  0.00    -0.330 NA 
HETATM   10  C   UNL     1     -12.688  10.536  70.797  1.00  0.00    -0.381 A  
BRANCH   8  11
HETATM   11  C   UNL     1      -9.869  11.573  68.951  1.00  0.00    -0.075 A  
HETATM   12  N   UNL     1     -10.201  12.698  68.269  1.00  0.00    -0.235 NA 
HETATM   13  C   UNL     1      -9.113  13.348  67.818  1.00  0.00    -0.202 A  
HETATM   14  C   UNL     1      -7.793  12.954  67.940  1.00  0.00    -0.151 A  
HETATM   15  N   UNL     1      -6.942  13.888  67.395  1.00  0.00    -0.178 NA 
HETATM   16  C   UNL     1      -7.563  11.727  68.575  1.00  0.00    -0.131 A  
HETATM   17  N   UNL     1      -6.300  11.173  68.729  1.00  0.00    -0.045 NA 
HETATM   18  N   UNL     1      -8.617  11.053  69.078  1.00  0.00    -0.116 NA 
HETATM   19  C   UNL     1      -7.731  14.858  66.988  1.00  0.00    -0.043 A  
HETATM   20  H1  UNL     1      -6.133  10.280  69.192  1.00  0.00     0.000 HD 
HETATM   21  N   UNL     1      -9.059  14.559  67.179  1.00  0.00    -0.214 NA 
HETATM   22  H2  UNL     1      -5.717  11.869  69.194  1.00  0.00     0.000 HD 
BRANCH  21  23
HETATM   23  C1* UNL     1     -10.147  15.428  66.797  1.00  0.00    -0.262 C  
HETATM   24  O4* UNL     1     -11.304  14.616  66.528  1.00  0.00    -0.341 OA 
HETATM   25  C4* UNL     1     -11.532  14.582  65.104  1.00  0.00    -0.368 C  
HETATM   26  C3* UNL     1     -10.724  15.722  64.467  1.00  0.00     0.083 C  
HETATM   27  H2* UNL     1     -10.186  18.257  65.204  1.00  0.00     0.000 HD 
HETATM   28  C2* UNL     1      -9.912  16.350  65.603  1.00  0.00    -0.238 C  
HETATM   29  O2* UNL     1     -10.332  17.683  65.947  1.00  0.00    -0.508 OA 
HETATM   30  O3* UNL     1     -11.576  16.697  63.849  1.00  0.00    -1.582 OA 
HETATM   31  H3* UNL     1     -11.076  17.402  63.455  1.00  0.00     0.000 HD 
BRANCH  25  32
HETATM   32  C5* UNL     1     -11.169  13.187  64.575  1.00  0.00    -0.354 C  
HETATM   33  O5* UNL     1     -11.543  13.072  63.199  1.00  0.00    -0.781 OA 
HETATM   34  H5* UNL     1     -11.318  12.209  62.872  1.00  0.00     0.000 HD 
ENDBRANCH  25  32
ENDBRANCH  21  23
ENDBRANCH   8  11
ENDBRANCH   3   6
TORSDOF 4
ENDMDL
MODEL       49
REMARK 921   NORMALIZED FREE ENERGY PREDICTED BY IDOCK:   -6.72 KCAL/MOL
REMARK 922        TOTAL FREE ENERGY PREDICTED BY IDOCK:   -8.81 KCAL/MOL
REMARK 923 INTER-LIGAND FREE ENERGY PREDICTED BY IDOCK:   -8.35 KCAL/MOL
REMARK 924 INTRA-LIGAND FREE ENERGY PREDICTED BY IDOCK:   -0.45 KCAL/MOL
REMARK 927      BINDING AFFINITY PREDICTED BY RF-SCORE:    0.00 PKD
ROOT
HETATM    1  C   UNL     1     -10.735   3.271  63.909  1.00  0.00    -0.188 C  
HETATM    2  N   UNL     1     -10.777   4.374  64.832  1.00  0.00    -0.623 N  
HETATM    3  C   UNL     1     -10.031   4.378  65.991  1.00  0.00    -0.240 C  
HETATM    4  H   UNL     1     -11.374   5.174  64.623  1.00  0.00     0.000 HD 
HETATM    5  O   UNL     1      -9.289   3.461  66.322  1.00  0.00    -0.167 OA 
ENDROOT
BRANCH   3   6
HETATM    6  C   UNL     1     -10.180   5.578  66.802  1.00  0.00    -0.277 A  
HETATM    7  C   UNL     1      -9.790   6.869  66.510  1.00  0.00    -0.103 A  
HETATM    8  N   UNL     1     -10.111   7.667  67.591  1.00  0.00    -0.177 NA 
HETATM    9  N   UNL     1     -10.714   6.943  68.577  1.00  0.00    -0.216 NA 
HETATM   10  C   UNL     1     -10.758   5.699  68.088  1.00  0.00    -0.153 A  
BRANCH   8  11
HETATM   11  C   UNL     1      -9.785   9.066  67.705  1.00  0.00    -0.156 A  
HETATM   12  N   UNL     1     -10.549   9.963  67.031  1.00  0.00    -0.227 NA 
HETATM   13  C   UNL     1     -10.286  11.227  67.409  1.00  0.00    -0.200 A  
HETATM   14  C   UNL     1      -9.332  11.647  68.318  1.00  0.00    -0.191 A  
HETATM   15  N   UNL     1      -9.375  13.012  68.489  1.00  0.00    -0.135 NA 
HETATM   16  C   UNL     1      -8.528  10.650  68.885  1.00  0.00    -0.154 A  
HETATM   17  N   UNL     1      -7.496  10.918  69.774  1.00  0.00    -0.357 NA 
HETATM   18  N   UNL     1      -8.775   9.363  68.568  1.00  0.00    -0.127 NA 
HETATM   19  C   UNL     1     -10.370  13.411  67.729  1.00  0.00    -0.241 A  
HETATM   20  H1  UNL     1      -6.911  10.192  70.187  1.00  0.00     0.000 HD 
HETATM   21  N   UNL     1     -10.926  12.374  67.018  1.00  0.00    -0.250 NA 
HETATM   22  H2  UNL     1      -7.889  11.463  70.541  1.00  0.00     0.000 HD 
BRANCH  21  23
HETATM   23  C1* UNL     1     -12.014  12.527  66.082  1.00  0.00    -0.366 C  
HETATM   24  O4* UNL     1     -12.021  11.388  65.202  1.00  0.00     0.054 OA 
HETATM   25  C4* UNL     1     -11.546  11.796  63.903  1.00  0.00    -0.377 C  
HETATM   26  C3* UNL     1     -11.602  13.330  63.838  1.00  0.00    -0.400 C  
HETATM   27  H2* UNL     1     -13.351  15.167  64.745  1.00  0.00     0.000 HD 
HETATM   28  C2* UNL     1     -12.027  13.796  65.233  1.00  0.00    -0.374 C  
HETATM   29  O2* UNL     1     -13.343  14.377  65.273  1.00  0.00    -0.574 OA 
HETATM   30  O3* UNL     1     -12.528  13.787  62.843  1.00  0.00    -1.009 OA 
HETATM   31  H3* UNL     1     -12.562  14.736  62.803  1.00  0.00     0.000 HD 
BRANCH  25  32
HETATM   32  C5* UNL     1     -10.144  11.211  63.678  1.00  0.00    -0.379 C  
HETATM   33  O5* UNL     1     -10.073  10.591  62.391  1.00  0.00    -0.746 OA 
HETATM   34  H5* UNL     1      -9.206  10.230  62.252  1.00  0.00     0.000 HD 
ENDBRANCH  25  32
ENDBRANCH  21  23
ENDBRANCH   8  11
ENDBRANCH   3   6
TORSDOF 4
ENDMDL
MODEL       50
REMARK 921   NORMALIZED FREE ENERGY PREDICTED BY IDOCK:   -6.71 KCAL/MOL
REMARK 922        TOTAL FREE ENERGY PREDICTED BY IDOCK:   -8.79 KCAL/MOL
REMARK 923 INTER-LIGAND FREE ENERGY PREDICTED BY IDOCK:   -7.95 KCAL/MOL
REMARK 924 INTRA-LIGAND FREE ENERGY PREDICTED BY IDOCK:   -0.84 KCAL/MOL
REMARK 927      BINDING AFFINITY PREDICTED BY RF-SCORE:    0.00 PKD
ROOT
HETATM    1  C   UNL     1     -10.246   6.418  74.365  1.00  0.00    -0.324 C  
HETATM    2  N   UNL     1     -10.279   6.377  72.928  1.00  0.00    -0.184 N  
HETATM    3  C   UNL     1     -10.874   7.376  72.187  1.00  0.00    -0.235 C  
HETATM    4  H   UNL     1      -9.852   5.587  72.444  1.00  0.00     0.000 HD 
HETATM    5  O   UNL     1     -11.411   8.358  72.684  1.00  0.00    -0.380 OA 
ENDROOT
BRANCH   3   6
HETATM    6  C   UNL     1     -10.803   7.183  70.745  1.00  0.00    -0.267 A  
HETATM    7  C   UNL     1     -10.328   8.049  69.782  1.00  0.00    -0.219 A  
HETATM    8  N   UNL     1     -10.490   7.447  68.550  1.00  0.00    -0.197 NA 
HETATM    9  N   UNL     1     -11.041   6.206  68.675  1.00  0.00    -0.347 NA 
HETATM   10  C   UNL     1     -11.213   6.057  69.992  1.00  0.00    -0.355 A  
BRANCH   8  11
HETATM   11  C   UNL     1     -10.191   8.071  67.285  1.00  0.00    -0.275 A  
HETATM   12  N   UNL     1     -10.544   9.370  67.109  1.00  0.00    -0.250 NA 
HETATM   13  C   UNL     1     -10.002   9.887  65.991  1.00  0.00    -0.268 A  
HETATM   14  C   UNL     1      -9.222   9.229  65.057  1.00  0.00    -0.178 A  
HETATM   15  N   UNL     1      -8.807  10.085  64.064  1.00  0.00    -0.203 NA 
HETATM   16  C   UNL     1      -8.998   7.865  65.282  1.00  0.00     0.175 A  
HETATM   17  N   UNL     1      -8.279   7.057  64.410  1.00  0.00    -0.314 NA 
HETATM   18  N   UNL     1      -9.488   7.305  66.406  1.00  0.00    -0.160 NA 
HETATM   19  C   UNL     1      -9.289  11.257  64.412  1.00  0.00    -0.124 A  
HETATM   20  H1  UNL     1      -8.115   6.064  64.574  1.00  0.00     0.000 HD 
HETATM   21  N   UNL     1     -10.060  11.182  65.548  1.00  0.00    -0.244 NA 
HETATM   22  H2  UNL     1      -7.369   7.496  64.270  1.00  0.00     0.000 HD 
BRANCH  21  23
HETATM   23  C1* UNL     1     -10.739  12.310  66.140  1.00  0.00    -0.261 C  
HETATM   24  O4* UNL     1     -12.062  12.390  65.579  1.00  0.00    -0.495 OA 
HETATM   25  C4* UNL     1     -12.119  13.509  64.670  1.00  0.00    -0.409 C  
HETATM   26  C3* UNL     1     -10.906  14.408  64.948  1.00  0.00    -0.416 C  
HETATM   27  H2* UNL     1      -9.637  15.175  67.197  1.00  0.00     0.000 HD 
HETATM   28  C2* UNL     1     -10.069  13.675  66.000  1.00  0.00    -0.312 C  
HETATM   29  O2* UNL     1     -10.054  14.326  67.284  1.00  0.00    -0.248 OA 
HETATM   30  O3* UNL     1     -11.301  15.703  65.422  1.00  0.00    -0.221 OA 
HETATM   31  H3* UNL     1     -10.551  16.259  65.593  1.00  0.00     0.000 HD 
BRANCH  25  32
HETATM   32  C5* UNL     1     -12.187  12.978  63.230  1.00  0.00    -0.382 C  
HETATM   33  O5* UNL     1     -12.365  11.559  63.240  1.00  0.00    -0.857 OA 
HETATM   34  H5* UNL     1     -12.407  11.231  62.350  1.00  0.00     0.000 HD 
ENDBRANCH  25  32
ENDBRANCH  21  23
ENDBRANCH   8  11
ENDBRANCH   3   6
TORSDOF 4
ENDMDL
MODEL       51
REMARK 921   NORMALIZED FREE ENERGY PREDICTED BY IDOCK:   -6.69 KCAL/MOL
REMARK 922        TOTAL FREE ENERGY PREDICTED BY IDOCK:   -8.77 KCAL/MOL
REMARK 923 INTER-LIGAND FREE ENERGY PREDICTED BY IDOCK:   -8.20 KCAL/MOL
REMARK 924 INTRA-LIGAND FREE ENERGY PREDICTED BY IDOCK:   -0.57 KCAL/MOL
REMARK 927      BINDING AFFINITY PREDICTED BY RF-SCORE:    0.00 PKD
ROOT
HETATM    1  C   UNL     1      -6.072  21.176  66.803  1.00  0.00    -0.305 C  
HETATM    2  N   UNL     1      -6.853  20.041  67.216  1.00  0.00    -0.215 N  
HETATM    3  C   UNL     1      -8.200  20.147  67.488  1.00  0.00    -0.329 C  
HETATM    4  H   UNL     1      -6.398  19.133  67.309  1.00  0.00     0.000 HD 
HETATM    5  O   UNL     1      -8.826  21.197  67.404  1.00  0.00    -0.099 OA 
ENDROOT
BRANCH   3   6
HETATM    6  C   UNL     1      -8.839  18.898  67.878  1.00  0.00    -0.326 A  
HETATM    7  C   UNL     1      -8.334  17.616  67.812  1.00  0.00    -0.226 A  
HETATM    8  N   UNL     1      -9.312  16.749  68.262  1.00  0.00    -0.224 NA 
HETATM    9  N   UNL     1     -10.435  17.424  68.637  1.00  0.00    -0.363 NA 
HETATM   10  C   UNL     1     -10.136  18.707  68.411  1.00  0.00    -0.383 A  
BRANCH   8  11
HETATM   11  C   UNL     1      -9.197  15.312  68.266  1.00  0.00    -0.189 A  
HETATM   12  N   UNL     1     -10.110  14.591  67.566  1.00  0.00    -0.228 NA 
HETATM   13  C   UNL     1      -9.750  13.299  67.462  1.00  0.00    -0.224 A  
HETATM   14  C   UNL     1      -8.639  12.691  68.018  1.00  0.00    -0.189 A  
HETATM   15  N   UNL     1      -8.570  11.363  67.666  1.00  0.00    -0.127 NA 
HETATM   16  C   UNL     1      -7.812  13.503  68.804  1.00  0.00    -0.029 A  
HETATM   17  N   UNL     1      -6.689  13.029  69.469  1.00  0.00    -0.306 NA 
HETATM   18  N   UNL     1      -8.107  14.814  68.912  1.00  0.00    -0.157 NA 
HETATM   19  C   UNL     1      -9.599  11.176  66.870  1.00  0.00    -0.186 A  
HETATM   20  H1  UNL     1      -6.086  13.620  70.041  1.00  0.00     0.000 HD 
HETATM   21  N   UNL     1     -10.373  12.306  66.751  1.00  0.00    -0.216 NA 
HETATM   22  H2  UNL     1      -6.096  12.572  68.777  1.00  0.00     0.000 HD 
BRANCH  21  23
HETATM   23  C1* UNL     1     -11.582  12.380  65.965  1.00  0.00    -0.401 C  
HETATM   24  O4* UNL     1     -11.527  11.362  64.950  1.00  0.00    -0.121 OA 
HETATM   25  C4* UNL     1     -11.289  11.986  63.672  1.00  0.00    -0.452 C  
HETATM   26  C3* UNL     1     -11.584  13.486  63.814  1.00  0.00    -0.243 C  
HETATM   27  H2* UNL     1     -13.462  14.894  65.136  1.00  0.00     0.000 HD 
HETATM   28  C2* UNL     1     -11.894  13.716  65.296  1.00  0.00    -0.349 C  
HETATM   29  O2* UNL     1     -13.267  14.062  65.553  1.00  0.00    -0.710 OA 
HETATM   30  O3* UNL     1     -12.687  13.892  62.993  1.00  0.00    -0.892 OA 
HETATM   31  H3* UNL     1     -12.869  14.820  63.081  1.00  0.00     0.000 HD 
BRANCH  25  32
HETATM   32  C5* UNL     1      -9.854  11.670  63.223  1.00  0.00    -0.405 C  
HETATM   33  O5* UNL     1      -9.576  10.281  63.414  1.00  0.00    -0.301 OA 
HETATM   34  H5* UNL     1      -8.688  10.086  63.137  1.00  0.00     0.000 HD 
ENDBRANCH  25  32
ENDBRANCH  21  23
ENDBRANCH   8  11
ENDBRANCH   3   6
TORSDOF 4
ENDMDL
MODEL       52
REMARK 921   NORMALIZED FREE ENERGY PREDICTED BY IDOCK:   -6.69 KCAL/MOL
REMARK 922        TOTAL FREE ENERGY PREDICTED BY IDOCK:   -8.77 KCAL/MOL
REMARK 923 INTER-LIGAND FREE ENERGY PREDICTED BY IDOCK:   -7.83 KCAL/MOL
REMARK 924 INTRA-LIGAND FREE ENERGY PREDICTED BY IDOCK:   -0.94 KCAL/MOL
REMARK 927      BINDING AFFINITY PREDICTED BY RF-SCORE:    0.00 PKD
ROOT
HETATM    1  C   UNL     1     -10.535  17.998  65.739  1.00  0.00    -0.198 C  
HETATM    2  N   UNL     1     -10.810  16.595  65.900  1.00  0.00    -0.144 N  
HETATM    3  C   UNL     1     -11.421  15.857  64.909  1.00  0.00    -0.162 C  
HETATM    4  H   UNL     1     -10.546  16.134  66.771  1.00  0.00     0.000 HD 
HETATM    5  O   UNL     1     -11.772  16.329  63.834  1.00  0.00    -0.986 OA 
ENDROOT
BRANCH   3   6
HETATM    6  C   UNL     1     -11.609  14.450  65.232  1.00  0.00    -0.353 A  
HETATM    7  C   UNL     1     -11.383  13.803  66.429  1.00  0.00    -0.317 A  
HETATM    8  N   UNL     1     -11.674  12.464  66.252  1.00  0.00    -0.472 NA 
HETATM    9  N   UNL     1     -12.100  12.215  64.981  1.00  0.00    -0.377 NA 
HETATM   10  C   UNL     1     -12.066  13.412  64.385  1.00  0.00    -0.416 A  
BRANCH   8  11
HETATM   11  C   UNL     1     -11.480  11.443  67.251  1.00  0.00    -0.224 A  
HETATM   12  N   UNL     1     -10.609  10.437  66.984  1.00  0.00    -0.251 NA 
HETATM   13  C   UNL     1     -10.351   9.697  68.077  1.00  0.00    -0.218 A  
HETATM   14  C   UNL     1     -10.907   9.840  69.336  1.00  0.00    -0.232 A  
HETATM   15  N   UNL     1     -10.375   8.933  70.222  1.00  0.00    -0.198 NA 
HETATM   16  C   UNL     1     -11.870  10.847  69.481  1.00  0.00    -0.332 A  
HETATM   17  N   UNL     1     -12.554  11.082  70.667  1.00  0.00    -0.344 NA 
HETATM   18  N   UNL     1     -12.140  11.641  68.425  1.00  0.00    -0.518 NA 
HETATM   19  C   UNL     1      -9.475   8.276  69.524  1.00  0.00    -0.162 A  
HETATM   20  H1  UNL     1     -13.255  11.815  70.772  1.00  0.00     0.000 HD 
HETATM   21  N   UNL     1      -9.454   8.669  68.207  1.00  0.00    -0.140 NA 
HETATM   22  H2  UNL     1     -11.857  11.221  71.398  1.00  0.00     0.000 HD 
BRANCH  21  23
HETATM   23  C1* UNL     1      -8.586   8.096  67.206  1.00  0.00    -0.124 C  
HETATM   24  O4* UNL     1      -9.403   7.523  66.170  1.00  0.00    -0.155 OA 
HETATM   25  C4* UNL     1      -9.354   6.085  66.274  1.00  0.00    -0.145 C  
HETATM   26  C3* UNL     1      -8.159   5.715  67.166  1.00  0.00    -0.102 C  
HETATM   27  H2* UNL     1      -5.665   6.697  67.433  1.00  0.00     0.000 HD 
HETATM   28  C2* UNL     1      -7.586   7.041  67.675  1.00  0.00    -0.110 C  
HETATM   29  O2* UNL     1      -6.287   7.353  67.141  1.00  0.00    -0.051 OA 
HETATM   30  O3* UNL     1      -7.166   4.974  66.445  1.00  0.00    -0.074 OA 
HETATM   31  H3* UNL     1      -6.428   4.746  66.997  1.00  0.00     0.000 HD 
BRANCH  25  32
HETATM   32  C5* UNL     1     -10.705   5.577  66.797  1.00  0.00    -0.253 C  
HETATM   33  O5* UNL     1     -11.478   6.669  67.299  1.00  0.00    -0.766 OA 
HETATM   34  H5* UNL     1     -12.314   6.355  67.622  1.00  0.00     0.000 HD 
ENDBRANCH  25  32
ENDBRANCH  21  23
ENDBRANCH   8  11
ENDBRANCH   3   6
TORSDOF 4
ENDMDL
MODEL       53
REMARK 921   NORMALIZED FREE ENERGY PREDICTED BY IDOCK:   -6.68 KCAL/MOL
REMARK 922        TOTAL FREE ENERGY PREDICTED BY IDOCK:   -8.76 KCAL/MOL
REMARK 923 INTER-LIGAND FREE ENERGY PREDICTED BY IDOCK:   -7.93 KCAL/MOL
REMARK 924 INTRA-LIGAND FREE ENERGY PREDICTED BY IDOCK:   -0.83 KCAL/MOL
REMARK 927      BINDING AFFINITY PREDICTED BY RF-SCORE:    0.00 PKD
ROOT
HETATM    1  C   UNL     1      -9.178   9.759  62.432  1.00  0.00    -0.269 C  
HETATM    2  N   UNL     1      -9.696   9.953  63.760  1.00  0.00    -0.484 N  
HETATM    3  C   UNL     1      -9.202   9.254  64.841  1.00  0.00    -0.141 C  
HETATM    4  H   UNL     1     -10.448  10.626  63.906  1.00  0.00     0.000 HD 
HETATM    5  O   UNL     1      -8.301   8.428  64.758  1.00  0.00    -0.163 OA 
ENDROOT
BRANCH   3   6
HETATM    6  C   UNL     1      -9.829   9.586  66.113  1.00  0.00    -0.343 A  
HETATM    7  C   UNL     1     -10.148  10.829  66.618  1.00  0.00    -0.218 A  
HETATM    8  N   UNL     1     -10.699  10.651  67.872  1.00  0.00    -0.227 NA 
HETATM    9  N   UNL     1     -10.767   9.329  68.199  1.00  0.00    -0.190 NA 
HETATM   10  C   UNL     1     -10.253   8.704  67.135  1.00  0.00    -0.283 A  
BRANCH   8  11
HETATM   11  C   UNL     1     -11.084  11.721  68.759  1.00  0.00    -0.241 A  
HETATM   12  N   UNL     1     -10.801  12.996  68.391  1.00  0.00    -0.249 NA 
HETATM   13  C   UNL     1     -11.416  13.892  69.184  1.00  0.00    -0.299 A  
HETATM   14  C   UNL     1     -12.204  13.629  70.290  1.00  0.00    -0.353 A  
HETATM   15  N   UNL     1     -12.704  14.791  70.832  1.00  0.00    -0.322 NA 
HETATM   16  C   UNL     1     -12.354  12.283  70.644  1.00  0.00    -0.286 A  
HETATM   17  N   UNL     1     -13.071  11.862  71.756  1.00  0.00    -0.432 NA 
HETATM   18  N   UNL     1     -11.787  11.342  69.861  1.00  0.00    -0.328 NA 
HETATM   19  C   UNL     1     -12.263  15.744  70.041  1.00  0.00    -0.285 A  
HETATM   20  H1  UNL     1     -13.180  10.881  72.013  1.00  0.00     0.000 HD 
HETATM   21  N   UNL     1     -11.440  15.256  69.054  1.00  0.00    -0.303 NA 
HETATM   22  H2  UNL     1     -14.006  12.262  71.683  1.00  0.00     0.000 HD 
BRANCH  21  23
HETATM   23  C1* UNL     1     -10.790  16.080  68.063  1.00  0.00    -0.335 C  
HETATM   24  O4* UNL     1      -9.535  15.468  67.714  1.00  0.00    -0.203 OA 
HETATM   25  C4* UNL     1      -8.461  16.238  68.291  1.00  0.00    -0.187 C  
HETATM   26  C3* UNL     1      -9.025  17.607  68.701  1.00  0.00    -0.261 C  
HETATM   27  H2* UNL     1     -10.807  19.292  67.586  1.00  0.00     0.000 HD 
HETATM   28  C2* UNL     1     -10.531  17.539  68.435  1.00  0.00    -0.372 C  
HETATM   29  O2* UNL     1     -10.967  18.385  67.355  1.00  0.00    -0.351 OA 
HETATM   30  O3* UNL     1      -8.423  18.675  67.956  1.00  0.00    -0.277 OA 
HETATM   31  H3* UNL     1      -8.772  19.521  68.210  1.00  0.00     0.000 HD 
BRANCH  25  32
HETATM   32  C5* UNL     1      -7.845  15.443  69.452  1.00  0.00    -0.232 C  
HETATM   33  O5* UNL     1      -7.709  14.068  69.085  1.00  0.00    -0.297 OA 
HETATM   34  H5* UNL     1      -7.328  13.576  69.803  1.00  0.00     0.000 HD 
ENDBRANCH  25  32
ENDBRANCH  21  23
ENDBRANCH   8  11
ENDBRANCH   3   6
TORSDOF 4
ENDMDL
MODEL       54
REMARK 921   NORMALIZED FREE ENERGY PREDICTED BY IDOCK:   -6.66 KCAL/MOL
REMARK 922        TOTAL FREE ENERGY PREDICTED BY IDOCK:   -8.73 KCAL/MOL
REMARK 923 INTER-LIGAND FREE ENERGY PREDICTED BY IDOCK:   -8.32 KCAL/MOL
REMARK 924 INTRA-LIGAND FREE ENERGY PREDICTED BY IDOCK:   -0.42 KCAL/MOL
REMARK 927      BINDING AFFINITY PREDICTED BY RF-SCORE:    0.00 PKD
ROOT
HETATM    1  C   UNL     1      -9.583   5.557  72.779  1.00  0.00    -0.148 C  
HETATM    2  N   UNL     1      -9.236   6.325  71.614  1.00  0.00    -0.145 N  
HETATM    3  C   UNL     1      -9.994   6.281  70.463  1.00  0.00    -0.186 C  
HETATM    4  H   UNL     1      -8.406   6.917  71.638  1.00  0.00     0.000 HD 
HETATM    5  O   UNL     1     -11.004   5.597  70.345  1.00  0.00    -0.285 OA 
ENDROOT
BRANCH   3   6
HETATM    6  C   UNL     1      -9.508   7.131  69.386  1.00  0.00    -0.153 A  
HETATM    7  C   UNL     1     -10.235   7.803  68.424  1.00  0.00    -0.200 A  
HETATM    8  N   UNL     1      -9.343   8.456  67.595  1.00  0.00    -0.136 NA 
HETATM    9  N   UNL     1      -8.056   8.247  67.992  1.00  0.00    -0.126 NA 
HETATM   10  C   UNL     1      -8.169   7.462  69.068  1.00  0.00    -0.128 A  
BRANCH   8  11
HETATM   11  C   UNL     1      -9.712   9.200  66.416  1.00  0.00    -0.262 A  
HETATM   12  N   UNL     1     -10.501  10.294  66.565  1.00  0.00    -0.203 NA 
HETATM   13  C   UNL     1     -10.570  11.017  65.433  1.00  0.00    -0.202 A  
HETATM   14  C   UNL     1      -9.990  10.720  64.213  1.00  0.00    -0.341 A  
HETATM   15  N   UNL     1     -10.237  11.709  63.290  1.00  0.00    -0.406 NA 
HETATM   16  C   UNL     1      -9.276   9.517  64.138  1.00  0.00    -0.084 A  
HETATM   17  N   UNL     1      -8.680   9.056  62.972  1.00  0.00    -0.388 NA 
HETATM   18  N   UNL     1      -9.146   8.772  65.255  1.00  0.00    -0.149 NA 
HETATM   19  C   UNL     1     -10.920  12.617  63.951  1.00  0.00    -0.424 A  
HETATM   20  H1  UNL     1      -8.161   8.180  62.918  1.00  0.00     0.000 HD 
HETATM   21  N   UNL     1     -11.189  12.224  65.241  1.00  0.00    -0.318 NA 
HETATM   22  H2  UNL     1      -8.065   9.795  62.633  1.00  0.00     0.000 HD 
BRANCH  21  23
HETATM   23  C1* UNL     1     -11.948  13.011  66.184  1.00  0.00    -0.427 C  
HETATM   24  O4* UNL     1     -12.453  14.174  65.504  1.00  0.00    -0.457 OA 
HETATM   25  C4* UNL     1     -11.713  15.332  65.942  1.00  0.00     0.102 C  
HETATM   26  C3* UNL     1     -10.967  14.958  67.232  1.00  0.00    -0.323 C  
HETATM   27  H2* UNL     1     -11.604  13.463  69.380  1.00  0.00     0.000 HD 
HETATM   28  C2* UNL     1     -11.225  13.464  67.450  1.00  0.00    -0.288 C  
HETATM   29  O2* UNL     1     -12.054  13.181  68.593  1.00  0.00    -0.315 OA 
HETATM   30  O3* UNL     1     -11.427  15.724  68.353  1.00  0.00    -0.362 OA 
HETATM   31  H3* UNL     1     -10.965  15.493  69.150  1.00  0.00     0.000 HD 
BRANCH  25  32
HETATM   32  C5* UNL     1     -10.796  15.798  64.802  1.00  0.00    -0.344 C  
HETATM   33  O5* UNL     1     -11.559  16.493  63.813  1.00  0.00    -1.617 OA 
HETATM   34  H5* UNL     1     -10.992  16.782  63.108  1.00  0.00     0.000 HD 
ENDBRANCH  25  32
ENDBRANCH  21  23
ENDBRANCH   8  11
ENDBRANCH   3   6
TORSDOF 4
ENDMDL
MODEL       55
REMARK 921   NORMALIZED FREE ENERGY PREDICTED BY IDOCK:   -6.66 KCAL/MOL
REMARK 922        TOTAL FREE ENERGY PREDICTED BY IDOCK:   -8.73 KCAL/MOL
REMARK 923 INTER-LIGAND FREE ENERGY PREDICTED BY IDOCK:   -7.81 KCAL/MOL
REMARK 924 INTRA-LIGAND FREE ENERGY PREDICTED BY IDOCK:   -0.92 KCAL/MOL
REMARK 927      BINDING AFFINITY PREDICTED BY RF-SCORE:    0.00 PKD
ROOT
HETATM    1  C   UNL     1     -10.467  17.328  68.610  1.00  0.00    -0.356 C  
HETATM    2  N   UNL     1     -10.823  15.935  68.658  1.00  0.00    -0.274 N  
HETATM    3  C   UNL     1     -11.099  15.217  67.515  1.00  0.00    -0.319 C  
HETATM    4  H   UNL     1     -10.873  15.467  69.563  1.00  0.00     0.000 HD 
HETATM    5  O   UNL     1     -11.064  15.698  66.388  1.00  0.00    -0.254 OA 
ENDROOT
BRANCH   3   6
HETATM    6  C   UNL     1     -11.426  13.817  67.744  1.00  0.00    -0.354 A  
HETATM    7  C   UNL     1     -11.417  13.113  68.931  1.00  0.00    -0.298 A  
HETATM    8  N   UNL     1     -11.769  11.806  68.655  1.00  0.00    -0.311 NA 
HETATM    9  N   UNL     1     -12.025  11.634  67.327  1.00  0.00    -0.602 NA 
HETATM   10  C   UNL     1     -11.826  12.844  66.797  1.00  0.00    -0.385 A  
BRANCH   8  11
HETATM   11  C   UNL     1     -11.791  10.739  69.625  1.00  0.00    -0.320 A  
HETATM   12  N   UNL     1     -10.766   9.849  69.626  1.00  0.00    -0.236 NA 
HETATM   13  C   UNL     1     -10.791   9.062  70.716  1.00  0.00    -0.251 A  
HETATM   14  C   UNL     1     -11.739   9.055  71.723  1.00  0.00    -0.369 A  
HETATM   15  N   UNL     1     -11.419   8.144  72.702  1.00  0.00    -0.403 NA 
HETATM   16  C   UNL     1     -12.810   9.946  71.577  1.00  0.00    -0.421 A  
HETATM   17  N   UNL     1     -13.865  10.023  72.477  1.00  0.00    -0.524 NA 
HETATM   18  N   UNL     1     -12.814  10.784  70.521  1.00  0.00    -0.300 NA 
HETATM   19  C   UNL     1     -10.269   7.634  72.320  1.00  0.00    -0.216 A  
HETATM   20  H1  UNL     1     -14.644  10.672  72.371  1.00  0.00     0.000 HD 
HETATM   21  N   UNL     1      -9.868   8.123  71.099  1.00  0.00    -0.166 NA 
HETATM   22  H2  UNL     1     -13.465  10.178  73.402  1.00  0.00     0.000 HD 
BRANCH  21  23
HETATM   23  C1* UNL     1      -8.660   7.716  70.421  1.00  0.00    -0.138 C  
HETATM   24  O4* UNL     1      -8.966   7.508  69.031  1.00  0.00    -0.132 OA 
HETATM   25  C4* UNL     1      -8.967   6.092  68.756  1.00  0.00    -0.123 C  
HETATM   26  C3* UNL     1      -8.259   5.383  69.920  1.00  0.00    -0.096 C  
HETATM   27  H2* UNL     1      -6.108   5.980  71.428  1.00  0.00     0.000 HD 
HETATM   28  C2* UNL     1      -7.952   6.472  70.953  1.00  0.00    -0.111 C  
HETATM   29  O2* UNL     1      -6.548   6.754  71.097  1.00  0.00    -0.051 OA 
HETATM   30  O3* UNL     1      -7.055   4.731  69.494  1.00  0.00    -0.052 OA 
HETATM   31  H3* UNL     1      -6.618   4.293  70.214  1.00  0.00     0.000 HD 
BRANCH  25  32
HETATM   32  C5* UNL     1     -10.413   5.630  68.529  1.00  0.00    -0.203 C  
HETATM   33  O5* UNL     1     -11.295   6.755  68.543  1.00  0.00    -0.539 OA 
HETATM   34  H5* UNL     1     -12.190   6.469  68.402  1.00  0.00     0.000 HD 
ENDBRANCH  25  32
ENDBRANCH  21  23
ENDBRANCH   8  11
ENDBRANCH   3   6
TORSDOF 4
ENDMDL
MODEL       56
REMARK 921   NORMALIZED FREE ENERGY PREDICTED BY IDOCK:   -6.65 KCAL/MOL
REMARK 922        TOTAL FREE ENERGY PREDICTED BY IDOCK:   -8.71 KCAL/MOL
REMARK 923 INTER-LIGAND FREE ENERGY PREDICTED BY IDOCK:   -8.23 KCAL/MOL
REMARK 924 INTRA-LIGAND FREE ENERGY PREDICTED BY IDOCK:   -0.49 KCAL/MOL
REMARK 927      BINDING AFFINITY PREDICTED BY RF-SCORE:    0.00 PKD
ROOT
HETATM    1  C   UNL     1     -10.593   5.253  66.695  1.00  0.00    -0.270 C  
HETATM    2  N   UNL     1     -10.956   6.625  66.927  1.00  0.00    -0.535 N  
HETATM    3  C   UNL     1     -10.051   7.652  66.765  1.00  0.00    -0.255 C  
HETATM    4  H   UNL     1     -11.909   6.844  67.219  1.00  0.00     0.000 HD 
HETATM    5  O   UNL     1      -8.888   7.481  66.419  1.00  0.00    -0.142 OA 
ENDROOT
BRANCH   3   6
HETATM    6  C   UNL     1     -10.590   8.979  67.027  1.00  0.00    -0.270 A  
HETATM    7  C   UNL     1     -10.643  10.069  66.182  1.00  0.00    -0.000 A  
HETATM    8  N   UNL     1     -11.213  11.119  66.876  1.00  0.00    -0.345 NA 
HETATM    9  N   UNL     1     -11.551  10.748  68.143  1.00  0.00    -0.489 NA 
HETATM   10  C   UNL     1     -11.183   9.464  68.217  1.00  0.00     0.189 A  
BRANCH   8  11
HETATM   11  C   UNL     1     -11.364  12.458  66.362  1.00  0.00    -0.342 A  
HETATM   12  N   UNL     1     -10.958  13.495  67.138  1.00  0.00    -0.287 NA 
HETATM   13  C   UNL     1     -10.936  14.652  66.452  1.00  0.00    -0.325 A  
HETATM   14  C   UNL     1     -11.320  14.854  65.138  1.00  0.00    -0.379 A  
HETATM   15  N   UNL     1     -11.121  16.160  64.757  1.00  0.00    -0.579 NA 
HETATM   16  C   UNL     1     -11.817  13.737  64.455  1.00  0.00    -0.427 A  
HETATM   17  N   UNL     1     -12.288  13.790  63.150  1.00  0.00    -1.106 NA 
HETATM   18  N   UNL     1     -11.826  12.545  65.085  1.00  0.00    -0.385 NA 
HETATM   19  C   UNL     1     -10.582  16.736  65.809  1.00  0.00    -0.250 A  
HETATM   20  H1  UNL     1     -12.650  12.976  62.652  1.00  0.00     0.000 HD 
HETATM   21  N   UNL     1     -10.491  15.876  66.878  1.00  0.00    -0.306 NA 
HETATM   22  H2  UNL     1     -11.548  14.192  62.575  1.00  0.00     0.000 HD 
BRANCH  21  23
HETATM   23  C1* UNL     1      -9.968  16.247  68.171  1.00  0.00    -0.239 C  
HETATM   24  O4* UNL     1      -8.798  17.061  67.972  1.00  0.00    -0.213 OA 
HETATM   25  C4* UNL     1      -7.626  16.290  68.308  1.00  0.00    -0.153 C  
HETATM   26  C3* UNL     1      -8.080  15.066  69.117  1.00  0.00    -0.192 C  
HETATM   27  H2* UNL     1      -9.952  14.683  71.017  1.00  0.00     0.000 HD 
HETATM   28  C2* UNL     1      -9.611  15.110  69.127  1.00  0.00    -0.232 C  
HETATM   29  O2* UNL     1     -10.174  15.390  70.422  1.00  0.00    -0.244 OA 
HETATM   30  O3* UNL     1      -7.561  15.089  70.454  1.00  0.00    -0.128 OA 
HETATM   31  H3* UNL     1      -7.841  14.332  70.954  1.00  0.00     0.000 HD 
BRANCH  25  32
HETATM   32  C5* UNL     1      -6.872  15.941  67.016  1.00  0.00    -0.095 C  
HETATM   33  O5* UNL     1      -6.124  14.736  67.197  1.00  0.00    -0.228 OA 
HETATM   34  H5* UNL     1      -5.658  14.520  66.398  1.00  0.00     0.000 HD 
ENDBRANCH  25  32
ENDBRANCH  21  23
ENDBRANCH   8  11
ENDBRANCH   3   6
TORSDOF 4
ENDMDL
MODEL       57
REMARK 921   NORMALIZED FREE ENERGY PREDICTED BY IDOCK:   -6.61 KCAL/MOL
REMARK 922        TOTAL FREE ENERGY PREDICTED BY IDOCK:   -8.67 KCAL/MOL
REMARK 923 INTER-LIGAND FREE ENERGY PREDICTED BY IDOCK:   -8.17 KCAL/MOL
REMARK 924 INTRA-LIGAND FREE ENERGY PREDICTED BY IDOCK:   -0.50 KCAL/MOL
REMARK 927      BINDING AFFINITY PREDICTED BY RF-SCORE:    0.00 PKD
ROOT
HETATM    1  C   UNL     1      -5.812  20.455  64.727  1.00  0.00    -0.235 C  
HETATM    2  N   UNL     1      -6.943  20.070  65.527  1.00  0.00    -0.304 N  
HETATM    3  C   UNL     1      -7.066  18.798  66.045  1.00  0.00    -0.268 C  
HETATM    4  H   UNL     1      -7.674  20.755  65.716  1.00  0.00     0.000 HD 
HETATM    5  O   UNL     1      -6.239  17.912  65.867  1.00  0.00    -0.220 OA 
ENDROOT
BRANCH   3   6
HETATM    6  C   UNL     1      -8.265  18.584  66.843  1.00  0.00    -0.266 A  
HETATM    7  C   UNL     1      -8.689  17.429  67.469  1.00  0.00    -0.219 A  
HETATM    8  N   UNL     1      -9.897  17.695  68.082  1.00  0.00    -0.302 NA 
HETATM    9  N   UNL     1     -10.273  18.992  67.893  1.00  0.00    -0.380 NA 
HETATM   10  C   UNL     1      -9.284  19.514  67.160  1.00  0.00    -0.316 A  
BRANCH   8  11
HETATM   11  C   UNL     1     -10.703  16.716  68.769  1.00  0.00    -0.342 A  
HETATM   12  N   UNL     1     -10.976  15.547  68.134  1.00  0.00    -0.299 NA 
HETATM   13  C   UNL     1     -11.526  14.645  68.966  1.00  0.00    -0.291 A  
HETATM   14  C   UNL     1     -11.858  14.826  70.297  1.00  0.00    -0.302 A  
HETATM   15  N   UNL     1     -12.363  13.670  70.846  1.00  0.00    -0.366 NA 
HETATM   16  C   UNL     1     -11.626  16.100  70.830  1.00  0.00    -0.371 A  
HETATM   17  N   UNL     1     -11.952  16.452  72.133  1.00  0.00    -0.634 NA 
HETATM   18  N   UNL     1     -11.042  17.031  70.048  1.00  0.00     0.187 NA 
HETATM   19  C   UNL     1     -12.297  12.785  69.876  1.00  0.00    -0.070 A  
HETATM   20  H1  UNL     1     -11.782  17.380  72.521  1.00  0.00     0.000 HD 
HETATM   21  N   UNL     1     -11.841  13.337  68.703  1.00  0.00    -0.336 NA 
HETATM   22  H2  UNL     1     -11.502  15.778  72.752  1.00  0.00     0.000 HD 
BRANCH  21  23
HETATM   23  C1* UNL     1     -11.698  12.606  67.467  1.00  0.00    -0.368 C  
HETATM   24  O4* UNL     1     -12.029  11.227  67.713  1.00  0.00    -0.637 OA 
HETATM   25  C4* UNL     1     -10.817  10.444  67.701  1.00  0.00    -0.306 C  
HETATM   26  C3* UNL     1      -9.715  11.286  67.043  1.00  0.00    -0.186 C  
HETATM   27  H2* UNL     1      -9.673  12.992  64.958  1.00  0.00     0.000 HD 
HETATM   28  C2* UNL     1     -10.334  12.662  66.781  1.00  0.00    -0.235 C  
HETATM   29  O2* UNL     1     -10.521  12.956  65.385  1.00  0.00    -0.282 OA 
HETATM   30  O3* UNL     1      -9.251  10.695  65.821  1.00  0.00    -0.174 OA 
HETATM   31  H3* UNL     1      -8.569  11.216  65.415  1.00  0.00     0.000 HD 
BRANCH  25  32
HETATM   32  C5* UNL     1     -10.495  10.003  69.137  1.00  0.00    -0.219 C  
HETATM   33  O5* UNL     1     -11.091   8.731  69.404  1.00  0.00    -0.428 OA 
HETATM   34  H5* UNL     1     -10.891   8.459  70.291  1.00  0.00     0.000 HD 
ENDBRANCH  25  32
ENDBRANCH  21  23
ENDBRANCH   8  11
ENDBRANCH   3   6
TORSDOF 4
ENDMDL
MODEL       58
REMARK 921   NORMALIZED FREE ENERGY PREDICTED BY IDOCK:   -6.60 KCAL/MOL
REMARK 922        TOTAL FREE ENERGY PREDICTED BY IDOCK:   -8.65 KCAL/MOL
REMARK 923 INTER-LIGAND FREE ENERGY PREDICTED BY IDOCK:   -7.85 KCAL/MOL
REMARK 924 INTRA-LIGAND FREE ENERGY PREDICTED BY IDOCK:   -0.80 KCAL/MOL
REMARK 927      BINDING AFFINITY PREDICTED BY RF-SCORE:    0.00 PKD
ROOT
HETATM    1  C   UNL     1     -13.797   8.130  71.780  1.00  0.00    -0.393 C  
HETATM    2  N   UNL     1     -12.772   8.311  70.788  1.00  0.00    -0.454 N  
HETATM    3  C   UNL     1     -11.474   8.620  71.135  1.00  0.00    -0.280 C  
HETATM    4  H   UNL     1     -13.011   8.209  69.802  1.00  0.00     0.000 HD 
HETATM    5  O   UNL     1     -11.098   8.763  72.293  1.00  0.00    -0.359 OA 
ENDROOT
BRANCH   3   6
HETATM    6  C   UNL     1     -10.562   8.754  70.007  1.00  0.00    -0.232 A  
HETATM    7  C   UNL     1     -10.844   9.135  68.712  1.00  0.00    -0.060 A  
HETATM    8  N   UNL     1      -9.668   9.087  67.988  1.00  0.00    -0.151 NA 
HETATM    9  N   UNL     1      -8.621   8.701  68.771  1.00  0.00    -0.129 NA 
HETATM   10  C   UNL     1      -9.167   8.515  69.977  1.00  0.00    -0.155 A  
BRANCH   8  11
HETATM   11  C   UNL     1      -9.566   9.334  66.571  1.00  0.00    -0.224 A  
HETATM   12  N   UNL     1     -10.196  10.422  66.059  1.00  0.00    -0.243 NA 
HETATM   13  C   UNL     1      -9.827  10.660  64.788  1.00  0.00    -0.310 A  
HETATM   14  C   UNL     1      -8.967   9.906  64.010  1.00  0.00    -0.243 A  
HETATM   15  N   UNL     1      -8.789  10.475  62.771  1.00  0.00    -0.217 NA 
HETATM   16  C   UNL     1      -8.446   8.748  64.600  1.00  0.00    -0.151 A  
HETATM   17  N   UNL     1      -7.611   7.862  63.933  1.00  0.00    -0.114 NA 
HETATM   18  N   UNL     1      -8.756   8.482  65.886  1.00  0.00    -0.165 NA 
HETATM   19  C   UNL     1      -9.494  11.583  62.809  1.00  0.00    -0.188 A  
HETATM   20  H1  UNL     1      -7.231   7.019  64.363  1.00  0.00     0.000 HD 
HETATM   21  N   UNL     1     -10.181  11.719  63.992  1.00  0.00    -0.316 NA 
HETATM   22  H2  UNL     1      -6.822   8.400  63.574  1.00  0.00     0.000 HD 
BRANCH  21  23
HETATM   23  C1* UNL     1     -11.058  12.824  64.296  1.00  0.00    -0.370 C  
HETATM   24  O4* UNL     1     -10.251  13.964  64.641  1.00  0.00    -0.417 OA 
HETATM   25  C4* UNL     1     -10.342  14.190  66.063  1.00  0.00    -0.309 C  
HETATM   26  C3* UNL     1     -11.551  13.406  66.592  1.00  0.00    -0.362 C  
HETATM   27  H2* UNL     1     -14.019  12.920  65.626  1.00  0.00     0.000 HD 
HETATM   28  C2* UNL     1     -12.090  12.607  65.402  1.00  0.00    -0.462 C  
HETATM   29  O2* UNL     1     -13.377  13.055  64.939  1.00  0.00    -0.641 OA 
HETATM   30  O3* UNL     1     -12.561  14.277  67.120  1.00  0.00    -0.546 OA 
HETATM   31  H3* UNL     1     -13.308  13.791  67.448  1.00  0.00     0.000 HD 
BRANCH  25  32
HETATM   32  C5* UNL     1      -9.008  13.799  66.716  1.00  0.00    -0.185 C  
HETATM   33  O5* UNL     1      -9.167  12.595  67.471  1.00  0.00    -0.177 OA 
HETATM   34  H5* UNL     1      -8.342  12.352  67.874  1.00  0.00     0.000 HD 
ENDBRANCH  25  32
ENDBRANCH  21  23
ENDBRANCH   8  11
ENDBRANCH   3   6
TORSDOF 4
ENDMDL
MODEL       59
REMARK 921   NORMALIZED FREE ENERGY PREDICTED BY IDOCK:   -6.57 KCAL/MOL
REMARK 922        TOTAL FREE ENERGY PREDICTED BY IDOCK:   -8.62 KCAL/MOL
REMARK 923 INTER-LIGAND FREE ENERGY PREDICTED BY IDOCK:   -7.80 KCAL/MOL
REMARK 924 INTRA-LIGAND FREE ENERGY PREDICTED BY IDOCK:   -0.82 KCAL/MOL
REMARK 927      BINDING AFFINITY PREDICTED BY RF-SCORE:    0.00 PKD
ROOT
HETATM    1  C   UNL     1     -10.441  19.498  66.242  1.00  0.00    -0.512 C  
HETATM    2  N   UNL     1     -10.625  18.114  66.585  1.00  0.00    -0.324 N  
HETATM    3  C   UNL     1     -10.501  17.666  67.883  1.00  0.00    -0.392 C  
HETATM    4  H   UNL     1     -10.852  17.445  65.850  1.00  0.00     0.000 HD 
HETATM    5  O   UNL     1     -10.228  18.398  68.828  1.00  0.00    -0.379 OA 
ENDROOT
BRANCH   3   6
HETATM    6  C   UNL     1     -10.734  16.239  68.056  1.00  0.00    -0.331 A  
HETATM    7  C   UNL     1     -10.052  15.180  67.493  1.00  0.00    -0.232 A  
HETATM    8  N   UNL     1     -10.649  14.011  67.922  1.00  0.00    -0.242 NA 
HETATM    9  N   UNL     1     -11.691  14.269  68.763  1.00  0.00    -0.323 NA 
HETATM   10  C   UNL     1     -11.724  15.603  68.842  1.00  0.00    -0.384 A  
BRANCH   8  11
HETATM   11  C   UNL     1     -10.276  12.689  67.483  1.00  0.00    -0.215 A  
HETATM   12  N   UNL     1     -10.464  11.651  68.337  1.00  0.00    -0.205 NA 
HETATM   13  C   UNL     1     -10.299  10.465  67.723  1.00  0.00    -0.206 A  
HETATM   14  C   UNL     1      -9.927  10.247  66.408  1.00  0.00    -0.229 A  
HETATM   15  N   UNL     1      -9.899   8.904  66.115  1.00  0.00    -0.277 NA 
HETATM   16  C   UNL     1      -9.661  11.386  65.638  1.00  0.00    -0.231 A  
HETATM   17  N   UNL     1      -9.230  11.331  64.319  1.00  0.00    -0.388 NA 
HETATM   18  N   UNL     1      -9.846  12.601  66.195  1.00  0.00    -0.258 NA 
HETATM   19  C   UNL     1     -10.292   8.313  67.222  1.00  0.00    -0.302 A  
HETATM   20  H1  UNL     1      -9.037  12.161  63.759  1.00  0.00     0.000 HD 
HETATM   21  N   UNL     1     -10.502   9.213  68.241  1.00  0.00    -0.216 NA 
HETATM   22  H2  UNL     1      -9.903  10.766  63.803  1.00  0.00     0.000 HD 
BRANCH  21  23
HETATM   23  C1* UNL     1     -10.908   8.842  69.575  1.00  0.00    -0.153 C  
HETATM   24  O4* UNL     1     -10.202   9.674  70.513  1.00  0.00    -0.264 OA 
HETATM   25  C4* UNL     1      -9.191   8.884  71.173  1.00  0.00    -0.256 C  
HETATM   26  C3* UNL     1      -9.513   7.402  70.929  1.00  0.00    -0.165 C  
HETATM   27  H2* UNL     1     -11.805   5.989  70.840  1.00  0.00     0.000 HD 
HETATM   28  C2* UNL     1     -10.715   7.382  69.980  1.00  0.00    -0.246 C  
HETATM   29  O2* UNL     1     -11.925   6.897  70.588  1.00  0.00    -0.369 OA 
HETATM   30  O3* UNL     1      -9.818   6.717  72.152  1.00  0.00    -0.159 OA 
HETATM   31  H3* UNL     1     -10.017   5.800  72.001  1.00  0.00     0.000 HD 
BRANCH  25  32
HETATM   32  C5* UNL     1      -7.809   9.316  70.660  1.00  0.00    -0.158 C  
HETATM   33  O5* UNL     1      -7.834  10.695  70.287  1.00  0.00    -0.390 OA 
HETATM   34  H5* UNL     1      -6.980  10.962  69.970  1.00  0.00     0.000 HD 
ENDBRANCH  25  32
ENDBRANCH  21  23
ENDBRANCH   8  11
ENDBRANCH   3   6
TORSDOF 4
ENDMDL
MODEL       60
REMARK 921   NORMALIZED FREE ENERGY PREDICTED BY IDOCK:   -6.57 KCAL/MOL
REMARK 922        TOTAL FREE ENERGY PREDICTED BY IDOCK:   -8.62 KCAL/MOL
REMARK 923 INTER-LIGAND FREE ENERGY PREDICTED BY IDOCK:   -8.26 KCAL/MOL
REMARK 924 INTRA-LIGAND FREE ENERGY PREDICTED BY IDOCK:   -0.35 KCAL/MOL
REMARK 927      BINDING AFFINITY PREDICTED BY RF-SCORE:    0.00 PKD
ROOT
HETATM    1  C   UNL     1     -10.419  18.873  65.970  1.00  0.00    -0.446 C  
HETATM    2  N   UNL     1     -10.374  17.583  66.604  1.00  0.00    -0.331 N  
HETATM    3  C   UNL     1     -10.610  16.421  65.902  1.00  0.00    -0.285 C  
HETATM    4  H   UNL     1     -10.162  17.527  67.600  1.00  0.00     0.000 HD 
HETATM    5  O   UNL     1     -10.873  16.395  64.705  1.00  0.00    -0.717 OA 
ENDROOT
BRANCH   3   6
HETATM    6  C   UNL     1     -10.509  15.204  66.695  1.00  0.00    -0.287 A  
HETATM    7  C   UNL     1     -11.454  14.635  67.524  1.00  0.00    -0.361 A  
HETATM    8  N   UNL     1     -10.900  13.503  68.089  1.00  0.00    -0.247 NA 
HETATM    9  N   UNL     1      -9.627  13.302  67.644  1.00  0.00    -0.207 NA 
HETATM   10  C   UNL     1      -9.410  14.320  66.804  1.00  0.00    -0.276 A  
BRANCH   8  11
HETATM   11  C   UNL     1     -11.546  12.680  69.080  1.00  0.00    -0.320 A  
HETATM   12  N   UNL     1     -11.309  11.343  69.061  1.00  0.00    -0.252 NA 
HETATM   13  C   UNL     1     -11.778  10.738  70.167  1.00  0.00    -0.339 A  
HETATM   14  C   UNL     1     -12.476  11.321  71.209  1.00  0.00    -0.336 A  
HETATM   15  N   UNL     1     -12.759  10.404  72.194  1.00  0.00    -0.265 NA 
HETATM   16  C   UNL     1     -12.754  12.688  71.086  1.00  0.00    -0.254 A  
HETATM   17  N   UNL     1     -13.486  13.405  72.023  1.00  0.00    -0.465 NA 
HETATM   18  N   UNL     1     -12.275  13.351  70.013  1.00  0.00    -0.321 NA 
HETATM   19  C   UNL     1     -12.202   9.287  71.779  1.00  0.00    -0.385 A  
HETATM   20  H1  UNL     1     -13.688  14.400  71.933  1.00  0.00     0.000 HD 
HETATM   21  N   UNL     1     -11.636   9.425  70.534  1.00  0.00    -0.259 NA 
HETATM   22  H2  UNL     1     -13.039  13.267  72.929  1.00  0.00     0.000 HD 
BRANCH  21  23
HETATM   23  C1* UNL     1     -10.982   8.354  69.820  1.00  0.00    -0.127 C  
HETATM   24  O4* UNL     1     -11.393   7.103  70.400  1.00  0.00    -0.281 OA 
HETATM   25  C4* UNL     1     -10.296   6.555  71.160  1.00  0.00    -0.205 C  
HETATM   26  C3* UNL     1      -9.014   7.287  70.737  1.00  0.00    -0.152 C  
HETATM   27  H2* UNL     1      -8.079   8.185  68.375  1.00  0.00     0.000 HD 
HETATM   28  C2* UNL     1      -9.456   8.385  69.766  1.00  0.00    -0.162 C  
HETATM   29  O2* UNL     1      -9.028   8.165  68.409  1.00  0.00    -0.137 OA 
HETATM   30  O3* UNL     1      -8.076   6.401  70.112  1.00  0.00    -0.116 OA 
HETATM   31  H3* UNL     1      -7.284   6.854  69.851  1.00  0.00     0.000 HD 
BRANCH  25  32
HETATM   32  C5* UNL     1     -10.618   6.673  72.657  1.00  0.00    -0.222 C  
HETATM   33  O5* UNL     1     -11.836   5.984  72.951  1.00  0.00    -0.509 OA 
HETATM   34  H5* UNL     1     -12.036   6.057  73.877  1.00  0.00     0.000 HD 
ENDBRANCH  25  32
ENDBRANCH  21  23
ENDBRANCH   8  11
ENDBRANCH   3   6
TORSDOF 4
ENDMDL
MODEL       61
REMARK 921   NORMALIZED FREE ENERGY PREDICTED BY IDOCK:   -6.55 KCAL/MOL
REMARK 922        TOTAL FREE ENERGY PREDICTED BY IDOCK:   -8.60 KCAL/MOL
REMARK 923 INTER-LIGAND FREE ENERGY PREDICTED BY IDOCK:   -7.83 KCAL/MOL
REMARK 924 INTRA-LIGAND FREE ENERGY PREDICTED BY IDOCK:   -0.76 KCAL/MOL
REMARK 927      BINDING AFFINITY PREDICTED BY RF-SCORE:    0.00 PKD
ROOT
HETATM    1  C   UNL     1     -11.229   4.595  73.484  1.00  0.00    -0.316 C  
HETATM    2  N   UNL     1     -10.869   5.318  72.294  1.00  0.00    -0.224 N  
HETATM    3  C   UNL     1     -11.708   6.260  71.737  1.00  0.00    -0.299 C  
HETATM    4  H   UNL     1      -9.970   5.130  71.851  1.00  0.00     0.000 HD 
HETATM    5  O   UNL     1     -12.805   6.548  72.201  1.00  0.00    -0.218 OA 
ENDROOT
BRANCH   3   6
HETATM    6  C   UNL     1     -11.182   6.908  70.544  1.00  0.00    -0.353 A  
HETATM    7  C   UNL     1     -10.523   8.116  70.440  1.00  0.00    -0.215 A  
HETATM    8  N   UNL     1     -10.240   8.333  69.105  1.00  0.00    -0.214 NA 
HETATM    9  N   UNL     1     -10.678   7.299  68.333  1.00  0.00    -0.162 NA 
HETATM   10  C   UNL     1     -11.230   6.450  69.206  1.00  0.00    -0.375 A  
BRANCH   8  11
HETATM   11  C   UNL     1      -9.632   9.530  68.579  1.00  0.00    -0.142 A  
HETATM   12  N   UNL     1     -10.363  10.310  67.743  1.00  0.00    -0.190 NA 
HETATM   13  C   UNL     1      -9.768  11.496  67.520  1.00  0.00    -0.179 A  
HETATM   14  C   UNL     1      -8.541  11.920  67.997  1.00  0.00    -0.168 A  
HETATM   15  N   UNL     1      -8.272  13.210  67.601  1.00  0.00    -0.161 NA 
HETATM   16  C   UNL     1      -7.821  11.002  68.771  1.00  0.00    -0.138 A  
HETATM   17  N   UNL     1      -6.555  11.260  69.279  1.00  0.00    -0.088 NA 
HETATM   18  N   UNL     1      -8.388   9.811  69.055  1.00  0.00    -0.120 NA 
HETATM   19  C   UNL     1      -9.340  13.582  66.931  1.00  0.00    -0.253 A  
HETATM   20  H1  UNL     1      -6.031  10.591  69.843  1.00  0.00     0.000 HD 
HETATM   21  N   UNL     1     -10.256  12.564  66.813  1.00  0.00    -0.229 NA 
HETATM   22  H2  UNL     1      -6.612  12.127  69.812  1.00  0.00     0.000 HD 
BRANCH  21  23
HETATM   23  C1* UNL     1     -11.507  12.680  66.102  1.00  0.00    -0.365 C  
HETATM   24  O4* UNL     1     -11.705  11.482  65.330  1.00  0.00    -0.130 OA 
HETATM   25  C4* UNL     1     -11.493  11.782  63.935  1.00  0.00    -0.393 C  
HETATM   26  C3* UNL     1     -11.539  13.308  63.766  1.00  0.00    -0.375 C  
HETATM   27  H2* UNL     1     -13.047  15.255  64.859  1.00  0.00     0.000 HD 
HETATM   28  C2* UNL     1     -11.671  13.885  65.178  1.00  0.00    -0.350 C  
HETATM   29  O2* UNL     1     -12.944  14.505  65.434  1.00  0.00    -0.470 OA 
HETATM   30  O3* UNL     1     -12.639  13.719  62.942  1.00  0.00    -0.944 OA 
HETATM   31  H3* UNL     1     -12.666  14.663  62.838  1.00  0.00     0.000 HD 
BRANCH  25  32
HETATM   32  C5* UNL     1     -10.172  11.142  63.483  1.00  0.00    -0.390 C  
HETATM   33  O5* UNL     1      -9.881   9.998  64.289  1.00  0.00    -0.374 OA 
HETATM   34  H5* UNL     1      -9.064   9.602  64.009  1.00  0.00     0.000 HD 
ENDBRANCH  25  32
ENDBRANCH  21  23
ENDBRANCH   8  11
ENDBRANCH   3   6
TORSDOF 4
ENDMDL
MODEL       62
REMARK 921   NORMALIZED FREE ENERGY PREDICTED BY IDOCK:   -6.55 KCAL/MOL
REMARK 922        TOTAL FREE ENERGY PREDICTED BY IDOCK:   -8.59 KCAL/MOL
REMARK 923 INTER-LIGAND FREE ENERGY PREDICTED BY IDOCK:   -7.59 KCAL/MOL
REMARK 924 INTRA-LIGAND FREE ENERGY PREDICTED BY IDOCK:   -1.01 KCAL/MOL
REMARK 927      BINDING AFFINITY PREDICTED BY RF-SCORE:    0.00 PKD
ROOT
HETATM    1  C   UNL     1     -14.281  15.586  72.175  1.00  0.00    -0.522 C  
HETATM    2  N   UNL     1     -13.677  14.928  71.048  1.00  0.00    -0.598 N  
HETATM    3  C   UNL     1     -12.469  15.343  70.528  1.00  0.00    -0.422 C  
HETATM    4  H   UNL     1     -14.154  14.134  70.622  1.00  0.00     0.000 HD 
HETATM    5  O   UNL     1     -11.828  16.286  70.975  1.00  0.00    -0.373 OA 
ENDROOT
BRANCH   3   6
HETATM    6  C   UNL     1     -11.996  14.556  69.398  1.00  0.00    -0.362 A  
HETATM    7  C   UNL     1     -11.713  13.206  69.346  1.00  0.00    -0.327 A  
HETATM    8  N   UNL     1     -11.264  12.913  68.073  1.00  0.00    -0.252 NA 
HETATM    9  N   UNL     1     -11.259  14.025  67.283  1.00  0.00    -0.302 NA 
HETATM   10  C   UNL     1     -11.708  14.996  68.084  1.00  0.00    -0.312 A  
BRANCH   8  11
HETATM   11  C   UNL     1     -10.787  11.621  67.647  1.00  0.00    -0.225 A  
HETATM   12  N   UNL     1     -10.757  10.614  68.557  1.00  0.00    -0.201 NA 
HETATM   13  C   UNL     1     -10.521   9.424  67.976  1.00  0.00    -0.228 A  
HETATM   14  C   UNL     1     -10.269   9.181  66.637  1.00  0.00    -0.258 A  
HETATM   15  N   UNL     1     -10.114   7.836  66.396  1.00  0.00    -0.138 NA 
HETATM   16  C   UNL     1     -10.225  10.301  65.797  1.00  0.00    -0.219 A  
HETATM   17  N   UNL     1      -9.935  10.226  64.441  1.00  0.00    -0.330 NA 
HETATM   18  N   UNL     1     -10.491  11.514  66.323  1.00  0.00    -0.243 NA 
HETATM   19  C   UNL     1     -10.313   7.264  67.563  1.00  0.00    -0.242 A  
HETATM   20  H1  UNL     1      -9.903  11.041  63.830  1.00  0.00     0.000 HD 
HETATM   21  N   UNL     1     -10.517   8.186  68.562  1.00  0.00    -0.193 NA 
HETATM   22  H2  UNL     1     -10.589   9.562  64.027  1.00  0.00     0.000 HD 
BRANCH  21  23
HETATM   23  C1* UNL     1     -10.730   7.842  69.948  1.00  0.00    -0.244 C  
HETATM   24  O4* UNL     1      -9.492   8.023  70.657  1.00  0.00    -0.161 OA 
HETATM   25  C4* UNL     1      -8.937   6.728  70.972  1.00  0.00    -0.145 C  
HETATM   26  C3* UNL     1     -10.048   5.682  70.798  1.00  0.00    -0.209 C  
HETATM   27  H2* UNL     1     -12.685   5.661  71.350  1.00  0.00     0.000 HD 
HETATM   28  C2* UNL     1     -11.258   6.440  70.242  1.00  0.00    -0.382 C  
HETATM   29  O2* UNL     1     -12.357   6.534  71.167  1.00  0.00    -0.305 OA 
HETATM   30  O3* UNL     1     -10.374   5.041  72.038  1.00  0.00    -0.205 OA 
HETATM   31  H3* UNL     1     -11.061   4.394  71.930  1.00  0.00     0.000 HD 
BRANCH  25  32
HETATM   32  C5* UNL     1      -7.706   6.486  70.087  1.00  0.00    -0.102 C  
HETATM   33  O5* UNL     1      -7.416   7.656  69.319  1.00  0.00    -0.089 OA 
HETATM   34  H5* UNL     1      -6.654   7.506  68.772  1.00  0.00     0.000 HD 
ENDBRANCH  25  32
ENDBRANCH  21  23
ENDBRANCH   8  11
ENDBRANCH   3   6
TORSDOF 4
ENDMDL
MODEL       63
REMARK 921   NORMALIZED FREE ENERGY PREDICTED BY IDOCK:   -6.53 KCAL/MOL
REMARK 922        TOTAL FREE ENERGY PREDICTED BY IDOCK:   -8.57 KCAL/MOL
REMARK 923 INTER-LIGAND FREE ENERGY PREDICTED BY IDOCK:   -8.26 KCAL/MOL
REMARK 924 INTRA-LIGAND FREE ENERGY PREDICTED BY IDOCK:   -0.32 KCAL/MOL
REMARK 927      BINDING AFFINITY PREDICTED BY RF-SCORE:    0.00 PKD
ROOT
HETATM    1  C   UNL     1      -7.636   4.139  65.713  1.00  0.00    -0.085 C  
HETATM    2  N   UNL     1      -8.256   4.747  66.860  1.00  0.00    -0.107 N  
HETATM    3  C   UNL     1      -9.627   4.808  66.995  1.00  0.00    -0.171 C  
HETATM    4  H   UNL     1      -7.667   5.144  67.591  1.00  0.00     0.000 HD 
HETATM    5  O   UNL     1     -10.409   4.359  66.166  1.00  0.00    -0.242 OA 
ENDROOT
BRANCH   3   6
HETATM    6  C   UNL     1     -10.086   5.443  68.223  1.00  0.00    -0.225 A  
HETATM    7  C   UNL     1     -10.545   6.730  68.407  1.00  0.00    -0.227 A  
HETATM    8  N   UNL     1     -10.838   6.891  69.747  1.00  0.00    -0.246 NA 
HETATM    9  N   UNL     1     -10.601   5.745  70.445  1.00  0.00    -0.274 NA 
HETATM   10  C   UNL     1     -10.161   4.884  69.521  1.00  0.00    -0.177 A  
BRANCH   8  11
HETATM   11  C   UNL     1     -11.265   8.128  70.352  1.00  0.00    -0.221 A  
HETATM   12  N   UNL     1     -10.990   9.290  69.705  1.00  0.00    -0.224 NA 
HETATM   13  C   UNL     1     -11.642  10.331  70.252  1.00  0.00    -0.316 A  
HETATM   14  C   UNL     1     -12.460  10.315  71.368  1.00  0.00    -0.424 A  
HETATM   15  N   UNL     1     -12.992  11.560  71.613  1.00  0.00    -0.437 NA 
HETATM   16  C   UNL     1     -12.600   9.084  72.021  1.00  0.00    -0.394 A  
HETATM   17  N   UNL     1     -13.345   8.917  73.180  1.00  0.00    -0.896 NA 
HETATM   18  N   UNL     1     -11.996   8.000  71.493  1.00  0.00    -0.288 NA 
HETATM   19  C   UNL     1     -12.542  12.313  70.634  1.00  0.00    -0.156 A  
HETATM   20  H1  UNL     1     -13.447   8.020  73.655  1.00  0.00     0.000 HD 
HETATM   21  N   UNL     1     -11.681  11.628  69.809  1.00  0.00    -0.331 NA 
HETATM   22  H2  UNL     1     -14.283   9.269  72.992  1.00  0.00     0.000 HD 
BRANCH  21  23
HETATM   23  C1* UNL     1     -11.013  12.214  68.671  1.00  0.00    -0.245 C  
HETATM   24  O4* UNL     1     -10.246  13.343  69.127  1.00  0.00    -0.010 OA 
HETATM   25  C4* UNL     1     -10.898  14.557  68.700  1.00  0.00    -0.251 C  
HETATM   26  C3* UNL     1     -11.910  14.191  67.604  1.00  0.00    -0.392 C  
HETATM   27  H2* UNL     1     -11.878  12.448  65.551  1.00  0.00     0.000 HD 
HETATM   28  C2* UNL     1     -11.892  12.663  67.506  1.00  0.00    -0.334 C  
HETATM   29  O2* UNL     1     -11.332  12.169  66.276  1.00  0.00    -0.324 OA 
HETATM   30  O3* UNL     1     -11.570  14.787  66.345  1.00  0.00    -0.356 OA 
HETATM   31  H3* UNL     1     -12.196  14.561  65.668  1.00  0.00     0.000 HD 
BRANCH  25  32
HETATM   32  C5* UNL     1     -11.521  15.244  69.923  1.00  0.00    -0.304 C  
HETATM   33  O5* UNL     1     -12.905  15.509  69.683  1.00  0.00    -0.601 OA 
HETATM   34  H5* UNL     1     -13.291  15.935  70.440  1.00  0.00     0.000 HD 
ENDBRANCH  25  32
ENDBRANCH  21  23
ENDBRANCH   8  11
ENDBRANCH   3   6
TORSDOF 4
ENDMDL
MODEL       64
REMARK 921   NORMALIZED FREE ENERGY PREDICTED BY IDOCK:   -6.53 KCAL/MOL
REMARK 922        TOTAL FREE ENERGY PREDICTED BY IDOCK:   -8.56 KCAL/MOL
REMARK 923 INTER-LIGAND FREE ENERGY PREDICTED BY IDOCK:   -7.94 KCAL/MOL
REMARK 924 INTRA-LIGAND FREE ENERGY PREDICTED BY IDOCK:   -0.62 KCAL/MOL
REMARK 927      BINDING AFFINITY PREDICTED BY RF-SCORE:    0.00 PKD
ROOT
HETATM    1  C   UNL     1      -6.218  20.221  68.972  1.00  0.00    -0.331 C  
HETATM    2  N   UNL     1      -7.443  19.468  68.967  1.00  0.00    -0.367 N  
HETATM    3  C   UNL     1      -7.578  18.307  68.235  1.00  0.00    -0.278 C  
HETATM    4  H   UNL     1      -8.233  19.801  69.519  1.00  0.00     0.000 HD 
HETATM    5  O   UNL     1      -6.683  17.836  67.544  1.00  0.00    -0.167 OA 
ENDROOT
BRANCH   3   6
HETATM    6  C   UNL     1      -8.878  17.664  68.356  1.00  0.00    -0.281 A  
HETATM    7  C   UNL     1      -9.211  16.516  69.047  1.00  0.00    -0.237 A  
HETATM    8  N   UNL     1     -10.557  16.274  68.849  1.00  0.00    -0.263 NA 
HETATM    9  N   UNL     1     -11.121  17.236  68.064  1.00  0.00    -0.194 NA 
HETATM   10  C   UNL     1     -10.110  18.065  67.785  1.00  0.00    -0.353 A  
BRANCH   8  11
HETATM   11  C   UNL     1     -11.264  15.117  69.339  1.00  0.00    -0.283 A  
HETATM   12  N   UNL     1     -11.243  13.985  68.590  1.00  0.00    -0.253 NA 
HETATM   13  C   UNL     1     -11.734  12.931  69.267  1.00  0.00    -0.321 A  
HETATM   14  C   UNL     1     -12.266  12.930  70.544  1.00  0.00    -0.314 A  
HETATM   15  N   UNL     1     -12.631  11.661  70.930  1.00  0.00    -0.348 NA 
HETATM   16  C   UNL     1     -12.331  14.169  71.194  1.00  0.00    -0.372 A  
HETATM   17  N   UNL     1     -12.884  14.339  72.457  1.00  0.00    -0.366 NA 
HETATM   18  N   UNL     1     -11.820  15.252  70.574  1.00  0.00    -0.295 NA 
HETATM   19  C   UNL     1     -12.284  10.894  69.920  1.00  0.00    -0.336 A  
HETATM   20  H1  UNL     1     -12.930  15.241  72.930  1.00  0.00     0.000 HD 
HETATM   21  N   UNL     1     -11.779  11.621  68.869  1.00  0.00    -0.309 NA 
HETATM   22  H2  UNL     1     -12.410  13.691  73.085  1.00  0.00     0.000 HD 
BRANCH  21  23
HETATM   23  C1* UNL     1     -11.348  11.042  67.618  1.00  0.00    -0.281 C  
HETATM   24  O4* UNL     1     -10.353  10.042  67.900  1.00  0.00    -0.180 OA 
HETATM   25  C4* UNL     1      -9.059  10.542  67.505  1.00  0.00    -0.138 C  
HETATM   26  C3* UNL     1      -9.279  11.752  66.584  1.00  0.00    -0.198 C  
HETATM   27  H2* UNL     1     -11.062  12.309  64.643  1.00  0.00     0.000 HD 
HETATM   28  C2* UNL     1     -10.791  11.998  66.566  1.00  0.00    -0.277 C  
HETATM   29  O2* UNL     1     -11.408  11.714  65.297  1.00  0.00    -0.257 OA 
HETATM   30  O3* UNL     1      -8.786  11.509  65.260  1.00  0.00    -0.396 OA 
HETATM   31  H3* UNL     1      -8.923  12.257  64.691  1.00  0.00     0.000 HD 
BRANCH  25  32
HETATM   32  C5* UNL     1      -8.240  10.858  68.766  1.00  0.00    -0.151 C  
HETATM   33  O5* UNL     1      -8.959  10.446  69.931  1.00  0.00    -0.394 OA 
HETATM   34  H5* UNL     1      -8.452  10.641  70.711  1.00  0.00     0.000 HD 
ENDBRANCH  25  32
ENDBRANCH  21  23
ENDBRANCH   8  11
ENDBRANCH   3   6
TORSDOF 4
ENDMDL
MODEL       65
REMARK 921   NORMALIZED FREE ENERGY PREDICTED BY IDOCK:   -6.52 KCAL/MOL
REMARK 922        TOTAL FREE ENERGY PREDICTED BY IDOCK:   -8.56 KCAL/MOL
REMARK 923 INTER-LIGAND FREE ENERGY PREDICTED BY IDOCK:   -8.07 KCAL/MOL
REMARK 924 INTRA-LIGAND FREE ENERGY PREDICTED BY IDOCK:   -0.49 KCAL/MOL
REMARK 927      BINDING AFFINITY PREDICTED BY RF-SCORE:    0.00 PKD
ROOT
HETATM    1  C   UNL     1     -10.154   4.369  66.021  1.00  0.00    -0.239 C  
HETATM    2  N   UNL     1     -10.379   5.757  66.321  1.00  0.00    -0.430 N  
HETATM    3  C   UNL     1      -9.815   6.361  67.424  1.00  0.00    -0.131 C  
HETATM    4  H   UNL     1     -10.972   6.310  65.702  1.00  0.00     0.000 HD 
HETATM    5  O   UNL     1      -9.092   5.775  68.221  1.00  0.00    -0.118 OA 
ENDROOT
BRANCH   3   6
HETATM    6  C   UNL     1     -10.134   7.775  67.569  1.00  0.00    -0.272 A  
HETATM    7  C   UNL     1     -10.268   8.733  66.586  1.00  0.00    -0.270 A  
HETATM    8  N   UNL     1     -10.546   9.939  67.200  1.00  0.00    -0.244 NA 
HETATM    9  N   UNL     1     -10.614   9.799  68.554  1.00  0.00    -0.214 NA 
HETATM   10  C   UNL     1     -10.376   8.499  68.761  1.00  0.00    -0.213 A  
BRANCH   8  11
HETATM   11  C   UNL     1     -10.670  11.200  66.514  1.00  0.00    -0.260 A  
HETATM   12  N   UNL     1     -11.125  12.272  67.212  1.00  0.00    -0.259 NA 
HETATM   13  C   UNL     1     -10.968  13.418  66.526  1.00  0.00    -0.290 A  
HETATM   14  C   UNL     1     -10.472  13.564  65.242  1.00  0.00    -0.336 A  
HETATM   15  N   UNL     1     -10.417  14.889  64.878  1.00  0.00    -0.405 NA 
HETATM   16  C   UNL     1     -10.123  12.386  64.571  1.00  0.00    -0.250 A  
HETATM   17  N   UNL     1      -9.658  12.364  63.262  1.00  0.00    -0.534 NA 
HETATM   18  N   UNL     1     -10.226  11.213  65.227  1.00  0.00    -0.266 NA 
HETATM   19  C   UNL     1     -10.830  15.544  65.941  1.00  0.00    -0.313 A  
HETATM   20  H1  UNL     1      -9.404  11.506  62.773  1.00  0.00     0.000 HD 
HETATM   21  N   UNL     1     -11.221  14.696  66.950  1.00  0.00    -0.334 NA 
HETATM   22  H2  UNL     1      -8.855  12.990  63.214  1.00  0.00     0.000 HD 
BRANCH  21  23
HETATM   23  C1* UNL     1     -11.747  15.138  68.220  1.00  0.00    -0.314 C  
HETATM   24  O4* UNL     1     -11.334  16.500  68.434  1.00  0.00    -0.348 OA 
HETATM   25  C4* UNL     1     -10.310  16.526  69.449  1.00  0.00    -0.298 C  
HETATM   26  C3* UNL     1     -10.339  15.179  70.186  1.00  0.00    -0.121 C  
HETATM   27  H2* UNL     1     -12.323  13.541  70.987  1.00  0.00     0.000 HD 
HETATM   28  C2* UNL     1     -11.370  14.318  69.451  1.00  0.00    -0.282 C  
HETATM   29  O2* UNL     1     -12.557  14.052  70.221  1.00  0.00    -0.342 OA 
HETATM   30  O3* UNL     1     -10.697  15.335  71.566  1.00  0.00    -0.433 OA 
HETATM   31  H3* UNL     1     -10.714  14.502  72.022  1.00  0.00     0.000 HD 
BRANCH  25  32
HETATM   32  C5* UNL     1      -8.962  16.848  68.789  1.00  0.00    -0.256 C  
HETATM   33  O5* UNL     1      -8.740  18.261  68.793  1.00  0.00    -0.300 OA 
HETATM   34  H5* UNL     1      -7.905  18.460  68.385  1.00  0.00     0.000 HD 
ENDBRANCH  25  32
ENDBRANCH  21  23
ENDBRANCH   8  11
ENDBRANCH   3   6
TORSDOF 4
ENDMDL
MODEL       66
REMARK 921   NORMALIZED FREE ENERGY PREDICTED BY IDOCK:   -6.48 KCAL/MOL
REMARK 922        TOTAL FREE ENERGY PREDICTED BY IDOCK:   -8.51 KCAL/MOL
REMARK 923 INTER-LIGAND FREE ENERGY PREDICTED BY IDOCK:   -8.07 KCAL/MOL
REMARK 924 INTRA-LIGAND FREE ENERGY PREDICTED BY IDOCK:   -0.44 KCAL/MOL
REMARK 927      BINDING AFFINITY PREDICTED BY RF-SCORE:    0.00 PKD
ROOT
HETATM    1  C   UNL     1     -10.322   5.301  66.517  1.00  0.00    -0.285 C  
HETATM    2  N   UNL     1     -10.082   6.705  66.320  1.00  0.00    -0.424 N  
HETATM    3  C   UNL     1      -8.813   7.202  66.114  1.00  0.00    -0.150 C  
HETATM    4  H   UNL     1     -10.871   7.351  66.334  1.00  0.00     0.000 HD 
HETATM    5  O   UNL     1      -7.808   6.501  66.083  1.00  0.00    -0.099 OA 
ENDROOT
BRANCH   3   6
HETATM    6  C   UNL     1      -8.752   8.644  65.917  1.00  0.00    -0.201 A  
HETATM    7  C   UNL     1      -8.484   9.629  66.845  1.00  0.00    -0.120 A  
HETATM    8  N   UNL     1      -8.566  10.851  66.205  1.00  0.00    -0.159 NA 
HETATM    9  N   UNL     1      -8.863  10.697  64.884  1.00  0.00    -0.193 NA 
HETATM   10  C   UNL     1      -8.962   9.374  64.723  1.00  0.00    -0.194 A  
BRANCH   8  11
HETATM   11  C   UNL     1      -8.433  12.130  66.857  1.00  0.00    -0.173 A  
HETATM   12  N   UNL     1      -9.309  13.114  66.530  1.00  0.00    -0.243 NA 
HETATM   13  C   UNL     1      -9.221  14.159  67.372  1.00  0.00    -0.204 A  
HETATM   14  C   UNL     1      -8.337  14.315  68.425  1.00  0.00    -0.164 A  
HETATM   15  N   UNL     1      -8.566  15.494  69.096  1.00  0.00    -0.230 NA 
HETATM   16  C   UNL     1      -7.409  13.285  68.617  1.00  0.00    -0.101 A  
HETATM   17  N   UNL     1      -6.426  13.318  69.598  1.00  0.00    -0.256 NA 
HETATM   18  N   UNL     1      -7.476  12.197  67.823  1.00  0.00    -0.111 NA 
HETATM   19  C   UNL     1      -9.603  16.027  68.489  1.00  0.00    -0.215 A  
HETATM   20  H1  UNL     1      -5.750  12.568  69.738  1.00  0.00     0.000 HD 
HETATM   21  N   UNL     1     -10.009  15.280  67.408  1.00  0.00    -0.222 NA 
HETATM   22  H2  UNL     1      -6.893  13.476  70.491  1.00  0.00     0.000 HD 
BRANCH  21  23
HETATM   23  C1* UNL     1     -11.103  15.643  66.539  1.00  0.00    -0.135 C  
HETATM   24  O4* UNL     1     -12.243  14.835  66.883  1.00  0.00    -0.230 OA 
HETATM   25  C4* UNL     1     -12.448  13.849  65.851  1.00  0.00    -0.481 C  
HETATM   26  C3* UNL     1     -11.647  14.283  64.614  1.00  0.00    -0.408 C  
HETATM   27  H2* UNL     1     -11.161  16.668  63.459  1.00  0.00     0.000 HD 
HETATM   28  C2* UNL     1     -10.863  15.530  65.036  1.00  0.00    -0.450 C  
HETATM   29  O2* UNL     1     -11.310  16.739  64.395  1.00  0.00    -1.089 OA 
HETATM   30  O3* UNL     1     -12.504  14.572  63.500  1.00  0.00    -1.089 OA 
HETATM   31  H3* UNL     1     -12.008  14.841  62.736  1.00  0.00     0.000 HD 
BRANCH  25  32
HETATM   32  C5* UNL     1     -12.054  12.468  66.396  1.00  0.00    -0.207 C  
HETATM   33  O5* UNL     1     -11.483  11.674  65.353  1.00  0.00    -0.231 OA 
HETATM   34  H5* UNL     1     -11.240  10.820  65.691  1.00  0.00     0.000 HD 
ENDBRANCH  25  32
ENDBRANCH  21  23
ENDBRANCH   8  11
ENDBRANCH   3   6
TORSDOF 4
ENDMDL
MODEL       67
REMARK 921   NORMALIZED FREE ENERGY PREDICTED BY IDOCK:   -6.42 KCAL/MOL
REMARK 922        TOTAL FREE ENERGY PREDICTED BY IDOCK:   -8.43 KCAL/MOL
REMARK 923 INTER-LIGAND FREE ENERGY PREDICTED BY IDOCK:   -7.67 KCAL/MOL
REMARK 924 INTRA-LIGAND FREE ENERGY PREDICTED BY IDOCK:   -0.76 KCAL/MOL
REMARK 927      BINDING AFFINITY PREDICTED BY RF-SCORE:    0.00 PKD
ROOT
HETATM    1  C   UNL     1      -9.530   5.499  71.867  1.00  0.00    -0.148 C  
HETATM    2  N   UNL     1      -9.384   6.265  70.659  1.00  0.00    -0.161 N  
HETATM    3  C   UNL     1     -10.324   7.197  70.274  1.00  0.00    -0.201 C  
HETATM    4  H   UNL     1      -8.565   6.114  70.071  1.00  0.00     0.000 HD 
HETATM    5  O   UNL     1     -11.337   7.442  70.917  1.00  0.00    -0.264 OA 
ENDROOT
BRANCH   3   6
HETATM    6  C   UNL     1     -10.012   7.893  69.033  1.00  0.00    -0.188 A  
HETATM    7  C   UNL     1     -10.657   8.972  68.464  1.00  0.00    -0.155 A  
HETATM    8  N   UNL     1     -10.025   9.267  67.272  1.00  0.00    -0.192 NA 
HETATM    9  N   UNL     1      -8.975   8.427  67.049  1.00  0.00    -0.138 NA 
HETATM   10  C   UNL     1      -8.972   7.617  68.113  1.00  0.00    -0.126 A  
BRANCH   8  11
HETATM   11  C   UNL     1     -10.458  10.280  66.342  1.00  0.00    -0.163 A  
HETATM   12  N   UNL     1     -10.923  11.455  66.838  1.00  0.00    -0.288 NA 
HETATM   13  C   UNL     1     -11.067  12.381  65.874  1.00  0.00    -0.313 A  
HETATM   14  C   UNL     1     -10.848  12.219  64.517  1.00  0.00    -0.315 A  
HETATM   15  N   UNL     1     -11.055  13.396  63.836  1.00  0.00    -0.250 NA 
HETATM   16  C   UNL     1     -10.465  10.940  64.096  1.00  0.00    -0.327 A  
HETATM   17  N   UNL     1     -10.257  10.607  62.764  1.00  0.00    -0.749 NA 
HETATM   18  N   UNL     1     -10.271   9.984  65.027  1.00  0.00    -0.182 NA 
HETATM   19  C   UNL     1     -11.351  14.273  64.769  1.00  0.00    -0.382 A  
HETATM   20  H1  UNL     1      -9.978   9.675  62.457  1.00  0.00     0.000 HD 
HETATM   21  N   UNL     1     -11.417  13.698  66.016  1.00  0.00    -0.317 NA 
HETATM   22  H2  UNL     1      -9.577  11.267  62.388  1.00  0.00     0.000 HD 
BRANCH  21  23
HETATM   23  C1* UNL     1     -11.753  14.418  67.222  1.00  0.00    -0.404 C  
HETATM   24  O4* UNL     1     -11.256  15.763  67.102  1.00  0.00    -0.246 OA 
HETATM   25  C4* UNL     1     -10.108  15.918  67.961  1.00  0.00    -0.230 C  
HETATM   26  C3* UNL     1     -10.100  14.749  68.956  1.00  0.00    -0.232 C  
HETATM   27  H2* UNL     1     -12.031  13.443  70.306  1.00  0.00     0.000 HD 
HETATM   28  C2* UNL     1     -11.255  13.833  68.541  1.00  0.00    -0.275 C  
HETATM   29  O2* UNL     1     -12.341  13.807  69.485  1.00  0.00    -0.316 OA 
HETATM   30  O3* UNL     1     -10.267  15.199  70.308  1.00  0.00    -0.493 OA 
HETATM   31  H3* UNL     1     -10.261  14.476  70.923  1.00  0.00     0.000 HD 
BRANCH  25  32
HETATM   32  C5* UNL     1      -8.845  16.009  67.093  1.00  0.00    -0.204 C  
HETATM   33  O5* UNL     1      -8.483  14.711  66.616  1.00  0.00    -0.409 OA 
HETATM   34  H5* UNL     1      -7.702  14.767  66.079  1.00  0.00     0.000 HD 
ENDBRANCH  25  32
ENDBRANCH  21  23
ENDBRANCH   8  11
ENDBRANCH   3   6
TORSDOF 4
ENDMDL
MODEL       68
REMARK 921   NORMALIZED FREE ENERGY PREDICTED BY IDOCK:   -6.41 KCAL/MOL
REMARK 922        TOTAL FREE ENERGY PREDICTED BY IDOCK:   -8.42 KCAL/MOL
REMARK 923 INTER-LIGAND FREE ENERGY PREDICTED BY IDOCK:   -7.57 KCAL/MOL
REMARK 924 INTRA-LIGAND FREE ENERGY PREDICTED BY IDOCK:   -0.85 KCAL/MOL
REMARK 927      BINDING AFFINITY PREDICTED BY RF-SCORE:    0.00 PKD
ROOT
HETATM    1  C   UNL     1      -9.099   3.855  62.744  1.00  0.00    -0.107 C  
HETATM    2  N   UNL     1      -8.951   5.122  63.409  1.00  0.00    -0.341 N  
HETATM    3  C   UNL     1      -8.339   5.229  64.640  1.00  0.00    -0.141 C  
HETATM    4  H   UNL     1      -9.309   5.964  62.958  1.00  0.00     0.000 HD 
HETATM    5  O   UNL     1      -7.883   4.271  65.254  1.00  0.00    -0.085 OA 
ENDROOT
BRANCH   3   6
HETATM    6  C   UNL     1      -8.261   6.586  65.160  1.00  0.00    -0.126 A  
HETATM    7  C   UNL     1      -9.186   7.273  65.920  1.00  0.00     0.047 A  
HETATM    8  N   UNL     1      -8.690   8.541  66.152  1.00  0.00    -0.142 NA 
HETATM    9  N   UNL     1      -7.463   8.704  65.582  1.00  0.00    -0.084 NA 
HETATM   10  C   UNL     1      -7.214   7.525  65.002  1.00  0.00    -0.066 A  
BRANCH   8  11
HETATM   11  C   UNL     1      -9.405   9.589  66.839  1.00  0.00    -0.146 A  
HETATM   12  N   UNL     1      -9.759  10.694  66.136  1.00  0.00    -0.197 NA 
HETATM   13  C   UNL     1     -10.612  11.472  66.826  1.00  0.00    -0.250 A  
HETATM   14  C   UNL     1     -11.072  11.272  68.116  1.00  0.00    -0.259 A  
HETATM   15  N   UNL     1     -11.968  12.248  68.482  1.00  0.00    -0.290 NA 
HETATM   16  C   UNL     1     -10.569  10.152  68.790  1.00  0.00    -0.213 A  
HETATM   17  N   UNL     1     -10.895   9.844  70.104  1.00  0.00    -0.281 NA 
HETATM   18  N   UNL     1      -9.738   9.319  68.131  1.00  0.00    -0.147 NA 
HETATM   19  C   UNL     1     -12.087  13.008  67.416  1.00  0.00    -0.233 A  
HETATM   20  H1  UNL     1     -10.529   9.028  70.595  1.00  0.00     0.000 HD 
HETATM   21  N   UNL     1     -11.251  12.607  66.400  1.00  0.00    -0.291 NA 
HETATM   22  H2  UNL     1     -11.912   9.802  70.163  1.00  0.00     0.000 HD 
BRANCH  21  23
HETATM   23  C1* UNL     1     -11.149  13.276  65.125  1.00  0.00    -0.297 C  
HETATM   24  O4* UNL     1      -9.900  13.988  65.083  1.00  0.00    -0.262 OA 
HETATM   25  C4* UNL     1     -10.161  15.402  65.207  1.00  0.00    -0.357 C  
HETATM   26  C3* UNL     1     -11.654  15.634  64.931  1.00  0.00    -0.156 C  
HETATM   27  H2* UNL     1     -13.409  14.570  63.185  1.00  0.00     0.000 HD 
HETATM   28  C2* UNL     1     -12.272  14.243  64.757  1.00  0.00    -0.443 C  
HETATM   29  O2* UNL     1     -12.710  13.968  63.414  1.00  0.00    -0.796 OA 
HETATM   30  O3* UNL     1     -11.860  16.433  63.758  1.00  0.00    -1.455 OA 
HETATM   31  H3* UNL     1     -12.783  16.577  63.588  1.00  0.00     0.000 HD 
BRANCH  25  32
HETATM   32  C5* UNL     1      -9.701  15.875  66.593  1.00  0.00    -0.253 C  
HETATM   33  O5* UNL     1      -8.491  15.207  66.962  1.00  0.00    -0.199 OA 
HETATM   34  H5* UNL     1      -8.207  15.499  67.819  1.00  0.00     0.000 HD 
ENDBRANCH  25  32
ENDBRANCH  21  23
ENDBRANCH   8  11
ENDBRANCH   3   6
TORSDOF 4
ENDMDL
MODEL       69
REMARK 921   NORMALIZED FREE ENERGY PREDICTED BY IDOCK:   -6.41 KCAL/MOL
REMARK 922        TOTAL FREE ENERGY PREDICTED BY IDOCK:   -8.42 KCAL/MOL
REMARK 923 INTER-LIGAND FREE ENERGY PREDICTED BY IDOCK:   -7.67 KCAL/MOL
REMARK 924 INTRA-LIGAND FREE ENERGY PREDICTED BY IDOCK:   -0.75 KCAL/MOL
REMARK 927      BINDING AFFINITY PREDICTED BY RF-SCORE:    0.00 PKD
ROOT
HETATM    1  C   UNL     1     -14.373   8.213  71.648  1.00  0.00    -0.469 C  
HETATM    2  N   UNL     1     -13.828   9.418  71.085  1.00  0.00    -0.470 N  
HETATM    3  C   UNL     1     -12.514   9.783  71.285  1.00  0.00    -0.367 C  
HETATM    4  H   UNL     1     -14.429  10.020  70.522  1.00  0.00     0.000 HD 
HETATM    5  O   UNL     1     -11.722   9.123  71.947  1.00  0.00    -0.357 OA 
ENDROOT
BRANCH   3   6
HETATM    6  C   UNL     1     -12.124  11.024  70.630  1.00  0.00    -0.471 A  
HETATM    7  C   UNL     1     -11.057  11.254  69.786  1.00  0.00    -0.167 A  
HETATM    8  N   UNL     1     -11.071  12.590  69.436  1.00  0.00    -0.141 NA 
HETATM    9  N   UNL     1     -12.122  13.240  70.010  1.00  0.00    -0.328 NA 
HETATM   10  C   UNL     1     -12.749  12.291  70.713  1.00  0.00    -0.126 A  
BRANCH   8  11
HETATM   11  C   UNL     1     -10.065  13.239  68.633  1.00  0.00    -0.146 A  
HETATM   12  N   UNL     1      -9.976  14.593  68.680  1.00  0.00    -0.230 NA 
HETATM   13  C   UNL     1      -8.861  15.041  68.077  1.00  0.00    -0.165 A  
HETATM   14  C   UNL     1      -7.906  14.289  67.417  1.00  0.00    -0.187 A  
HETATM   15  N   UNL     1      -6.878  15.081  66.960  1.00  0.00    -0.128 NA 
HETATM   16  C   UNL     1      -8.141  12.911  67.340  1.00  0.00    -0.181 A  
HETATM   17  N   UNL     1      -7.302  12.031  66.669  1.00  0.00    -0.378 NA 
HETATM   18  N   UNL     1      -9.226  12.405  67.959  1.00  0.00    -0.198 NA 
HETATM   19  C   UNL     1      -7.180  16.291  67.374  1.00  0.00    -0.169 A  
HETATM   20  H1  UNL     1      -7.473  11.027  66.613  1.00  0.00     0.000 HD 
HETATM   21  N   UNL     1      -8.396  16.329  68.016  1.00  0.00    -0.163 NA 
HETATM   22  H2  UNL     1      -6.363  12.158  67.047  1.00  0.00     0.000 HD 
BRANCH  21  23
HETATM   23  C1* UNL     1      -8.992  17.531  68.547  1.00  0.00    -0.279 C  
HETATM   24  O4* UNL     1     -10.388  17.539  68.199  1.00  0.00    -0.336 OA 
HETATM   25  C4* UNL     1     -10.609  18.520  67.165  1.00  0.00    -0.398 C  
HETATM   26  C3* UNL     1      -9.383  19.444  67.119  1.00  0.00    -0.320 C  
HETATM   27  H2* UNL     1      -7.788  20.510  69.010  1.00  0.00     0.000 HD 
HETATM   28  C2* UNL     1      -8.377  18.861  68.116  1.00  0.00    -0.309 C  
HETATM   29  O2* UNL     1      -8.170  19.683  69.279  1.00  0.00    -0.221 OA 
HETATM   30  O3* UNL     1      -9.721  20.794  67.467  1.00  0.00    -0.439 OA 
HETATM   31  H3* UNL     1      -8.963  21.365  67.439  1.00  0.00     0.000 HD 
BRANCH  25  32
HETATM   32  C5* UNL     1     -10.894  17.794  65.842  1.00  0.00     0.031 C  
HETATM   33  O5* UNL     1      -9.800  16.937  65.507  1.00  0.00    -0.559 OA 
HETATM   34  H5* UNL     1      -9.977  16.488  64.689  1.00  0.00     0.000 HD 
ENDBRANCH  25  32
ENDBRANCH  21  23
ENDBRANCH   8  11
ENDBRANCH   3   6
TORSDOF 4
ENDMDL
MODEL       70
REMARK 921   NORMALIZED FREE ENERGY PREDICTED BY IDOCK:   -6.37 KCAL/MOL
REMARK 922        TOTAL FREE ENERGY PREDICTED BY IDOCK:   -8.37 KCAL/MOL
REMARK 923 INTER-LIGAND FREE ENERGY PREDICTED BY IDOCK:   -7.72 KCAL/MOL
REMARK 924 INTRA-LIGAND FREE ENERGY PREDICTED BY IDOCK:   -0.65 KCAL/MOL
REMARK 927      BINDING AFFINITY PREDICTED BY RF-SCORE:    0.00 PKD
ROOT
HETATM    1  C   UNL     1     -12.276   6.622  71.825  1.00  0.00    -0.353 C  
HETATM    2  N   UNL     1     -11.942   7.318  70.611  1.00  0.00    -0.501 N  
HETATM    3  C   UNL     1     -10.990   8.315  70.585  1.00  0.00    -0.240 C  
HETATM    4  H   UNL     1     -12.423   7.068  69.747  1.00  0.00     0.000 HD 
HETATM    5  O   UNL     1     -10.366   8.680  71.574  1.00  0.00    -0.222 OA 
ENDROOT
BRANCH   3   6
HETATM    6  C   UNL     1     -10.766   8.903  69.272  1.00  0.00    -0.177 A  
HETATM    7  C   UNL     1     -11.107  10.161  68.822  1.00  0.00    -0.203 A  
HETATM    8  N   UNL     1     -10.721  10.260  67.499  1.00  0.00    -0.276 NA 
HETATM    9  N   UNL     1     -10.123   9.113  67.072  1.00  0.00    -0.227 NA 
HETATM   10  C   UNL     1     -10.147   8.314  68.144  1.00  0.00    -0.200 A  
BRANCH   8  11
HETATM   11  C   UNL     1     -10.983  11.396  66.650  1.00  0.00    -0.285 A  
HETATM   12  N   UNL     1     -11.203  12.601  67.236  1.00  0.00    -0.282 NA 
HETATM   13  C   UNL     1     -11.197  13.601  66.336  1.00  0.00    -0.308 A  
HETATM   14  C   UNL     1     -11.053  13.493  64.964  1.00  0.00    -0.328 A  
HETATM   15  N   UNL     1     -11.053  14.730  64.364  1.00  0.00    -0.210 NA 
HETATM   16  C   UNL     1     -10.930  12.195  64.450  1.00  0.00    -0.326 A  
HETATM   17  N   UNL     1     -10.828  11.920  63.093  1.00  0.00    -0.687 NA 
HETATM   18  N   UNL     1     -10.893  11.159  65.313  1.00  0.00    -0.203 NA 
HETATM   19  C   UNL     1     -11.151  15.583  65.360  1.00  0.00    -0.298 A  
HETATM   20  H1  UNL     1     -10.739  10.975  62.720  1.00  0.00     0.000 HD 
HETATM   21  N   UNL     1     -11.289  14.948  66.572  1.00  0.00    -0.342 NA 
HETATM   22  H2  UNL     1     -10.047  12.465  62.730  1.00  0.00     0.000 HD 
BRANCH  21  23
HETATM   23  C1* UNL     1     -11.447  15.635  67.832  1.00  0.00    -0.251 C  
HETATM   24  O4* UNL     1     -10.308  16.491  68.029  1.00  0.00    -0.271 OA 
HETATM   25  C4* UNL     1      -9.463  15.922  69.050  1.00  0.00    -0.247 C  
HETATM   26  C3* UNL     1     -10.281  14.865  69.807  1.00  0.00    -0.042 C  
HETATM   27  H2* UNL     1     -12.846  14.729  70.618  1.00  0.00     0.000 HD 
HETATM   28  C2* UNL     1     -11.624  14.769  69.077  1.00  0.00    -0.297 C  
HETATM   29  O2* UNL     1     -12.736  15.268  69.843  1.00  0.00    -0.224 OA 
HETATM   30  O3* UNL     1     -10.472  15.223  71.182  1.00  0.00    -0.396 OA 
HETATM   31  H3* UNL     1     -10.977  14.569  71.649  1.00  0.00     0.000 HD 
BRANCH  25  32
HETATM   32  C5* UNL     1      -8.188  15.375  68.394  1.00  0.00    -0.142 C  
HETATM   33  O5* UNL     1      -8.068  15.879  67.061  1.00  0.00    -0.185 OA 
HETATM   34  H5* UNL     1      -7.278  15.540  66.655  1.00  0.00     0.000 HD 
ENDBRANCH  25  32
ENDBRANCH  21  23
ENDBRANCH   8  11
ENDBRANCH   3   6
TORSDOF 4
ENDMDL
MODEL       71
REMARK 921   NORMALIZED FREE ENERGY PREDICTED BY IDOCK:   -6.36 KCAL/MOL
REMARK 922        TOTAL FREE ENERGY PREDICTED BY IDOCK:   -8.36 KCAL/MOL
REMARK 923 INTER-LIGAND FREE ENERGY PREDICTED BY IDOCK:   -7.77 KCAL/MOL
REMARK 924 INTRA-LIGAND FREE ENERGY PREDICTED BY IDOCK:   -0.59 KCAL/MOL
REMARK 927      BINDING AFFINITY PREDICTED BY RF-SCORE:    0.00 PKD
ROOT
HETATM    1  C   UNL     1      -6.770  19.006  68.420  1.00  0.00    -0.252 C  
HETATM    2  N   UNL     1      -8.002  18.295  68.629  1.00  0.00    -0.305 N  
HETATM    3  C   UNL     1      -8.176  17.001  68.187  1.00  0.00    -0.217 C  
HETATM    4  H   UNL     1      -8.767  18.759  69.118  1.00  0.00     0.000 HD 
HETATM    5  O   UNL     1      -7.313  16.367  67.591  1.00  0.00    -0.123 OA 
ENDROOT
BRANCH   3   6
HETATM    6  C   UNL     1      -9.478  16.426  68.496  1.00  0.00    -0.227 A  
HETATM    7  C   UNL     1      -9.772  15.335  69.287  1.00  0.00    -0.254 A  
HETATM    8  N   UNL     1     -11.140  15.146  69.262  1.00  0.00    -0.258 NA 
HETATM    9  N   UNL     1     -11.755  16.088  68.492  1.00  0.00    -0.333 NA 
HETATM   10  C   UNL     1     -10.752  16.853  68.049  1.00  0.00    -0.364 A  
BRANCH   8  11
HETATM   11  C   UNL     1     -11.830  14.051  69.898  1.00  0.00    -0.329 A  
HETATM   12  N   UNL     1     -11.514  12.785  69.524  1.00  0.00    -0.254 NA 
HETATM   13  C   UNL     1     -12.051  11.872  70.352  1.00  0.00    -0.333 A  
HETATM   14  C   UNL     1     -12.881  12.107  71.434  1.00  0.00    -0.276 A  
HETATM   15  N   UNL     1     -13.204  10.935  72.078  1.00  0.00    -0.458 NA 
HETATM   16  C   UNL     1     -13.226  13.442  71.676  1.00  0.00    -0.364 A  
HETATM   17  N   UNL     1     -14.089  13.834  72.691  1.00  0.00    -0.711 NA 
HETATM   18  N   UNL     1     -12.686  14.401  70.897  1.00  0.00    -0.338 NA 
HETATM   19  C   UNL     1     -12.544  10.004  71.425  1.00  0.00    -0.415 A  
HETATM   20  H1  UNL     1     -14.340  14.806  72.868  1.00  0.00     0.000 HD 
HETATM   21  N   UNL     1     -11.867  10.514  70.342  1.00  0.00    -0.311 NA 
HETATM   22  H2  UNL     1     -13.725  13.452  73.564  1.00  0.00     0.000 HD 
BRANCH  21  23
HETATM   23  C1* UNL     1     -11.084   9.715  69.428  1.00  0.00    -0.139 C  
HETATM   24  O4* UNL     1     -10.741   8.481  70.083  1.00  0.00    -0.230 OA 
HETATM   25  C4* UNL     1      -9.341   8.506  70.428  1.00  0.00    -0.164 C  
HETATM   26  C3* UNL     1      -8.675   9.633  69.624  1.00  0.00    -0.197 C  
HETATM   27  H2* UNL     1      -8.972  10.547  67.108  1.00  0.00     0.000 HD 
HETATM   28  C2* UNL     1      -9.807  10.344  68.877  1.00  0.00    -0.200 C  
HETATM   29  O2* UNL     1      -9.767  10.156  67.451  1.00  0.00    -0.154 OA 
HETATM   30  O3* UNL     1      -7.697   9.125  68.705  1.00  0.00    -0.085 OA 
HETATM   31  H3* UNL     1      -7.286   9.822  68.209  1.00  0.00     0.000 HD 
BRANCH  25  32
HETATM   32  C5* UNL     1      -9.205   8.659  71.950  1.00  0.00    -0.275 C  
HETATM   33  O5* UNL     1     -10.043   7.710  72.614  1.00  0.00    -0.201 OA 
HETATM   34  H5* UNL     1      -9.959   7.804  73.555  1.00  0.00     0.000 HD 
ENDBRANCH  25  32
ENDBRANCH  21  23
ENDBRANCH   8  11
ENDBRANCH   3   6
TORSDOF 4
ENDMDL
MODEL       72
REMARK 921   NORMALIZED FREE ENERGY PREDICTED BY IDOCK:   -6.35 KCAL/MOL
REMARK 922        TOTAL FREE ENERGY PREDICTED BY IDOCK:   -8.35 KCAL/MOL
REMARK 923 INTER-LIGAND FREE ENERGY PREDICTED BY IDOCK:   -7.60 KCAL/MOL
REMARK 924 INTRA-LIGAND FREE ENERGY PREDICTED BY IDOCK:   -0.75 KCAL/MOL
REMARK 927      BINDING AFFINITY PREDICTED BY RF-SCORE:    0.00 PKD
ROOT
HETATM    1  C   UNL     1     -11.121   3.759  73.969  1.00  0.00    -0.078 C  
HETATM    2  N   UNL     1     -11.155   4.824  73.004  1.00  0.00    -0.273 N  
HETATM    3  C   UNL     1     -10.516   4.721  71.786  1.00  0.00    -0.112 C  
HETATM    4  H   UNL     1     -11.664   5.679  73.225  1.00  0.00     0.000 HD 
HETATM    5  O   UNL     1      -9.880   3.733  71.438  1.00  0.00    -0.175 OA 
ENDROOT
BRANCH   3   6
HETATM    6  C   UNL     1     -10.665   5.884  70.924  1.00  0.00    -0.338 A  
HETATM    7  C   UNL     1     -10.360   6.009  69.584  1.00  0.00    -0.232 A  
HETATM    8  N   UNL     1     -10.641   7.306  69.201  1.00  0.00    -0.215 NA 
HETATM    9  N   UNL     1     -11.136   8.032  70.243  1.00  0.00    -0.250 NA 
HETATM   10  C   UNL     1     -11.155   7.168  71.263  1.00  0.00    -0.249 A  
BRANCH   8  11
HETATM   11  C   UNL     1     -10.376   7.851  67.893  1.00  0.00    -0.221 A  
HETATM   12  N   UNL     1     -10.687   9.152  67.663  1.00  0.00    -0.242 NA 
HETATM   13  C   UNL     1     -10.176   9.589  66.497  1.00  0.00    -0.237 A  
HETATM   14  C   UNL     1      -9.465   8.852  65.567  1.00  0.00    -0.092 A  
HETATM   15  N   UNL     1      -9.062   9.638  64.513  1.00  0.00    -0.243 NA 
HETATM   16  C   UNL     1      -9.282   7.494  65.855  1.00  0.00     0.021 A  
HETATM   17  N   UNL     1      -8.633   6.614  64.998  1.00  0.00    -0.346 NA 
HETATM   18  N   UNL     1      -9.742   7.013  67.027  1.00  0.00    -0.157 NA 
HETATM   19  C   UNL     1      -9.484  10.846  64.818  1.00  0.00    -0.238 A  
HETATM   20  H1  UNL     1      -8.500   5.625  65.208  1.00  0.00     0.000 HD 
HETATM   21  N   UNL     1     -10.205  10.860  65.988  1.00  0.00    -0.247 NA 
HETATM   22  H2  UNL     1      -7.714   7.008  64.796  1.00  0.00     0.000 HD 
BRANCH  21  23
HETATM   23  C1* UNL     1     -10.815  12.044  66.548  1.00  0.00    -0.277 C  
HETATM   24  O4* UNL     1     -12.176  12.115  66.088  1.00  0.00    -0.611 OA 
HETATM   25  C4* UNL     1     -12.286  13.166  65.107  1.00  0.00    -0.473 C  
HETATM   26  C3* UNL     1     -11.039  14.055  65.222  1.00  0.00    -0.325 C  
HETATM   27  H2* UNL     1      -9.580  14.950  67.302  1.00  0.00     0.000 HD 
HETATM   28  C2* UNL     1     -10.134  13.379  66.256  1.00  0.00    -0.299 C  
HETATM   29  O2* UNL     1     -10.004  14.120  67.483  1.00  0.00    -0.232 OA 
HETATM   30  O3* UNL     1     -11.371  15.389  65.629  1.00  0.00    -0.263 OA 
HETATM   31  H3* UNL     1     -10.599  15.938  65.700  1.00  0.00     0.000 HD 
BRANCH  25  32
HETATM   32  C5* UNL     1     -12.479  12.535  63.720  1.00  0.00    -0.455 C  
HETATM   33  O5* UNL     1     -12.270  13.517  62.702  1.00  0.00    -0.741 OA 
HETATM   34  H5* UNL     1     -12.389  13.127  61.844  1.00  0.00     0.000 HD 
ENDBRANCH  25  32
ENDBRANCH  21  23
ENDBRANCH   8  11
ENDBRANCH   3   6
TORSDOF 4
ENDMDL
MODEL       73
REMARK 921   NORMALIZED FREE ENERGY PREDICTED BY IDOCK:   -6.35 KCAL/MOL
REMARK 922        TOTAL FREE ENERGY PREDICTED BY IDOCK:   -8.35 KCAL/MOL
REMARK 923 INTER-LIGAND FREE ENERGY PREDICTED BY IDOCK:   -7.54 KCAL/MOL
REMARK 924 INTRA-LIGAND FREE ENERGY PREDICTED BY IDOCK:   -0.81 KCAL/MOL
REMARK 927      BINDING AFFINITY PREDICTED BY RF-SCORE:    0.00 PKD
ROOT
HETATM    1  C   UNL     1      -7.670   6.515  63.816  1.00  0.00    -0.108 C  
HETATM    2  N   UNL     1      -8.451   7.609  64.325  1.00  0.00    -0.370 N  
HETATM    3  C   UNL     1      -7.892   8.844  64.577  1.00  0.00    -0.126 C  
HETATM    4  H   UNL     1      -9.445   7.469  64.505  1.00  0.00     0.000 HD 
HETATM    5  O   UNL     1      -6.709   9.101  64.392  1.00  0.00    -0.082 OA 
ENDROOT
BRANCH   3   6
HETATM    6  C   UNL     1      -8.829   9.842  65.074  1.00  0.00    -0.224 A  
HETATM    7  C   UNL     1      -8.931  10.371  66.345  1.00  0.00    -0.149 A  
HETATM    8  N   UNL     1      -9.986  11.261  66.353  1.00  0.00    -0.208 NA 
HETATM    9  N   UNL     1     -10.571  11.346  65.124  1.00  0.00    -0.293 NA 
HETATM   10  C   UNL     1      -9.863  10.501  64.367  1.00  0.00    -0.341 A  
BRANCH   8  11
HETATM   11  C   UNL     1     -10.465  11.956  67.522  1.00  0.00    -0.209 A  
HETATM   12  N   UNL     1     -10.202  13.283  67.636  1.00  0.00    -0.225 NA 
HETATM   13  C   UNL     1     -10.899  13.845  68.639  1.00  0.00    -0.262 A  
HETATM   14  C   UNL     1     -11.750  13.211  69.526  1.00  0.00    -0.319 A  
HETATM   15  N   UNL     1     -12.324  14.110  70.395  1.00  0.00    -0.339 NA 
HETATM   16  C   UNL     1     -11.878  11.824  69.384  1.00  0.00    -0.334 A  
HETATM   17  N   UNL     1     -12.654  11.039  70.227  1.00  0.00    -0.276 NA 
HETATM   18  N   UNL     1     -11.228  11.215  68.371  1.00  0.00    -0.238 NA 
HETATM   19  C   UNL     1     -11.863  15.281  70.014  1.00  0.00    -0.334 A  
HETATM   20  H1  UNL     1     -12.747  10.029  70.124  1.00  0.00     0.000 HD 
HETATM   21  N   UNL     1     -10.959  15.170  68.984  1.00  0.00    -0.232 NA 
HETATM   22  H2  UNL     1     -13.595  11.432  70.226  1.00  0.00     0.000 HD 
BRANCH  21  23
HETATM   23  C1* UNL     1     -10.272  16.291  68.388  1.00  0.00    -0.249 C  
HETATM   24  O4* UNL     1     -11.017  16.720  67.234  1.00  0.00    -0.195 OA 
HETATM   25  C4* UNL     1     -10.305  16.329  66.043  1.00  0.00    -0.349 C  
HETATM   26  C3* UNL     1      -8.865  15.977  66.445  1.00  0.00    -0.328 C  
HETATM   27  H2* UNL     1      -7.116  17.031  68.203  1.00  0.00     0.000 HD 
HETATM   28  C2* UNL     1      -8.819  16.073  67.973  1.00  0.00    -0.175 C  
HETATM   29  O2* UNL     1      -8.020  17.166  68.461  1.00  0.00    -0.238 OA 
HETATM   30  O3* UNL     1      -7.913  16.869  65.849  1.00  0.00    -0.427 OA 
HETATM   31  H3* UNL     1      -7.023  16.651  66.098  1.00  0.00     0.000 HD 
BRANCH  25  32
HETATM   32  C5* UNL     1     -11.063  15.179  65.364  1.00  0.00    -0.367 C  
HETATM   33  O5* UNL     1     -10.137  14.214  64.857  1.00  0.00    -0.541 OA 
HETATM   34  H5* UNL     1     -10.606  13.503  64.437  1.00  0.00     0.000 HD 
ENDBRANCH  25  32
ENDBRANCH  21  23
ENDBRANCH   8  11
ENDBRANCH   3   6
TORSDOF 4
ENDMDL
MODEL       74
REMARK 921   NORMALIZED FREE ENERGY PREDICTED BY IDOCK:   -6.35 KCAL/MOL
REMARK 922        TOTAL FREE ENERGY PREDICTED BY IDOCK:   -8.34 KCAL/MOL
REMARK 923 INTER-LIGAND FREE ENERGY PREDICTED BY IDOCK:   -7.69 KCAL/MOL
REMARK 924 INTRA-LIGAND FREE ENERGY PREDICTED BY IDOCK:   -0.66 KCAL/MOL
REMARK 927      BINDING AFFINITY PREDICTED BY RF-SCORE:    0.00 PKD
ROOT
HETATM    1  C   UNL     1      -6.562  20.396  64.828  1.00  0.00    -0.270 C  
HETATM    2  N   UNL     1      -7.025  19.435  65.792  1.00  0.00    -0.273 N  
HETATM    3  C   UNL     1      -8.367  19.257  66.053  1.00  0.00    -0.182 C  
HETATM    4  H   UNL     1      -6.343  18.869  66.297  1.00  0.00     0.000 HD 
HETATM    5  O   UNL     1      -9.254  19.893  65.496  1.00  0.00    -0.231 OA 
ENDROOT
BRANCH   3   6
HETATM    6  C   UNL     1      -8.660  18.232  67.045  1.00  0.00    -0.259 A  
HETATM    7  C   UNL     1      -9.652  17.273  67.025  1.00  0.00    -0.261 A  
HETATM    8  N   UNL     1      -9.562  16.543  68.194  1.00  0.00    -0.222 NA 
HETATM    9  N   UNL     1      -8.532  16.982  68.973  1.00  0.00    -0.185 NA 
HETATM   10  C   UNL     1      -7.996  17.985  68.270  1.00  0.00    -0.290 A  
BRANCH   8  11
HETATM   11  C   UNL     1     -10.480  15.502  68.585  1.00  0.00    -0.237 A  
HETATM   12  N   UNL     1     -10.170  14.219  68.272  1.00  0.00    -0.237 NA 
HETATM   13  C   UNL     1     -10.981  13.344  68.894  1.00  0.00    -0.248 A  
HETATM   14  C   UNL     1     -12.055  13.636  69.716  1.00  0.00    -0.334 A  
HETATM   15  N   UNL     1     -12.629  12.488  70.212  1.00  0.00    -0.036 NA 
HETATM   16  C   UNL     1     -12.351  14.993  69.897  1.00  0.00    -0.275 A  
HETATM   17  N   UNL     1     -13.426  15.444  70.651  1.00  0.00    -0.792 NA 
HETATM   18  N   UNL     1     -11.547  15.912  69.325  1.00  0.00    -0.371 NA 
HETATM   19  C   UNL     1     -11.888  11.513  69.734  1.00  0.00    -0.357 A  
HETATM   20  H1  UNL     1     -13.642  16.432  70.783  1.00  0.00     0.000 HD 
HETATM   21  N   UNL     1     -10.905  11.976  68.892  1.00  0.00    -0.223 NA 
HETATM   22  H2  UNL     1     -13.344  15.026  71.578  1.00  0.00     0.000 HD 
BRANCH  21  23
HETATM   23  C1* UNL     1      -9.965  11.125  68.202  1.00  0.00    -0.178 C  
HETATM   24  O4* UNL     1      -9.493  11.821  67.035  1.00  0.00    -0.180 OA 
HETATM   25  C4* UNL     1     -10.083  11.225  65.861  1.00  0.00    -0.245 C  
HETATM   26  C3* UNL     1     -10.652   9.856  66.260  1.00  0.00    -0.018 C  
HETATM   27  H2* UNL     1      -9.801   7.896  67.901  1.00  0.00     0.000 HD 
HETATM   28  C2* UNL     1     -10.461   9.745  67.776  1.00  0.00    -0.246 C  
HETATM   29  O2* UNL     1      -9.492   8.754  68.166  1.00  0.00    -0.139 OA 
HETATM   30  O3* UNL     1      -9.983   8.784  65.582  1.00  0.00    -0.432 OA 
HETATM   31  H3* UNL     1     -10.336   7.937  65.829  1.00  0.00     0.000 HD 
BRANCH  25  32
HETATM   32  C5* UNL     1     -11.128  12.192  65.284  1.00  0.00    -0.321 C  
HETATM   33  O5* UNL     1     -12.275  12.240  66.136  1.00  0.00    -0.647 OA 
HETATM   34  H5* UNL     1     -12.921  12.838  65.778  1.00  0.00     0.000 HD 
ENDBRANCH  25  32
ENDBRANCH  21  23
ENDBRANCH   8  11
ENDBRANCH   3   6
TORSDOF 4
ENDMDL
MODEL       75
REMARK 921   NORMALIZED FREE ENERGY PREDICTED BY IDOCK:   -6.32 KCAL/MOL
REMARK 922        TOTAL FREE ENERGY PREDICTED BY IDOCK:   -8.31 KCAL/MOL
REMARK 923 INTER-LIGAND FREE ENERGY PREDICTED BY IDOCK:   -7.77 KCAL/MOL
REMARK 924 INTRA-LIGAND FREE ENERGY PREDICTED BY IDOCK:   -0.55 KCAL/MOL
REMARK 927      BINDING AFFINITY PREDICTED BY RF-SCORE:    0.00 PKD
ROOT
HETATM    1  C   UNL     1      -7.792  20.671  67.359  1.00  0.00    -0.283 C  
HETATM    2  N   UNL     1      -8.436  19.391  67.232  1.00  0.00    -0.288 N  
HETATM    3  C   UNL     1      -9.331  18.932  68.176  1.00  0.00    -0.325 C  
HETATM    4  H   UNL     1      -8.226  18.807  66.423  1.00  0.00     0.000 HD 
HETATM    5  O   UNL     1      -9.640  19.565  69.178  1.00  0.00    -0.394 OA 
ENDROOT
BRANCH   3   6
HETATM    6  C   UNL     1      -9.900  17.625  67.884  1.00  0.00    -0.300 A  
HETATM    7  C   UNL     1      -9.609  16.772  66.838  1.00  0.00    -0.245 A  
HETATM    8  N   UNL     1     -10.421  15.661  66.956  1.00  0.00    -0.297 NA 
HETATM    9  N   UNL     1     -11.224  15.750  68.054  1.00  0.00    -0.349 NA 
HETATM   10  C   UNL     1     -10.896  16.923  68.604  1.00  0.00    -0.314 A  
BRANCH   8  11
HETATM   11  C   UNL     1     -10.476  14.579  66.004  1.00  0.00    -0.308 A  
HETATM   12  N   UNL     1      -9.705  13.485  66.227  1.00  0.00    -0.289 NA 
HETATM   13  C   UNL     1     -10.026  12.472  65.403  1.00  0.00    -0.219 A  
HETATM   14  C   UNL     1     -10.969  12.483  64.390  1.00  0.00    -0.340 A  
HETATM   15  N   UNL     1     -11.059  11.253  63.781  1.00  0.00    -0.332 NA 
HETATM   16  C   UNL     1     -11.641  13.692  64.178  1.00  0.00    -0.352 A  
HETATM   17  N   UNL     1     -12.578  13.876  63.169  1.00  0.00    -0.976 NA 
HETATM   18  N   UNL     1     -11.382  14.729  65.000  1.00  0.00    -0.374 NA 
HETATM   19  C   UNL     1     -10.216  10.491  64.442  1.00  0.00    -0.267 A  
HETATM   20  H1  UNL     1     -13.068  14.757  63.014  1.00  0.00     0.000 HD 
HETATM   21  N   UNL     1      -9.531  11.194  65.405  1.00  0.00    -0.217 NA 
HETATM   22  H2  UNL     1     -13.286  13.150  63.275  1.00  0.00     0.000 HD 
BRANCH  21  23
HETATM   23  C1* UNL     1      -8.520  10.619  66.261  1.00  0.00    -0.155 C  
HETATM   24  O4* UNL     1      -7.318  10.441  65.490  1.00  0.00    -0.145 OA 
HETATM   25  C4* UNL     1      -7.136   9.036  65.220  1.00  0.00    -0.084 C  
HETATM   26  C3* UNL     1      -8.043   8.248  66.177  1.00  0.00    -0.111 C  
HETATM   27  H2* UNL     1      -8.734   8.560  68.762  1.00  0.00     0.000 HD 
HETATM   28  C2* UNL     1      -8.860   9.295  66.942  1.00  0.00    -0.127 C  
HETATM   29  O2* UNL     1      -8.523   9.383  68.338  1.00  0.00    -0.118 OA 
HETATM   30  O3* UNL     1      -7.284   7.434  67.081  1.00  0.00    -0.084 OA 
HETATM   31  H3* UNL     1      -7.845   6.946  67.672  1.00  0.00     0.000 HD 
BRANCH  25  32
HETATM   32  C5* UNL     1      -7.417   8.774  63.734  1.00  0.00    -0.111 C  
HETATM   33  O5* UNL     1      -8.320   7.674  63.593  1.00  0.00    -0.362 OA 
HETATM   34  H5* UNL     1      -8.494   7.512  62.673  1.00  0.00     0.000 HD 
ENDBRANCH  25  32
ENDBRANCH  21  23
ENDBRANCH   8  11
ENDBRANCH   3   6
TORSDOF 4
ENDMDL
MODEL       76
REMARK 921   NORMALIZED FREE ENERGY PREDICTED BY IDOCK:   -6.31 KCAL/MOL
REMARK 922        TOTAL FREE ENERGY PREDICTED BY IDOCK:   -8.30 KCAL/MOL
REMARK 923 INTER-LIGAND FREE ENERGY PREDICTED BY IDOCK:   -7.54 KCAL/MOL
REMARK 924 INTRA-LIGAND FREE ENERGY PREDICTED BY IDOCK:   -0.76 KCAL/MOL
REMARK 927      BINDING AFFINITY PREDICTED BY RF-SCORE:    0.00 PKD
ROOT
HETATM    1  C   UNL     1     -14.068  15.593  72.363  1.00  0.00    -0.490 C  
HETATM    2  N   UNL     1     -13.377  15.315  71.133  1.00  0.00    -0.505 N  
HETATM    3  C   UNL     1     -12.869  14.064  70.854  1.00  0.00    -0.318 C  
HETATM    4  H   UNL     1     -13.258  16.062  70.450  1.00  0.00     0.000 HD 
HETATM    5  O   UNL     1     -12.964  13.109  71.616  1.00  0.00    -0.370 OA 
ENDROOT
BRANCH   3   6
HETATM    6  C   UNL     1     -12.213  13.953  69.558  1.00  0.00    -0.356 A  
HETATM    7  C   UNL     1     -11.781  12.817  68.906  1.00  0.00    -0.326 A  
HETATM    8  N   UNL     1     -11.191  13.205  67.719  1.00  0.00    -0.264 NA 
HETATM    9  N   UNL     1     -11.236  14.559  67.564  1.00  0.00    -0.307 NA 
HETATM   10  C   UNL     1     -11.859  14.992  68.665  1.00  0.00    -0.296 A  
BRANCH   8  11
HETATM   11  C   UNL     1     -10.539  12.311  66.794  1.00  0.00    -0.224 A  
HETATM   12  N   UNL     1      -9.842  11.260  67.297  1.00  0.00    -0.181 NA 
HETATM   13  C   UNL     1      -9.492  10.388  66.335  1.00  0.00    -0.169 A  
HETATM   14  C   UNL     1      -9.721  10.504  64.976  1.00  0.00    -0.292 A  
HETATM   15  N   UNL     1      -9.260   9.400  64.297  1.00  0.00    -0.116 NA 
HETATM   16  C   UNL     1     -10.362  11.673  64.549  1.00  0.00    -0.300 A  
HETATM   17  N   UNL     1     -10.618  11.958  63.214  1.00  0.00    -0.632 NA 
HETATM   18  N   UNL     1     -10.768  12.564  65.476  1.00  0.00    -0.265 NA 
HETATM   19  C   UNL     1      -8.797   8.603  65.235  1.00  0.00    -0.135 A  
HETATM   20  H1  UNL     1     -11.085  12.810  62.903  1.00  0.00     0.000 HD 
HETATM   21  N   UNL     1      -8.871   9.175  66.483  1.00  0.00    -0.130 NA 
HETATM   22  H2  UNL     1     -11.137  11.170  62.829  1.00  0.00     0.000 HD 
BRANCH  21  23
HETATM   23  C1* UNL     1      -8.406   8.540  67.693  1.00  0.00    -0.129 C  
HETATM   24  O4* UNL     1      -8.273   7.129  67.444  1.00  0.00    -0.114 OA 
HETATM   25  C4* UNL     1      -9.341   6.431  68.116  1.00  0.00    -0.108 C  
HETATM   26  C3* UNL     1      -9.957   7.387  69.149  1.00  0.00    -0.173 C  
HETATM   27  H2* UNL     1      -8.926   9.228  70.823  1.00  0.00     0.000 HD 
HETATM   28  C2* UNL     1      -9.255   8.733  68.948  1.00  0.00    -0.141 C  
HETATM   29  O2* UNL     1      -8.398   9.108  70.042  1.00  0.00    -0.120 OA 
HETATM   30  O3* UNL     1      -9.774   6.912  70.489  1.00  0.00    -0.173 OA 
HETATM   31  H3* UNL     1     -10.155   7.503  71.127  1.00  0.00     0.000 HD 
BRANCH  25  32
HETATM   32  C5* UNL     1     -10.338   5.916  67.068  1.00  0.00    -0.243 C  
HETATM   33  O5* UNL     1     -11.317   6.920  66.789  1.00  0.00    -0.661 OA 
HETATM   34  H5* UNL     1     -11.934   6.602  66.141  1.00  0.00     0.000 HD 
ENDBRANCH  25  32
ENDBRANCH  21  23
ENDBRANCH   8  11
ENDBRANCH   3   6
TORSDOF 4
ENDMDL
MODEL       77
REMARK 921   NORMALIZED FREE ENERGY PREDICTED BY IDOCK:   -6.31 KCAL/MOL
REMARK 922        TOTAL FREE ENERGY PREDICTED BY IDOCK:   -8.29 KCAL/MOL
REMARK 923 INTER-LIGAND FREE ENERGY PREDICTED BY IDOCK:   -7.23 KCAL/MOL
REMARK 924 INTRA-LIGAND FREE ENERGY PREDICTED BY IDOCK:   -1.07 KCAL/MOL
REMARK 927      BINDING AFFINITY PREDICTED BY RF-SCORE:    0.00 PKD
ROOT
HETATM    1  C   UNL     1     -12.403  16.397  72.990  1.00  0.00    -0.398 C  
HETATM    2  N   UNL     1     -12.129  15.175  72.283  1.00  0.00    -0.370 N  
HETATM    3  C   UNL     1     -13.137  14.313  71.907  1.00  0.00    -0.365 C  
HETATM    4  H   UNL     1     -11.164  14.939  72.054  1.00  0.00     0.000 HD 
HETATM    5  O   UNL     1     -14.323  14.515  72.141  1.00  0.00    -0.494 OA 
ENDROOT
BRANCH   3   6
HETATM    6  C   UNL     1     -12.685  13.131  71.186  1.00  0.00    -0.386 A  
HETATM    7  C   UNL     1     -12.894  11.803  71.493  1.00  0.00    -0.345 A  
HETATM    8  N   UNL     1     -12.251  11.038  70.539  1.00  0.00    -0.350 NA 
HETATM    9  N   UNL     1     -11.640  11.823  69.607  1.00  0.00    -0.314 NA 
HETATM   10  C   UNL     1     -11.916  13.071  69.999  1.00  0.00    -0.312 A  
BRANCH   8  11
HETATM   11  C   UNL     1     -12.164   9.599  70.562  1.00  0.00    -0.083 A  
HETATM   12  N   UNL     1     -11.085   9.010  69.987  1.00  0.00    -0.220 NA 
HETATM   13  C   UNL     1     -11.015   7.700  70.284  1.00  0.00    -0.252 A  
HETATM   14  C   UNL     1     -11.920   6.959  71.024  1.00  0.00    -0.374 A  
HETATM   15  N   UNL     1     -11.503   5.656  71.160  1.00  0.00     0.024 NA 
HETATM   16  C   UNL     1     -13.051   7.641  71.490  1.00  0.00    -0.338 A  
HETATM   17  N   UNL     1     -14.071   7.027  72.203  1.00  0.00    -0.592 NA 
HETATM   18  N   UNL     1     -13.152   8.965  71.251  1.00  0.00    -0.251 NA 
HETATM   19  C   UNL     1     -10.339   5.613  70.550  1.00  0.00    -0.258 A  
HETATM   20  H1  UNL     1     -14.895   7.523  72.542  1.00  0.00     0.000 HD 
HETATM   21  N   UNL     1     -10.020   6.814  69.962  1.00  0.00    -0.175 NA 
HETATM   22  H2  UNL     1     -13.645   6.562  73.005  1.00  0.00     0.000 HD 
BRANCH  21  23
HETATM   23  C1* UNL     1      -8.816   7.047  69.199  1.00  0.00    -0.135 C  
HETATM   24  O4* UNL     1      -9.179   7.220  67.818  1.00  0.00    -0.128 OA 
HETATM   25  C4* UNL     1      -8.787   6.044  67.079  1.00  0.00    -0.113 C  
HETATM   26  C3* UNL     1      -7.793   5.252  67.941  1.00  0.00    -0.092 C  
HETATM   27  H2* UNL     1      -5.780   5.963  69.584  1.00  0.00     0.000 HD 
HETATM   28  C2* UNL     1      -7.724   5.983  69.285  1.00  0.00    -0.095 C  
HETATM   29  O2* UNL     1      -6.460   6.625  69.531  1.00  0.00    -0.040 OA 
HETATM   30  O3* UNL     1      -6.497   5.184  67.331  1.00  0.00    -0.045 OA 
HETATM   31  H3* UNL     1      -5.883   4.693  67.864  1.00  0.00     0.000 HD 
BRANCH  25  32
HETATM   32  C5* UNL     1     -10.047   5.255  66.693  1.00  0.00    -0.228 C  
HETATM   33  O5* UNL     1     -11.211   5.910  67.205  1.00  0.00    -0.497 OA 
HETATM   34  H5* UNL     1     -11.990   5.422  66.966  1.00  0.00     0.000 HD 
ENDBRANCH  25  32
ENDBRANCH  21  23
ENDBRANCH   8  11
ENDBRANCH   3   6
TORSDOF 4
ENDMDL
MODEL       78
REMARK 921   NORMALIZED FREE ENERGY PREDICTED BY IDOCK:   -6.30 KCAL/MOL
REMARK 922        TOTAL FREE ENERGY PREDICTED BY IDOCK:   -8.28 KCAL/MOL
REMARK 923 INTER-LIGAND FREE ENERGY PREDICTED BY IDOCK:   -7.40 KCAL/MOL
REMARK 924 INTRA-LIGAND FREE ENERGY PREDICTED BY IDOCK:   -0.88 KCAL/MOL
REMARK 927      BINDING AFFINITY PREDICTED BY RF-SCORE:    0.00 PKD
ROOT
HETATM    1  C   UNL     1     -14.344   8.444  71.901  1.00  0.00    -0.473 C  
HETATM    2  N   UNL     1     -13.274   8.831  71.021  1.00  0.00    -0.520 N  
HETATM    3  C   UNL     1     -11.970   8.446  71.252  1.00  0.00    -0.288 C  
HETATM    4  H   UNL     1     -13.484   9.405  70.205  1.00  0.00     0.000 HD 
HETATM    5  O   UNL     1     -11.627   7.759  72.207  1.00  0.00    -0.298 OA 
ENDROOT
BRANCH   3   6
HETATM    6  C   UNL     1     -11.017   8.911  70.255  1.00  0.00    -0.266 A  
HETATM    7  C   UNL     1     -10.398  10.141  70.162  1.00  0.00    -0.224 A  
HETATM    8  N   UNL     1      -9.600  10.134  69.035  1.00  0.00    -0.186 NA 
HETATM    9  N   UNL     1      -9.663   8.932  68.394  1.00  0.00    -0.157 NA 
HETATM   10  C   UNL     1     -10.504   8.208  69.139  1.00  0.00    -0.206 A  
BRANCH   8  11
HETATM   11  C   UNL     1      -8.856  11.268  68.548  1.00  0.00    -0.159 A  
HETATM   12  N   UNL     1      -9.405  12.025  67.564  1.00  0.00    -0.175 NA 
HETATM   13  C   UNL     1      -8.723  13.169  67.375  1.00  0.00    -0.206 A  
HETATM   14  C   UNL     1      -7.565  13.569  68.017  1.00  0.00    -0.143 A  
HETATM   15  N   UNL     1      -7.171  14.819  67.600  1.00  0.00    -0.174 NA 
HETATM   16  C   UNL     1      -7.024  12.671  68.946  1.00  0.00    -0.086 A  
HETATM   17  N   UNL     1      -5.842  12.907  69.635  1.00  0.00    -0.103 NA 
HETATM   18  N   UNL     1      -7.689  11.526  69.200  1.00  0.00    -0.032 NA 
HETATM   19  C   UNL     1      -8.100  15.194  66.748  1.00  0.00    -0.078 A  
HETATM   20  H1  UNL     1      -5.449  12.253  70.311  1.00  0.00     0.000 HD 
HETATM   21  N   UNL     1      -9.038  14.210  66.541  1.00  0.00    -0.219 NA 
HETATM   22  H2  UNL     1      -5.937  13.808  70.104  1.00  0.00     0.000 HD 
BRANCH  21  23
HETATM   23  C1* UNL     1     -10.154  14.334  65.634  1.00  0.00    -0.341 C  
HETATM   24  O4* UNL     1     -11.153  15.164  66.253  1.00  0.00    -0.337 OA 
HETATM   25  C4* UNL     1     -12.261  14.337  66.664  1.00  0.00    -0.381 C  
HETATM   26  C3* UNL     1     -12.141  12.988  65.938  1.00  0.00    -0.444 C  
HETATM   27  H2* UNL     1     -11.394  12.277  63.449  1.00  0.00     0.000 HD 
HETATM   28  C2* UNL     1     -10.818  13.040  65.168  1.00  0.00    -0.300 C  
HETATM   29  O2* UNL     1     -10.981  13.082  63.739  1.00  0.00    -0.392 OA 
HETATM   30  O3* UNL     1     -13.241  12.764  65.046  1.00  0.00    -0.768 OA 
HETATM   31  H3* UNL     1     -13.166  11.930  64.598  1.00  0.00     0.000 HD 
BRANCH  25  32
HETATM   32  C5* UNL     1     -12.260  14.225  68.195  1.00  0.00    -0.129 C  
HETATM   33  O5* UNL     1     -12.010  12.873  68.587  1.00  0.00    -0.313 OA 
HETATM   34  H5* UNL     1     -12.009  12.804  69.534  1.00  0.00     0.000 HD 
ENDBRANCH  25  32
ENDBRANCH  21  23
ENDBRANCH   8  11
ENDBRANCH   3   6
TORSDOF 4
ENDMDL
MODEL       79
REMARK 921   NORMALIZED FREE ENERGY PREDICTED BY IDOCK:   -6.25 KCAL/MOL
REMARK 922        TOTAL FREE ENERGY PREDICTED BY IDOCK:   -8.23 KCAL/MOL
REMARK 923 INTER-LIGAND FREE ENERGY PREDICTED BY IDOCK:   -7.77 KCAL/MOL
REMARK 924 INTRA-LIGAND FREE ENERGY PREDICTED BY IDOCK:   -0.46 KCAL/MOL
REMARK 927      BINDING AFFINITY PREDICTED BY RF-SCORE:    0.00 PKD
ROOT
HETATM    1  C   UNL     1      -6.469  19.447  65.353  1.00  0.00    -0.270 C  
HETATM    2  N   UNL     1      -6.959  18.511  66.328  1.00  0.00    -0.224 N  
HETATM    3  C   UNL     1      -8.303  18.402  66.617  1.00  0.00    -0.265 C  
HETATM    4  H   UNL     1      -6.296  17.911  66.818  1.00  0.00     0.000 HD 
HETATM    5  O   UNL     1      -9.168  19.082  66.078  1.00  0.00    -0.460 OA 
ENDROOT
BRANCH   3   6
HETATM    6  C   UNL     1      -8.626  17.393  67.616  1.00  0.00    -0.217 A  
HETATM    7  C   UNL     1      -9.867  17.002  68.075  1.00  0.00    -0.275 A  
HETATM    8  N   UNL     1      -9.678  16.036  69.044  1.00  0.00    -0.230 NA 
HETATM    9  N   UNL     1      -8.354  15.769  69.224  1.00  0.00    -0.244 NA 
HETATM   10  C   UNL     1      -7.737  16.579  68.358  1.00  0.00    -0.189 A  
BRANCH   8  11
HETATM   11  C   UNL     1     -10.734  15.438  69.824  1.00  0.00    -0.291 A  
HETATM   12  N   UNL     1     -11.130  14.177  69.513  1.00  0.00    -0.216 NA 
HETATM   13  C   UNL     1     -11.941  13.663  70.455  1.00  0.00    -0.302 A  
HETATM   14  C   UNL     1     -12.408  14.295  71.594  1.00  0.00    -0.313 A  
HETATM   15  N   UNL     1     -13.184  13.448  72.350  1.00  0.00    -0.483 NA 
HETATM   16  C   UNL     1     -12.019  15.628  71.771  1.00  0.00    -0.440 A  
HETATM   17  N   UNL     1     -12.445  16.411  72.836  1.00  0.00    -0.386 NA 
HETATM   18  N   UNL     1     -11.176  16.181  70.875  1.00  0.00    -0.345 NA 
HETATM   19  C   UNL     1     -13.154  12.303  71.704  1.00  0.00    -0.306 A  
HETATM   20  H1  UNL     1     -12.161  17.382  72.966  1.00  0.00     0.000 HD 
HETATM   21  N   UNL     1     -12.452  12.394  70.525  1.00  0.00    -0.241 NA 
HETATM   22  H2  UNL     1     -12.212  15.911  73.694  1.00  0.00     0.000 HD 
BRANCH  21  23
HETATM   23  C1* UNL     1     -12.283  11.299  69.599  1.00  0.00    -0.271 C  
HETATM   24  O4* UNL     1     -12.908  10.130  70.157  1.00  0.00    -0.119 OA 
HETATM   25  C4* UNL     1     -11.884   9.217  70.602  1.00  0.00    -0.175 C  
HETATM   26  C3* UNL     1     -10.557   9.643  69.958  1.00  0.00    -0.260 C  
HETATM   27  H2* UNL     1      -9.889  10.585  67.524  1.00  0.00     0.000 HD 
HETATM   28  C2* UNL     1     -10.852  10.942  69.202  1.00  0.00    -0.235 C  
HETATM   29  O2* UNL     1     -10.779  10.808  67.771  1.00  0.00    -0.212 OA 
HETATM   30  O3* UNL     1     -10.051   8.639  69.068  1.00  0.00    -0.188 OA 
HETATM   31  H3* UNL     1      -9.230   8.902  68.670  1.00  0.00     0.000 HD 
BRANCH  25  32
HETATM   32  C5* UNL     1     -11.859   9.205  72.137  1.00  0.00    -0.263 C  
HETATM   33  O5* UNL     1     -11.128   8.070  72.607  1.00  0.00    -0.344 OA 
HETATM   34  H5* UNL     1     -11.113   8.063  73.557  1.00  0.00     0.000 HD 
ENDBRANCH  25  32
ENDBRANCH  21  23
ENDBRANCH   8  11
ENDBRANCH   3   6
TORSDOF 4
ENDMDL
MODEL       80
REMARK 921   NORMALIZED FREE ENERGY PREDICTED BY IDOCK:   -6.22 KCAL/MOL
REMARK 922        TOTAL FREE ENERGY PREDICTED BY IDOCK:   -8.19 KCAL/MOL
REMARK 923 INTER-LIGAND FREE ENERGY PREDICTED BY IDOCK:   -7.65 KCAL/MOL
REMARK 924 INTRA-LIGAND FREE ENERGY PREDICTED BY IDOCK:   -0.54 KCAL/MOL
REMARK 927      BINDING AFFINITY PREDICTED BY RF-SCORE:    0.00 PKD
ROOT
HETATM    1  C   UNL     1      -8.526   6.836  74.534  1.00  0.00    -0.163 C  
HETATM    2  N   UNL     1      -9.200   7.670  73.575  1.00  0.00    -0.251 N  
HETATM    3  C   UNL     1      -9.801   7.142  72.452  1.00  0.00    -0.150 C  
HETATM    4  H   UNL     1      -9.234   8.677  73.729  1.00  0.00     0.000 HD 
HETATM    5  O   UNL     1      -9.808   5.946  72.187  1.00  0.00    -0.162 OA 
ENDROOT
BRANCH   3   6
HETATM    6  C   UNL     1     -10.451   8.125  71.596  1.00  0.00    -0.288 A  
HETATM    7  C   UNL     1     -10.180   8.432  70.279  1.00  0.00    -0.196 A  
HETATM    8  N   UNL     1     -11.032   9.450  69.895  1.00  0.00    -0.237 NA 
HETATM    9  N   UNL     1     -11.864   9.809  70.913  1.00  0.00    -0.313 NA 
HETATM   10  C   UNL     1     -11.513   9.002  71.920  1.00  0.00    -0.370 A  
BRANCH   8  11
HETATM   11  C   UNL     1     -11.000  10.107  68.611  1.00  0.00    -0.230 A  
HETATM   12  N   UNL     1     -11.398  11.403  68.541  1.00  0.00    -0.244 NA 
HETATM   13  C   UNL     1     -11.097  11.953  67.351  1.00  0.00    -0.279 A  
HETATM   14  C   UNL     1     -10.513  11.329  66.264  1.00  0.00    -0.258 A  
HETATM   15  N   UNL     1     -10.315  12.213  65.229  1.00  0.00    -0.270 NA 
HETATM   16  C   UNL     1     -10.231   9.964  66.405  1.00  0.00    -0.222 A  
HETATM   17  N   UNL     1      -9.691   9.188  65.388  1.00  0.00    -0.457 NA 
HETATM   18  N   UNL     1     -10.479   9.372  67.591  1.00  0.00    -0.254 NA 
HETATM   19  C   UNL     1     -10.732  13.370  65.695  1.00  0.00    -0.277 A  
HETATM   20  H1  UNL     1      -9.486   8.195  65.491  1.00  0.00     0.000 HD 
HETATM   21  N   UNL     1     -11.259  13.257  66.960  1.00  0.00    -0.283 NA 
HETATM   22  H2  UNL     1      -8.833   9.645  65.079  1.00  0.00     0.000 HD 
BRANCH  21  23
HETATM   23  C1* UNL     1     -11.819  14.360  67.705  1.00  0.00    -0.378 C  
HETATM   24  O4* UNL     1     -11.520  15.580  67.004  1.00  0.00    -0.202 OA 
HETATM   25  C4* UNL     1     -10.501  16.300  67.728  1.00  0.00    -0.295 C  
HETATM   26  C3* UNL     1     -10.418  15.709  69.143  1.00  0.00    -0.236 C  
HETATM   27  H2* UNL     1     -12.259  14.806  70.890  1.00  0.00     0.000 HD 
HETATM   28  C2* UNL     1     -11.375  14.513  69.158  1.00  0.00    -0.277 C  
HETATM   29  O2* UNL     1     -12.535  14.710  69.986  1.00  0.00    -0.326 OA 
HETATM   30  O3* UNL     1     -10.787  16.669  70.142  1.00  0.00    -0.314 OA 
HETATM   31  H3* UNL     1     -10.735  16.304  71.017  1.00  0.00     0.000 HD 
BRANCH  25  32
HETATM   32  C5* UNL     1      -9.184  16.225  66.941  1.00  0.00    -0.218 C  
HETATM   33  O5* UNL     1      -9.397  16.634  65.588  1.00  0.00    -0.502 OA 
HETATM   34  H5* UNL     1      -8.583  16.588  65.102  1.00  0.00     0.000 HD 
ENDBRANCH  25  32
ENDBRANCH  21  23
ENDBRANCH   8  11
ENDBRANCH   3   6
TORSDOF 4
ENDMDL
MODEL       81
REMARK 921   NORMALIZED FREE ENERGY PREDICTED BY IDOCK:   -6.21 KCAL/MOL
REMARK 922        TOTAL FREE ENERGY PREDICTED BY IDOCK:   -8.17 KCAL/MOL
REMARK 923 INTER-LIGAND FREE ENERGY PREDICTED BY IDOCK:   -7.24 KCAL/MOL
REMARK 924 INTRA-LIGAND FREE ENERGY PREDICTED BY IDOCK:   -0.93 KCAL/MOL
REMARK 927      BINDING AFFINITY PREDICTED BY RF-SCORE:    0.00 PKD
ROOT
HETATM    1  C   UNL     1      -5.805  20.493  65.018  1.00  0.00    -0.225 C  
HETATM    2  N   UNL     1      -6.155  19.157  65.419  1.00  0.00    -0.222 N  
HETATM    3  C   UNL     1      -7.384  18.864  65.971  1.00  0.00    -0.259 C  
HETATM    4  H   UNL     1      -5.477  18.406  65.292  1.00  0.00     0.000 HD 
HETATM    5  O   UNL     1      -8.257  19.703  66.161  1.00  0.00    -0.335 OA 
ENDROOT
BRANCH   3   6
HETATM    6  C   UNL     1      -7.578  17.460  66.306  1.00  0.00    -0.348 A  
HETATM    7  C   UNL     1      -8.720  16.696  66.185  1.00  0.00    -0.287 A  
HETATM    8  N   UNL     1      -8.436  15.428  66.655  1.00  0.00    -0.275 NA 
HETATM    9  N   UNL     1      -7.140  15.332  67.065  1.00  0.00    -0.197 NA 
HETATM   10  C   UNL     1      -6.636  16.550  66.841  1.00  0.00    -0.177 A  
BRANCH   8  11
HETATM   11  C   UNL     1      -9.399  14.362  66.773  1.00  0.00    -0.268 A  
HETATM   12  N   UNL     1      -8.995  13.186  67.318  1.00  0.00    -0.207 NA 
HETATM   13  C   UNL     1     -10.035  12.375  67.583  1.00  0.00    -0.200 A  
HETATM   14  C   UNL     1     -11.371  12.610  67.309  1.00  0.00    -0.318 A  
HETATM   15  N   UNL     1     -12.160  11.577  67.758  1.00  0.00    -0.587 NA 
HETATM   16  C   UNL     1     -11.672  13.811  66.656  1.00  0.00    -0.394 A  
HETATM   17  N   UNL     1     -12.957  14.168  66.269  1.00  0.00    -0.348 NA 
HETATM   18  N   UNL     1     -10.670  14.677  66.400  1.00  0.00    -0.303 NA 
HETATM   19  C   UNL     1     -11.322  10.746  68.337  1.00  0.00    -0.302 A  
HETATM   20  H1  UNL     1     -13.176  15.043  65.794  1.00  0.00     0.000 HD 
HETATM   21  N   UNL     1     -10.017  11.161  68.217  1.00  0.00    -0.180 NA 
HETATM   22  H2  UNL     1     -13.549  14.116  67.098  1.00  0.00     0.000 HD 
BRANCH  21  23
HETATM   23  C1* UNL     1      -8.884  10.427  68.731  1.00  0.00    -0.157 C  
HETATM   24  O4* UNL     1      -8.276   9.709  67.643  1.00  0.00    -0.113 OA 
HETATM   25  C4* UNL     1      -8.575   8.305  67.782  1.00  0.00    -0.131 C  
HETATM   26  C3* UNL     1      -9.068   8.064  69.216  1.00  0.00    -0.148 C  
HETATM   27  H2* UNL     1      -8.344   9.045  71.619  1.00  0.00     0.000 HD 
HETATM   28  C2* UNL     1      -9.152   9.447  69.871  1.00  0.00    -0.204 C  
HETATM   29  O2* UNL     1      -8.178   9.655  70.910  1.00  0.00    -0.290 OA 
HETATM   30  O3* UNL     1      -8.181   7.207  69.947  1.00  0.00    -0.129 OA 
HETATM   31  H3* UNL     1      -8.486   7.059  70.834  1.00  0.00     0.000 HD 
BRANCH  25  32
HETATM   32  C5* UNL     1      -9.586   7.901  66.698  1.00  0.00    -0.226 C  
HETATM   33  O5* UNL     1      -9.607   8.882  65.658  1.00  0.00    -0.409 OA 
HETATM   34  H5* UNL     1     -10.231   8.632  64.988  1.00  0.00     0.000 HD 
ENDBRANCH  25  32
ENDBRANCH  21  23
ENDBRANCH   8  11
ENDBRANCH   3   6
TORSDOF 4
ENDMDL
MODEL       82
REMARK 921   NORMALIZED FREE ENERGY PREDICTED BY IDOCK:   -6.20 KCAL/MOL
REMARK 922        TOTAL FREE ENERGY PREDICTED BY IDOCK:   -8.16 KCAL/MOL
REMARK 923 INTER-LIGAND FREE ENERGY PREDICTED BY IDOCK:   -7.41 KCAL/MOL
REMARK 924 INTRA-LIGAND FREE ENERGY PREDICTED BY IDOCK:   -0.75 KCAL/MOL
REMARK 927      BINDING AFFINITY PREDICTED BY RF-SCORE:    0.00 PKD
ROOT
HETATM    1  C   UNL     1      -8.248   8.963  71.336  1.00  0.00    -0.120 C  
HETATM    2  N   UNL     1      -8.438   9.775  70.164  1.00  0.00    -0.241 N  
HETATM    3  C   UNL     1      -8.126   9.312  68.904  1.00  0.00    -0.103 C  
HETATM    4  H   UNL     1      -8.813  10.717  70.268  1.00  0.00     0.000 HD 
HETATM    5  O   UNL     1      -7.669   8.196  68.686  1.00  0.00    -0.107 OA 
ENDROOT
BRANCH   3   6
HETATM    6  C   UNL     1      -8.394  10.257  67.829  1.00  0.00    -0.110 A  
HETATM    7  C   UNL     1      -9.039  11.475  67.894  1.00  0.00    -0.167 A  
HETATM    8  N   UNL     1      -9.086  12.002  66.618  1.00  0.00    -0.203 NA 
HETATM    9  N   UNL     1      -8.477  11.176  65.720  1.00  0.00    -0.126 NA 
HETATM   10  C   UNL     1      -8.060  10.142  66.458  1.00  0.00    -0.121 A  
BRANCH   8  11
HETATM   11  C   UNL     1      -9.756  13.227  66.259  1.00  0.00    -0.268 A  
HETATM   12  N   UNL     1      -9.170  14.404  66.594  1.00  0.00    -0.266 NA 
HETATM   13  C   UNL     1      -9.773  15.449  66.000  1.00  0.00    -0.338 A  
HETATM   14  C   UNL     1     -10.891  15.418  65.185  1.00  0.00    -0.431 A  
HETATM   15  N   UNL     1     -11.203  16.674  64.720  1.00  0.00    -0.656 NA 
HETATM   16  C   UNL     1     -11.480  14.163  64.981  1.00  0.00    -0.352 A  
HETATM   17  N   UNL     1     -12.633  13.975  64.231  1.00  0.00    -0.685 NA 
HETATM   18  N   UNL     1     -10.893  13.078  65.525  1.00  0.00    -0.275 NA 
HETATM   19  C   UNL     1     -10.263  17.453  65.208  1.00  0.00     0.381 A  
HETATM   20  H1  UNL     1     -13.061  13.062  64.082  1.00  0.00     0.000 HD 
HETATM   21  N   UNL     1      -9.399  16.767  66.028  1.00  0.00    -0.472 NA 
HETATM   22  H2  UNL     1     -12.468  14.386  63.312  1.00  0.00     0.000 HD 
BRANCH  21  23
HETATM   23  C1* UNL     1      -8.290  17.376  66.724  1.00  0.00    -0.248 C  
HETATM   24  O4* UNL     1      -8.683  17.613  68.087  1.00  0.00    -0.249 OA 
HETATM   25  C4* UNL     1      -8.892  19.028  68.276  1.00  0.00    -0.333 C  
HETATM   26  C3* UNL     1      -8.237  19.765  67.098  1.00  0.00    -0.298 C  
HETATM   27  H2* UNL     1      -5.958  19.395  65.710  1.00  0.00     0.000 HD 
HETATM   28  C2* UNL     1      -7.737  18.676  66.145  1.00  0.00    -0.233 C  
HETATM   29  O2* UNL     1      -6.303  18.586  66.070  1.00  0.00    -0.186 OA 
HETATM   30  O3* UNL     1      -7.155  20.601  67.530  1.00  0.00    -0.309 OA 
HETATM   31  H3* UNL     1      -6.750  21.057  66.801  1.00  0.00     0.000 HD 
BRANCH  25  32
HETATM   32  C5* UNL     1     -10.397  19.295  68.422  1.00  0.00    -0.340 C  
HETATM   33  O5* UNL     1     -10.633  20.174  69.524  1.00  0.00    -0.553 OA 
HETATM   34  H5* UNL     1     -11.564  20.340  69.614  1.00  0.00     0.000 HD 
ENDBRANCH  25  32
ENDBRANCH  21  23
ENDBRANCH   8  11
ENDBRANCH   3   6
TORSDOF 4
ENDMDL
MODEL       83
REMARK 921   NORMALIZED FREE ENERGY PREDICTED BY IDOCK:   -6.17 KCAL/MOL
REMARK 922        TOTAL FREE ENERGY PREDICTED BY IDOCK:   -8.12 KCAL/MOL
REMARK 923 INTER-LIGAND FREE ENERGY PREDICTED BY IDOCK:   -7.39 KCAL/MOL
REMARK 924 INTRA-LIGAND FREE ENERGY PREDICTED BY IDOCK:   -0.73 KCAL/MOL
REMARK 927      BINDING AFFINITY PREDICTED BY RF-SCORE:    0.00 PKD
ROOT
HETATM    1  C   UNL     1     -13.190  15.774  73.478  1.00  0.00    -0.479 C  
HETATM    2  N   UNL     1     -12.662  15.163  72.288  1.00  0.00    -0.319 N  
HETATM    3  C   UNL     1     -12.980  13.869  71.934  1.00  0.00    -0.354 C  
HETATM    4  H   UNL     1     -12.035  15.701  71.690  1.00  0.00     0.000 HD 
HETATM    5  O   UNL     1     -13.723  13.151  72.594  1.00  0.00    -0.651 OA 
ENDROOT
BRANCH   3   6
HETATM    6  C   UNL     1     -12.371  13.414  70.693  1.00  0.00    -0.423 A  
HETATM    7  C   UNL     1     -11.755  12.208  70.426  1.00  0.00    -0.059 A  
HETATM    8  N   UNL     1     -11.303  12.240  69.122  1.00  0.00    -0.263 NA 
HETATM    9  N   UNL     1     -11.616  13.421  68.518  1.00  0.00    -0.309 NA 
HETATM   10  C   UNL     1     -12.263  14.109  69.465  1.00  0.00    -0.305 A  
BRANCH   8  11
HETATM   11  C   UNL     1     -10.530  11.196  68.495  1.00  0.00    -0.191 A  
HETATM   12  N   UNL     1      -9.879  10.310  69.292  1.00  0.00    -0.218 NA 
HETATM   13  C   UNL     1      -9.401   9.266  68.590  1.00  0.00    -0.139 A  
HETATM   14  C   UNL     1      -9.469   9.075  67.222  1.00  0.00    -0.149 A  
HETATM   15  N   UNL     1      -8.911   7.872  66.858  1.00  0.00    -0.131 NA 
HETATM   16  C   UNL     1     -10.076  10.096  66.479  1.00  0.00    -0.234 A  
HETATM   17  N   UNL     1     -10.176  10.075  65.094  1.00  0.00    -0.267 NA 
HETATM   18  N   UNL     1     -10.604  11.148  67.137  1.00  0.00    -0.231 NA 
HETATM   19  C   UNL     1      -8.548   7.317  67.994  1.00  0.00    -0.125 A  
HETATM   20  H1  UNL     1     -10.618  10.818  64.554  1.00  0.00     0.000 HD 
HETATM   21  N   UNL     1      -8.781   8.142  69.069  1.00  0.00    -0.143 NA 
HETATM   22  H2  UNL     1     -10.632   9.200  64.836  1.00  0.00     0.000 HD 
BRANCH  21  23
HETATM   23  C1* UNL     1      -8.452   7.804  70.433  1.00  0.00    -0.132 C  
HETATM   24  O4* UNL     1      -8.954   6.484  70.709  1.00  0.00    -0.143 OA 
HETATM   25  C4* UNL     1     -10.105   6.590  71.571  1.00  0.00    -0.190 C  
HETATM   26  C3* UNL     1     -10.112   7.999  72.182  1.00  0.00    -0.234 C  
HETATM   27  H2* UNL     1      -8.179   9.636  73.100  1.00  0.00     0.000 HD 
HETATM   28  C2* UNL     1      -8.951   8.750  71.523  1.00  0.00    -0.236 C  
HETATM   29  O2* UNL     1      -7.868   9.047  72.423  1.00  0.00    -0.345 OA 
HETATM   30  O3* UNL     1      -9.951   7.962  73.607  1.00  0.00    -0.288 OA 
HETATM   31  H3* UNL     1      -9.956   8.833  73.984  1.00  0.00     0.000 HD 
BRANCH  25  32
HETATM   32  C5* UNL     1     -11.366   6.254  70.762  1.00  0.00    -0.332 C  
HETATM   33  O5* UNL     1     -11.784   7.395  70.009  1.00  0.00    -0.500 OA 
HETATM   34  H5* UNL     1     -12.564   7.187  69.508  1.00  0.00     0.000 HD 
ENDBRANCH  25  32
ENDBRANCH  21  23
ENDBRANCH   8  11
ENDBRANCH   3   6
TORSDOF 4
ENDMDL
MODEL       84
REMARK 921   NORMALIZED FREE ENERGY PREDICTED BY IDOCK:   -6.16 KCAL/MOL
REMARK 922        TOTAL FREE ENERGY PREDICTED BY IDOCK:   -8.12 KCAL/MOL
REMARK 923 INTER-LIGAND FREE ENERGY PREDICTED BY IDOCK:   -7.44 KCAL/MOL
REMARK 924 INTRA-LIGAND FREE ENERGY PREDICTED BY IDOCK:   -0.67 KCAL/MOL
REMARK 927      BINDING AFFINITY PREDICTED BY RF-SCORE:    0.00 PKD
ROOT
HETATM    1  C   UNL     1      -6.127  10.472  70.447  1.00  0.00    -0.125 C  
HETATM    2  N   UNL     1      -6.740  11.645  69.884  1.00  0.00    -0.340 N  
HETATM    3  C   UNL     1      -6.181  12.896  70.030  1.00  0.00    -0.058 C  
HETATM    4  H   UNL     1      -7.611  11.548  69.362  1.00  0.00     0.000 HD 
HETATM    5  O   UNL     1      -5.139  13.105  70.640  1.00  0.00    -0.100 OA 
ENDROOT
BRANCH   3   6
HETATM    6  C   UNL     1      -6.923  13.969  69.383  1.00  0.00    -0.050 A  
HETATM    7  C   UNL     1      -7.748  13.903  68.279  1.00  0.00    -0.136 A  
HETATM    8  N   UNL     1      -8.208  15.178  68.013  1.00  0.00    -0.138 NA 
HETATM    9  N   UNL     1      -7.723  16.076  68.916  1.00  0.00    -0.182 NA 
HETATM   10  C   UNL     1      -6.965  15.340  69.735  1.00  0.00    -0.168 A  
BRANCH   8  11
HETATM   11  C   UNL     1      -9.029  15.535  66.883  1.00  0.00    -0.246 A  
HETATM   12  N   UNL     1      -9.597  14.538  66.158  1.00  0.00    -0.307 NA 
HETATM   13  C   UNL     1     -10.513  15.009  65.294  1.00  0.00    -0.403 A  
HETATM   14  C   UNL     1     -10.850  16.332  65.069  1.00  0.00    -0.320 A  
HETATM   15  N   UNL     1     -11.861  16.437  64.142  1.00  0.00    -0.874 NA 
HETATM   16  C   UNL     1     -10.136  17.290  65.799  1.00  0.00    -0.141 A  
HETATM   17  N   UNL     1     -10.323  18.658  65.649  1.00  0.00    -0.553 NA 
HETATM   18  N   UNL     1      -9.231  16.870  66.706  1.00  0.00    -0.237 NA 
HETATM   19  C   UNL     1     -12.167  15.195  63.840  1.00  0.00     0.118 A  
HETATM   20  H1  UNL     1      -9.804  19.355  66.180  1.00  0.00     0.000 HD 
HETATM   21  N   UNL     1     -11.347  14.292  64.476  1.00  0.00    -0.359 NA 
HETATM   22  H2  UNL     1     -11.316  18.846  65.790  1.00  0.00     0.000 HD 
BRANCH  21  23
HETATM   23  C1* UNL     1     -11.435  12.861  64.306  1.00  0.00    -0.377 C  
HETATM   24  O4* UNL     1     -12.357  12.343  65.282  1.00  0.00    -0.563 OA 
HETATM   25  C4* UNL     1     -11.616  11.644  66.303  1.00  0.00    -0.043 C  
HETATM   26  C3* UNL     1     -10.204  11.373  65.763  1.00  0.00    -0.248 C  
HETATM   27  H2* UNL     1      -9.241  10.668  63.348  1.00  0.00     0.000 HD 
HETATM   28  C2* UNL     1     -10.132  12.070  64.401  1.00  0.00    -0.271 C  
HETATM   29  O2* UNL     1     -10.051  11.160  63.289  1.00  0.00    -0.342 OA 
HETATM   30  O3* UNL     1      -9.945   9.969  65.632  1.00  0.00    -0.272 OA 
HETATM   31  H3* UNL     1      -9.072   9.802  65.299  1.00  0.00     0.000 HD 
BRANCH  25  32
HETATM   32  C5* UNL     1     -11.643  12.475  67.595  1.00  0.00    -0.355 C  
HETATM   33  O5* UNL     1     -12.503  13.605  67.432  1.00  0.00    -0.353 OA 
HETATM   34  H5* UNL     1     -12.520  14.119  68.231  1.00  0.00     0.000 HD 
ENDBRANCH  25  32
ENDBRANCH  21  23
ENDBRANCH   8  11
ENDBRANCH   3   6
TORSDOF 4
ENDMDL
MODEL       85
REMARK 921   NORMALIZED FREE ENERGY PREDICTED BY IDOCK:   -6.15 KCAL/MOL
REMARK 922        TOTAL FREE ENERGY PREDICTED BY IDOCK:   -8.11 KCAL/MOL
REMARK 923 INTER-LIGAND FREE ENERGY PREDICTED BY IDOCK:   -7.42 KCAL/MOL
REMARK 924 INTRA-LIGAND FREE ENERGY PREDICTED BY IDOCK:   -0.69 KCAL/MOL
REMARK 927      BINDING AFFINITY PREDICTED BY RF-SCORE:    0.00 PKD
ROOT
HETATM    1  C   UNL     1     -13.293  15.424  71.410  1.00  0.00    -0.519 C  
HETATM    2  N   UNL     1     -12.944  14.627  70.265  1.00  0.00    -0.566 N  
HETATM    3  C   UNL     1     -12.035  15.066  69.326  1.00  0.00    -0.289 C  
HETATM    4  H   UNL     1     -13.381  13.714  70.144  1.00  0.00     0.000 HD 
HETATM    5  O   UNL     1     -11.464  16.148  69.391  1.00  0.00    -0.328 OA 
ENDROOT
BRANCH   3   6
HETATM    6  C   UNL     1     -11.786  14.127  68.241  1.00  0.00    -0.391 A  
HETATM    7  C   UNL     1     -10.965  13.018  68.231  1.00  0.00    -0.260 A  
HETATM    8  N   UNL     1     -11.026  12.454  66.972  1.00  0.00    -0.250 NA 
HETATM    9  N   UNL     1     -11.873  13.148  66.160  1.00  0.00    -0.381 NA 
HETATM   10  C   UNL     1     -12.328  14.139  66.933  1.00  0.00    -0.258 A  
BRANCH   8  11
HETATM   11  C   UNL     1     -10.240  11.325  66.540  1.00  0.00    -0.228 A  
HETATM   12  N   UNL     1      -9.637  10.560  67.485  1.00  0.00    -0.159 NA 
HETATM   13  C   UNL     1      -9.142   9.422  66.965  1.00  0.00    -0.134 A  
HETATM   14  C   UNL     1      -9.152   9.035  65.637  1.00  0.00    -0.223 A  
HETATM   15  N   UNL     1      -8.594   7.788  65.477  1.00  0.00    -0.135 NA 
HETATM   16  C   UNL     1      -9.710   9.942  64.727  1.00  0.00    -0.235 A  
HETATM   17  N   UNL     1      -9.749   9.720  63.357  1.00  0.00    -0.467 NA 
HETATM   18  N   UNL     1     -10.254  11.081  65.201  1.00  0.00    -0.275 NA 
HETATM   19  C   UNL     1      -8.290   7.402  66.697  1.00  0.00    -0.124 A  
HETATM   20  H1  UNL     1     -10.156  10.380  62.694  1.00  0.00     0.000 HD 
HETATM   21  N   UNL     1      -8.559   8.375  67.629  1.00  0.00    -0.129 NA 
HETATM   22  H2  UNL     1     -10.204   8.820  63.207  1.00  0.00     0.000 HD 
BRANCH  21  23
HETATM   23  C1* UNL     1      -8.297   8.236  69.042  1.00  0.00    -0.120 C  
HETATM   24  O4* UNL     1      -8.330   6.837  69.376  1.00  0.00    -0.129 OA 
HETATM   25  C4* UNL     1      -9.539   6.559  70.112  1.00  0.00    -0.160 C  
HETATM   26  C3* UNL     1     -10.114   7.896  70.602  1.00  0.00    -0.194 C  
HETATM   27  H2* UNL     1      -9.006  10.155  71.564  1.00  0.00     0.000 HD 
HETATM   28  C2* UNL     1      -9.223   8.985  69.997  1.00  0.00    -0.180 C  
HETATM   29  O2* UNL     1      -8.429   9.689  70.969  1.00  0.00    -0.234 OA 
HETATM   30  O3* UNL     1     -10.121   7.979  72.034  1.00  0.00    -0.188 OA 
HETATM   31  H3* UNL     1     -10.477   8.806  72.336  1.00  0.00     0.000 HD 
BRANCH  25  32
HETATM   32  C5* UNL     1     -10.495   5.757  69.216  1.00  0.00    -0.287 C  
HETATM   33  O5* UNL     1     -11.500   6.620  68.678  1.00  0.00    -0.576 OA 
HETATM   34  H5* UNL     1     -12.091   6.124  68.124  1.00  0.00     0.000 HD 
ENDBRANCH  25  32
ENDBRANCH  21  23
ENDBRANCH   8  11
ENDBRANCH   3   6
TORSDOF 4
ENDMDL
MODEL       86
REMARK 921   NORMALIZED FREE ENERGY PREDICTED BY IDOCK:   -6.06 KCAL/MOL
REMARK 922        TOTAL FREE ENERGY PREDICTED BY IDOCK:   -7.98 KCAL/MOL
REMARK 923 INTER-LIGAND FREE ENERGY PREDICTED BY IDOCK:   -7.10 KCAL/MOL
REMARK 924 INTRA-LIGAND FREE ENERGY PREDICTED BY IDOCK:   -0.88 KCAL/MOL
REMARK 927      BINDING AFFINITY PREDICTED BY RF-SCORE:    0.00 PKD
ROOT
HETATM    1  C   UNL     1      -8.534  19.724  68.172  1.00  0.00    -0.286 C  
HETATM    2  N   UNL     1      -8.037  18.377  68.089  1.00  0.00    -0.281 N  
HETATM    3  C   UNL     1      -6.846  18.080  67.460  1.00  0.00    -0.190 C  
HETATM    4  H   UNL     1      -8.580  17.621  68.505  1.00  0.00     0.000 HD 
HETATM    5  O   UNL     1      -6.131  18.924  66.932  1.00  0.00    -0.169 OA 
ENDROOT
BRANCH   3   6
HETATM    6  C   UNL     1      -6.486  16.670  67.482  1.00  0.00    -0.183 A  
HETATM    7  C   UNL     1      -7.291  15.571  67.260  1.00  0.00    -0.214 A  
HETATM    8  N   UNL     1      -6.517  14.437  67.416  1.00  0.00    -0.303 NA 
HETATM    9  N   UNL     1      -5.227  14.757  67.716  1.00  0.00    -0.299 NA 
HETATM   10  C   UNL     1      -5.219  16.094  67.742  1.00  0.00    -0.131 A  
BRANCH   8  11
HETATM   11  C   UNL     1      -7.018  13.087  67.349  1.00  0.00    -0.116 A  
HETATM   12  N   UNL     1      -8.334  12.874  67.603  1.00  0.00    -0.163 NA 
HETATM   13  C   UNL     1      -8.709  11.624  67.278  1.00  0.00    -0.159 A  
HETATM   14  C   UNL     1      -7.904  10.606  66.797  1.00  0.00    -0.126 A  
HETATM   15  N   UNL     1      -8.638   9.474  66.533  1.00  0.00    -0.132 NA 
HETATM   16  C   UNL     1      -6.542  10.900  66.662  1.00  0.00    -0.120 A  
HETATM   17  N   UNL     1      -5.600   9.971  66.240  1.00  0.00    -0.055 NA 
HETATM   18  N   UNL     1      -6.119  12.150  66.940  1.00  0.00    -0.219 NA 
HETATM   19  C   UNL     1      -9.879   9.810  66.807  1.00  0.00    -0.208 A  
HETATM   20  H1  UNL     1      -4.608  10.185  66.141  1.00  0.00     0.000 HD 
HETATM   21  N   UNL     1      -9.970  11.088  67.307  1.00  0.00    -0.178 NA 
HETATM   22  H2  UNL     1      -5.920   9.599  65.346  1.00  0.00     0.000 HD 
BRANCH  21  23
HETATM   23  C1* UNL     1     -11.206  11.708  67.722  1.00  0.00    -0.268 C  
HETATM   24  O4* UNL     1     -11.992  11.985  66.549  1.00  0.00    -0.616 OA 
HETATM   25  C4* UNL     1     -11.979  13.405  66.300  1.00  0.00    -0.411 C  
HETATM   26  C3* UNL     1     -11.486  14.106  67.574  1.00  0.00    -0.340 C  
HETATM   27  H2* UNL     1     -11.896  13.685  70.204  1.00  0.00     0.000 HD 
HETATM   28  C2* UNL     1     -11.096  12.989  68.546  1.00  0.00    -0.266 C  
HETATM   29  O2* UNL     1     -11.964  12.888  69.691  1.00  0.00    -0.313 OA 
HETATM   30  O3* UNL     1     -12.499  14.947  68.144  1.00  0.00    -0.520 OA 
HETATM   31  H3* UNL     1     -12.194  15.381  68.932  1.00  0.00     0.000 HD 
BRANCH  25  32
HETATM   32  C5* UNL     1     -11.117  13.686  65.060  1.00  0.00    -0.332 C  
HETATM   33  O5* UNL     1      -9.853  14.224  65.453  1.00  0.00    -0.501 OA 
HETATM   34  H5* UNL     1      -9.320  14.397  64.687  1.00  0.00     0.000 HD 
ENDBRANCH  25  32
ENDBRANCH  21  23
ENDBRANCH   8  11
ENDBRANCH   3   6
TORSDOF 4
ENDMDL
MODEL       87
REMARK 921   NORMALIZED FREE ENERGY PREDICTED BY IDOCK:   -6.05 KCAL/MOL
REMARK 922        TOTAL FREE ENERGY PREDICTED BY IDOCK:   -7.98 KCAL/MOL
REMARK 923 INTER-LIGAND FREE ENERGY PREDICTED BY IDOCK:   -6.97 KCAL/MOL
REMARK 924 INTRA-LIGAND FREE ENERGY PREDICTED BY IDOCK:   -1.01 KCAL/MOL
REMARK 927      BINDING AFFINITY PREDICTED BY RF-SCORE:    0.00 PKD
ROOT
HETATM    1  C   UNL     1     -10.491  19.290  67.043  1.00  0.00    -0.456 C  
HETATM    2  N   UNL     1     -10.337  17.865  66.926  1.00  0.00    -0.354 N  
HETATM    3  C   UNL     1     -10.631  17.198  65.756  1.00  0.00    -0.195 C  
HETATM    4  H   UNL     1     -10.002  17.334  67.729  1.00  0.00     0.000 HD 
HETATM    5  O   UNL     1     -11.040  17.754  64.744  1.00  0.00    -0.852 OA 
ENDROOT
BRANCH   3   6
HETATM    6  C   UNL     1     -10.403  15.760  65.806  1.00  0.00    -0.390 A  
HETATM    7  C   UNL     1      -9.782  15.020  66.791  1.00  0.00    -0.241 A  
HETATM    8  N   UNL     1      -9.773  13.699  66.389  1.00  0.00    -0.289 NA 
HETATM    9  N   UNL     1     -10.382  13.546  65.180  1.00  0.00    -0.347 NA 
HETATM   10  C   UNL     1     -10.763  14.783  64.847  1.00  0.00    -0.417 A  
BRANCH   8  11
HETATM   11  C   UNL     1      -9.135  12.626  67.111  1.00  0.00    -0.210 A  
HETATM   12  N   UNL     1      -9.324  11.354  66.675  1.00  0.00    -0.180 NA 
HETATM   13  C   UNL     1      -8.494  10.489  67.285  1.00  0.00    -0.122 A  
HETATM   14  C   UNL     1      -7.578  10.770  68.283  1.00  0.00    -0.098 A  
HETATM   15  N   UNL     1      -6.870   9.646  68.640  1.00  0.00    -0.056 NA 
HETATM   16  C   UNL     1      -7.530  12.096  68.731  1.00  0.00    -0.075 A  
HETATM   17  N   UNL     1      -6.700  12.524  69.759  1.00  0.00    -0.354 NA 
HETATM   18  N   UNL     1      -8.316  13.011  68.128  1.00  0.00    -0.158 NA 
HETATM   19  C   UNL     1      -7.317   8.703  67.840  1.00  0.00    -0.092 A  
HETATM   20  H1  UNL     1      -6.665  13.490  70.085  1.00  0.00     0.000 HD 
HETATM   21  N   UNL     1      -8.335   9.152  67.032  1.00  0.00    -0.119 NA 
HETATM   22  H2  UNL     1      -5.748  12.252  69.515  1.00  0.00     0.000 HD 
BRANCH  21  23
HETATM   23  C1* UNL     1      -9.034   8.325  66.077  1.00  0.00    -0.181 C  
HETATM   24  O4* UNL     1     -10.389   8.154  66.529  1.00  0.00    -0.273 OA 
HETATM   25  C4* UNL     1     -10.555   6.807  67.019  1.00  0.00    -0.335 C  
HETATM   26  C3* UNL     1      -9.373   5.969  66.508  1.00  0.00    -0.152 C  
HETATM   27  H2* UNL     1      -8.016   5.892  64.183  1.00  0.00     0.000 HD 
HETATM   28  C2* UNL     1      -8.442   6.948  65.787  1.00  0.00    -0.146 C  
HETATM   29  O2* UNL     1      -8.384   6.749  64.363  1.00  0.00    -0.034 OA 
HETATM   30  O3* UNL     1      -9.804   4.927  65.621  1.00  0.00    -0.207 OA 
HETATM   31  H3* UNL     1      -9.073   4.409  65.306  1.00  0.00     0.000 HD 
BRANCH  25  32
HETATM   32  C5* UNL     1     -10.680   6.845  68.549  1.00  0.00    -0.207 C  
HETATM   33  O5* UNL     1     -10.952   8.179  68.985  1.00  0.00    -0.426 OA 
HETATM   34  H5* UNL     1     -11.030   8.203  69.931  1.00  0.00     0.000 HD 
ENDBRANCH  25  32
ENDBRANCH  21  23
ENDBRANCH   8  11
ENDBRANCH   3   6
TORSDOF 4
ENDMDL
MODEL       88
REMARK 921   NORMALIZED FREE ENERGY PREDICTED BY IDOCK:   -6.04 KCAL/MOL
REMARK 922        TOTAL FREE ENERGY PREDICTED BY IDOCK:   -7.96 KCAL/MOL
REMARK 923 INTER-LIGAND FREE ENERGY PREDICTED BY IDOCK:   -7.37 KCAL/MOL
REMARK 924 INTRA-LIGAND FREE ENERGY PREDICTED BY IDOCK:   -0.59 KCAL/MOL
REMARK 927      BINDING AFFINITY PREDICTED BY RF-SCORE:    0.00 PKD
ROOT
HETATM    1  C   UNL     1     -10.473  18.105  67.788  1.00  0.00    -0.404 C  
HETATM    2  N   UNL     1     -10.885  16.730  67.876  1.00  0.00    -0.339 N  
HETATM    3  C   UNL     1     -10.879  15.900  66.776  1.00  0.00    -0.228 C  
HETATM    4  H   UNL     1     -11.189  16.359  68.776  1.00  0.00     0.000 HD 
HETATM    5  O   UNL     1     -10.530  16.260  65.658  1.00  0.00    -0.359 OA 
ENDROOT
BRANCH   3   6
HETATM    6  C   UNL     1     -11.311  14.535  67.046  1.00  0.00    -0.359 A  
HETATM    7  C   UNL     1     -11.250  13.831  68.230  1.00  0.00    -0.273 A  
HETATM    8  N   UNL     1     -11.749  12.564  67.999  1.00  0.00    -0.346 NA 
HETATM    9  N   UNL     1     -12.149  12.419  66.703  1.00  0.00    -0.584 NA 
HETATM   10  C   UNL     1     -11.891  13.608  66.148  1.00  0.00    -0.392 A  
BRANCH   8  11
HETATM   11  C   UNL     1     -11.773  11.500  68.972  1.00  0.00    -0.335 A  
HETATM   12  N   UNL     1     -10.921  10.457  68.808  1.00  0.00    -0.231 NA 
HETATM   13  C   UNL     1     -10.884   9.668  69.897  1.00  0.00    -0.256 A  
HETATM   14  C   UNL     1     -11.631   9.800  71.053  1.00  0.00    -0.376 A  
HETATM   15  N   UNL     1     -11.298   8.835  71.975  1.00  0.00    -0.361 NA 
HETATM   16  C   UNL     1     -12.553  10.854  71.083  1.00  0.00    -0.428 A  
HETATM   17  N   UNL     1     -13.410  11.087  72.150  1.00  0.00    -0.585 NA 
HETATM   18  N   UNL     1     -12.606  11.697  70.031  1.00  0.00    -0.055 NA 
HETATM   19  C   UNL     1     -10.329   8.152  71.406  1.00  0.00    -0.208 A  
HETATM   20  H1  UNL     1     -14.081  11.855  72.171  1.00  0.00     0.000 HD 
HETATM   21  N   UNL     1     -10.073   8.587  70.127  1.00  0.00    -0.187 NA 
HETATM   22  H2  UNL     1     -12.836  11.163  72.990  1.00  0.00     0.000 HD 
BRANCH  21  23
HETATM   23  C1* UNL     1      -9.082   8.000  69.257  1.00  0.00    -0.148 C  
HETATM   24  O4* UNL     1      -8.102   7.331  70.070  1.00  0.00    -0.124 OA 
HETATM   25  C4* UNL     1      -6.882   8.100  70.064  1.00  0.00    -0.040 C  
HETATM   26  C3* UNL     1      -6.956   9.097  68.898  1.00  0.00    -0.064 C  
HETATM   27  H2* UNL     1      -7.908   8.947  66.382  1.00  0.00     0.000 HD 
HETATM   28  C2* UNL     1      -8.356   8.940  68.297  1.00  0.00    -0.125 C  
HETATM   29  O2* UNL     1      -8.359   8.363  66.979  1.00  0.00    -0.112 OA 
HETATM   30  O3* UNL     1      -5.947   8.840  67.912  1.00  0.00    -0.048 OA 
HETATM   31  H3* UNL     1      -5.993   9.457  67.192  1.00  0.00     0.000 HD 
BRANCH  25  32
HETATM   32  C5* UNL     1      -6.701   8.759  71.439  1.00  0.00    -0.081 C  
HETATM   33  O5* UNL     1      -6.347  10.135  71.280  1.00  0.00    -0.322 OA 
HETATM   34  H5* UNL     1      -6.235  10.542  72.131  1.00  0.00     0.000 HD 
ENDBRANCH  25  32
ENDBRANCH  21  23
ENDBRANCH   8  11
ENDBRANCH   3   6
TORSDOF 4
ENDMDL
MODEL       89
REMARK 921   NORMALIZED FREE ENERGY PREDICTED BY IDOCK:   -6.03 KCAL/MOL
REMARK 922        TOTAL FREE ENERGY PREDICTED BY IDOCK:   -7.95 KCAL/MOL
REMARK 923 INTER-LIGAND FREE ENERGY PREDICTED BY IDOCK:   -7.09 KCAL/MOL
REMARK 924 INTRA-LIGAND FREE ENERGY PREDICTED BY IDOCK:   -0.86 KCAL/MOL
REMARK 927      BINDING AFFINITY PREDICTED BY RF-SCORE:    0.00 PKD
ROOT
HETATM    1  C   UNL     1      -8.484   8.499  63.084  1.00  0.00    -0.056 C  
HETATM    2  N   UNL     1      -8.989   9.330  64.144  1.00  0.00    -0.408 N  
HETATM    3  C   UNL     1      -9.305  10.656  63.938  1.00  0.00    -0.267 C  
HETATM    4  H   UNL     1      -9.116   8.928  65.073  1.00  0.00     0.000 HD 
HETATM    5  O   UNL     1      -9.182  11.220  62.858  1.00  0.00    -0.320 OA 
ENDROOT
BRANCH   3   6
HETATM    6  C   UNL     1      -9.817  11.345  65.114  1.00  0.00    -0.302 A  
HETATM    7  C   UNL     1      -9.692  12.676  65.456  1.00  0.00    -0.096 A  
HETATM    8  N   UNL     1     -10.314  12.864  66.675  1.00  0.00    -0.248 NA 
HETATM    9  N   UNL     1     -10.857  11.702  67.136  1.00  0.00    -0.247 NA 
HETATM   10  C   UNL     1     -10.563  10.805  66.189  1.00  0.00    -0.175 A  
BRANCH   8  11
HETATM   11  C   UNL     1     -10.324  14.105  67.408  1.00  0.00    -0.256 A  
HETATM   12  N   UNL     1      -9.354  15.017  67.145  1.00  0.00    -0.208 NA 
HETATM   13  C   UNL     1      -9.618  16.205  67.719  1.00  0.00    -0.223 A  
HETATM   14  C   UNL     1     -10.687  16.521  68.538  1.00  0.00    -0.336 A  
HETATM   15  N   UNL     1     -10.657  17.845  68.908  1.00  0.00    -0.144 NA 
HETATM   16  C   UNL     1     -11.579  15.481  68.827  1.00  0.00    -0.378 A  
HETATM   17  N   UNL     1     -12.671  15.626  69.672  1.00  0.00    -0.530 NA 
HETATM   18  N   UNL     1     -11.381  14.279  68.248  1.00  0.00    -0.274 NA 
HETATM   19  C   UNL     1      -9.609  18.340  68.287  1.00  0.00    -0.318 A  
HETATM   20  H1  UNL     1     -13.321  14.869  69.883  1.00  0.00     0.000 HD 
HETATM   21  N   UNL     1      -8.918  17.376  67.591  1.00  0.00    -0.231 NA 
HETATM   22  H2  UNL     1     -13.223  16.410  69.324  1.00  0.00     0.000 HD 
BRANCH  21  23
HETATM   23  C1* UNL     1      -7.710  17.630  66.842  1.00  0.00    -0.216 C  
HETATM   24  O4* UNL     1      -6.583  17.286  67.668  1.00  0.00    -0.146 OA 
HETATM   25  C4* UNL     1      -5.934  18.497  68.106  1.00  0.00    -0.192 C  
HETATM   26  C3* UNL     1      -6.431  19.648  67.219  1.00  0.00    -0.194 C  
HETATM   27  H2* UNL     1      -6.997  19.861  64.594  1.00  0.00     0.000 HD 
HETATM   28  C2* UNL     1      -7.507  19.047  66.311  1.00  0.00    -0.269 C  
HETATM   29  O2* UNL     1      -7.123  18.979  64.925  1.00  0.00    -0.309 OA 
HETATM   30  O3* UNL     1      -5.369  20.219  66.443  1.00  0.00    -0.169 OA 
HETATM   31  H3* UNL     1      -5.676  20.931  65.895  1.00  0.00     0.000 HD 
BRANCH  25  32
HETATM   32  C5* UNL     1      -6.212  18.697  69.604  1.00  0.00    -0.240 C  
HETATM   33  O5* UNL     1      -6.854  19.956  69.819  1.00  0.00    -0.337 OA 
HETATM   34  H5* UNL     1      -7.026  20.080  70.745  1.00  0.00     0.000 HD 
ENDBRANCH  25  32
ENDBRANCH  21  23
ENDBRANCH   8  11
ENDBRANCH   3   6
TORSDOF 4
ENDMDL
MODEL       90
REMARK 921   NORMALIZED FREE ENERGY PREDICTED BY IDOCK:   -6.02 KCAL/MOL
REMARK 922        TOTAL FREE ENERGY PREDICTED BY IDOCK:   -7.93 KCAL/MOL
REMARK 923 INTER-LIGAND FREE ENERGY PREDICTED BY IDOCK:   -7.06 KCAL/MOL
REMARK 924 INTRA-LIGAND FREE ENERGY PREDICTED BY IDOCK:   -0.87 KCAL/MOL
REMARK 927      BINDING AFFINITY PREDICTED BY RF-SCORE:    0.00 PKD
ROOT
HETATM    1  C   UNL     1     -11.844  15.709  64.151  1.00  0.00    -0.068 C  
HETATM    2  N   UNL     1     -11.339  14.537  64.815  1.00  0.00    -0.420 N  
HETATM    3  C   UNL     1     -11.511  13.275  64.289  1.00  0.00    -0.396 C  
HETATM    4  H   UNL     1     -10.840  14.643  65.698  1.00  0.00     0.000 HD 
HETATM    5  O   UNL     1     -12.097  13.055  63.236  1.00  0.00    -0.569 OA 
ENDROOT
BRANCH   3   6
HETATM    6  C   UNL     1     -10.923  12.204  65.082  1.00  0.00    -0.355 A  
HETATM    7  C   UNL     1     -10.532  12.226  66.405  1.00  0.00    -0.236 A  
HETATM    8  N   UNL     1     -10.002  10.989  66.714  1.00  0.00    -0.197 NA 
HETATM    9  N   UNL     1     -10.047  10.150  65.640  1.00  0.00    -0.272 NA 
HETATM   10  C   UNL     1     -10.609  10.885  64.675  1.00  0.00    -0.262 A  
BRANCH   8  11
HETATM   11  C   UNL     1      -9.404  10.645  67.980  1.00  0.00    -0.147 A  
HETATM   12  N   UNL     1      -9.865   9.547  68.633  1.00  0.00    -0.158 NA 
HETATM   13  C   UNL     1      -9.072   9.212  69.666  1.00  0.00    -0.160 A  
HETATM   14  C   UNL     1      -7.946   9.883  70.110  1.00  0.00    -0.162 A  
HETATM   15  N   UNL     1      -7.361   9.227  71.167  1.00  0.00    -0.283 NA 
HETATM   16  C   UNL     1      -7.612  11.059  69.427  1.00  0.00    -0.054 A  
HETATM   17  N   UNL     1      -6.541  11.869  69.784  1.00  0.00    -0.310 NA 
HETATM   18  N   UNL     1      -8.353  11.421  68.360  1.00  0.00    -0.148 NA 
HETATM   19  C   UNL     1      -8.093   8.149  71.337  1.00  0.00    -0.115 A  
HETATM   20  H1  UNL     1      -6.298  12.725  69.287  1.00  0.00     0.000 HD 
HETATM   21  N   UNL     1      -9.170   8.116  70.483  1.00  0.00    -0.153 NA 
HETATM   22  H2  UNL     1      -5.708  11.281  69.801  1.00  0.00     0.000 HD 
BRANCH  21  23
HETATM   23  C1* UNL     1     -10.160   7.065  70.468  1.00  0.00    -0.191 C  
HETATM   24  O4* UNL     1     -11.450   7.658  70.237  1.00  0.00    -0.237 OA 
HETATM   25  C4* UNL     1     -12.207   7.629  71.464  1.00  0.00    -0.324 C  
HETATM   26  C3* UNL     1     -11.526   6.637  72.418  1.00  0.00    -0.262 C  
HETATM   27  H2* UNL     1     -10.331   4.247  72.072  1.00  0.00     0.000 HD 
HETATM   28  C2* UNL     1     -10.249   6.179  71.709  1.00  0.00    -0.202 C  
HETATM   29  O2* UNL     1     -10.276   4.799  71.301  1.00  0.00    -0.197 OA 
HETATM   30  O3* UNL     1     -12.373   5.518  72.716  1.00  0.00    -0.486 OA 
HETATM   31  H3* UNL     1     -11.952   4.905  73.307  1.00  0.00     0.000 HD 
BRANCH  25  32
HETATM   32  C5* UNL     1     -12.313   9.057  72.018  1.00  0.00    -0.384 C  
HETATM   33  O5* UNL     1     -12.129  10.006  70.964  1.00  0.00    -0.317 OA 
HETATM   34  H5* UNL     1     -12.195  10.889  71.307  1.00  0.00     0.000 HD 
ENDBRANCH  25  32
ENDBRANCH  21  23
ENDBRANCH   8  11
ENDBRANCH   3   6
TORSDOF 4
ENDMDL
MODEL       91
REMARK 921   NORMALIZED FREE ENERGY PREDICTED BY IDOCK:   -6.00 KCAL/MOL
REMARK 922        TOTAL FREE ENERGY PREDICTED BY IDOCK:   -7.92 KCAL/MOL
REMARK 923 INTER-LIGAND FREE ENERGY PREDICTED BY IDOCK:   -7.49 KCAL/MOL
REMARK 924 INTRA-LIGAND FREE ENERGY PREDICTED BY IDOCK:   -0.42 KCAL/MOL
REMARK 927      BINDING AFFINITY PREDICTED BY RF-SCORE:    0.00 PKD
ROOT
HETATM    1  C   UNL     1      -7.538   5.827  68.835  1.00  0.00    -0.089 C  
HETATM    2  N   UNL     1      -8.353   6.967  69.158  1.00  0.00    -0.125 N  
HETATM    3  C   UNL     1      -9.677   7.042  68.782  1.00  0.00    -0.143 C  
HETATM    4  H   UNL     1      -7.940   7.741  69.680  1.00  0.00     0.000 HD 
HETATM    5  O   UNL     1     -10.253   6.162  68.154  1.00  0.00    -0.144 OA 
ENDROOT
BRANCH   3   6
HETATM    6  C   UNL     1     -10.357   8.259  69.204  1.00  0.00    -0.225 A  
HETATM    7  C   UNL     1     -10.598   9.407  68.478  1.00  0.00    -0.197 A  
HETATM    8  N   UNL     1     -11.248  10.305  69.303  1.00  0.00    -0.236 NA 
HETATM    9  N   UNL     1     -11.455   9.776  70.542  1.00  0.00    -0.281 NA 
HETATM   10  C   UNL     1     -10.927   8.550  70.466  1.00  0.00    -0.241 A  
BRANCH   8  11
HETATM   11  C   UNL     1     -11.595  11.655  68.936  1.00  0.00    -0.314 A  
HETATM   12  N   UNL     1     -11.614  12.602  69.907  1.00  0.00    -0.229 NA 
HETATM   13  C   UNL     1     -11.719  13.841  69.394  1.00  0.00    -0.325 A  
HETATM   14  C   UNL     1     -11.856  14.187  68.061  1.00  0.00    -0.365 A  
HETATM   15  N   UNL     1     -11.892  15.552  67.902  1.00  0.00    -0.145 NA 
HETATM   16  C   UNL     1     -11.924  13.129  67.147  1.00  0.00    -0.341 A  
HETATM   17  N   UNL     1     -12.111  13.311  65.783  1.00  0.00    -0.416 NA 
HETATM   18  N   UNL     1     -11.788  11.868  67.605  1.00  0.00    -0.583 NA 
HETATM   19  C   UNL     1     -11.734  16.033  69.116  1.00  0.00    -0.307 A  
HETATM   20  H1  UNL     1     -12.160  12.540  65.117  1.00  0.00     0.000 HD 
HETATM   21  N   UNL     1     -11.672  15.037  70.062  1.00  0.00    -0.285 NA 
HETATM   22  H2  UNL     1     -11.382  13.946  65.458  1.00  0.00     0.000 HD 
BRANCH  21  23
HETATM   23  C1* UNL     1     -11.532  15.275  71.479  1.00  0.00    -0.396 C  
HETATM   24  O4* UNL     1     -11.914  14.079  72.181  1.00  0.00     0.082 OA 
HETATM   25  C4* UNL     1     -13.195  14.292  72.809  1.00  0.00    -0.522 C  
HETATM   26  C3* UNL     1     -13.466  15.804  72.832  1.00  0.00    -0.580 C  
HETATM   27  H2* UNL     1     -11.914  17.964  73.259  1.00  0.00     0.000 HD 
HETATM   28  C2* UNL     1     -12.310  16.451  72.065  1.00  0.00    -0.094 C  
HETATM   29  O2* UNL     1     -11.430  17.232  72.894  1.00  0.00     0.247 OA 
HETATM   30  O3* UNL     1     -13.536  16.311  74.172  1.00  0.00    -0.786 OA 
HETATM   31  H3* UNL     1     -13.704  17.246  74.186  1.00  0.00     0.000 HD 
BRANCH  25  32
HETATM   32  C5* UNL     1     -14.259  13.477  72.059  1.00  0.00    -0.208 C  
HETATM   33  O5* UNL     1     -14.159  12.096  72.414  1.00  0.00    -0.241 OA 
HETATM   34  H5* UNL     1     -14.817  11.592  71.950  1.00  0.00     0.000 HD 
ENDBRANCH  25  32
ENDBRANCH  21  23
ENDBRANCH   8  11
ENDBRANCH   3   6
TORSDOF 4
ENDMDL
MODEL       92
REMARK 921   NORMALIZED FREE ENERGY PREDICTED BY IDOCK:   -5.99 KCAL/MOL
REMARK 922        TOTAL FREE ENERGY PREDICTED BY IDOCK:   -7.91 KCAL/MOL
REMARK 923 INTER-LIGAND FREE ENERGY PREDICTED BY IDOCK:   -7.34 KCAL/MOL
REMARK 924 INTRA-LIGAND FREE ENERGY PREDICTED BY IDOCK:   -0.56 KCAL/MOL
REMARK 927      BINDING AFFINITY PREDICTED BY RF-SCORE:    0.00 PKD
ROOT
HETATM    1  C   UNL     1     -10.347   7.265  72.369  1.00  0.00    -0.208 C  
HETATM    2  N   UNL     1     -10.589   8.525  71.720  1.00  0.00    -0.274 N  
HETATM    3  C   UNL     1     -11.785   8.798  71.091  1.00  0.00    -0.291 C  
HETATM    4  H   UNL     1      -9.857   9.235  71.724  1.00  0.00     0.000 HD 
HETATM    5  O   UNL     1     -12.717   8.005  71.035  1.00  0.00    -0.185 OA 
ENDROOT
BRANCH   3   6
HETATM    6  C   UNL     1     -11.867  10.126  70.499  1.00  0.00    -0.408 A  
HETATM    7  C   UNL     1     -11.785  10.483  69.168  1.00  0.00    -0.189 A  
HETATM    8  N   UNL     1     -11.886  11.858  69.089  1.00  0.00    -0.311 NA 
HETATM    9  N   UNL     1     -12.048  12.414  70.323  1.00  0.00    -0.341 NA 
HETATM   10  C   UNL     1     -12.045  11.368  71.155  1.00  0.00    -0.092 A  
BRANCH   8  11
HETATM   11  C   UNL     1     -11.758  12.622  67.872  1.00  0.00    -0.358 A  
HETATM   12  N   UNL     1     -11.422  13.933  67.967  1.00  0.00    -0.288 NA 
HETATM   13  C   UNL     1     -11.110  14.456  66.768  1.00  0.00    -0.323 A  
HETATM   14  C   UNL     1     -11.159  13.822  65.539  1.00  0.00    -0.298 A  
HETATM   15  N   UNL     1     -10.728  14.653  64.532  1.00  0.00    -0.258 NA 
HETATM   16  C   UNL     1     -11.614  12.497  65.539  1.00  0.00    -0.386 A  
HETATM   17  N   UNL     1     -11.766  11.744  64.382  1.00  0.00    -0.264 NA 
HETATM   18  N   UNL     1     -11.905  11.914  66.719  1.00  0.00    -0.607 NA 
HETATM   19  C   UNL     1     -10.379  15.764  65.143  1.00  0.00    -0.299 A  
HETATM   20  H1  UNL     1     -12.097  10.780  64.382  1.00  0.00     0.000 HD 
HETATM   21  N   UNL     1     -10.635  15.712  66.493  1.00  0.00    -0.305 NA 
HETATM   22  H2  UNL     1     -10.873  11.758  63.890  1.00  0.00     0.000 HD 
BRANCH  21  23
HETATM   23  C1* UNL     1     -10.380  16.801  67.407  1.00  0.00    -0.302 C  
HETATM   24  O4* UNL     1      -9.571  17.780  66.732  1.00  0.00    -0.277 OA 
HETATM   25  C4* UNL     1      -8.229  17.725  67.258  1.00  0.00    -0.215 C  
HETATM   26  C3* UNL     1      -8.272  16.949  68.584  1.00  0.00    -0.254 C  
HETATM   27  H2* UNL     1     -10.019  16.865  70.633  1.00  0.00     0.000 HD 
HETATM   28  C2* UNL     1      -9.712  16.451  68.734  1.00  0.00    -0.250 C  
HETATM   29  O2* UNL     1     -10.434  17.083  69.807  1.00  0.00    -0.203 OA 
HETATM   30  O3* UNL     1      -7.899  17.775  69.695  1.00  0.00     0.366 OA 
HETATM   31  H3* UNL     1      -7.925  17.295  70.514  1.00  0.00     0.000 HD 
BRANCH  25  32
HETATM   32  C5* UNL     1      -7.304  17.105  66.201  1.00  0.00    -0.246 C  
HETATM   33  O5* UNL     1      -6.314  16.291  66.833  1.00  0.00    -0.277 OA 
HETATM   34  H5* UNL     1      -5.742  15.907  66.179  1.00  0.00     0.000 HD 
ENDBRANCH  25  32
ENDBRANCH  21  23
ENDBRANCH   8  11
ENDBRANCH   3   6
TORSDOF 4
ENDMDL
MODEL       93
REMARK 921   NORMALIZED FREE ENERGY PREDICTED BY IDOCK:   -5.99 KCAL/MOL
REMARK 922        TOTAL FREE ENERGY PREDICTED BY IDOCK:   -7.90 KCAL/MOL
REMARK 923 INTER-LIGAND FREE ENERGY PREDICTED BY IDOCK:   -7.33 KCAL/MOL
REMARK 924 INTRA-LIGAND FREE ENERGY PREDICTED BY IDOCK:   -0.57 KCAL/MOL
REMARK 927      BINDING AFFINITY PREDICTED BY RF-SCORE:    0.00 PKD
ROOT
HETATM    1  C   UNL     1     -10.916   5.656  69.917  1.00  0.00    -0.239 C  
HETATM    2  N   UNL     1     -11.228   7.041  69.689  1.00  0.00    -0.454 N  
HETATM    3  C   UNL     1     -10.703   8.042  70.478  1.00  0.00    -0.229 C  
HETATM    4  H   UNL     1     -11.854   7.290  68.924  1.00  0.00     0.000 HD 
HETATM    5  O   UNL     1      -9.945   7.835  71.419  1.00  0.00    -0.177 OA 
ENDROOT
BRANCH   3   6
HETATM    6  C   UNL     1     -11.110   9.388  70.099  1.00  0.00    -0.277 A  
HETATM    7  C   UNL     1     -10.973  10.018  68.879  1.00  0.00    -0.207 A  
HETATM    8  N   UNL     1     -11.477  11.298  69.001  1.00  0.00    -0.271 NA 
HETATM    9  N   UNL     1     -11.956  11.523  70.257  1.00  0.00    -0.355 NA 
HETATM   10  C   UNL     1     -11.740  10.370  70.900  1.00  0.00    -0.360 A  
BRANCH   8  11
HETATM   11  C   UNL     1     -11.436  12.299  67.964  1.00  0.00    -0.321 A  
HETATM   12  N   UNL     1     -10.520  13.296  68.067  1.00  0.00    -0.236 NA 
HETATM   13  C   UNL     1     -10.434  14.013  66.932  1.00  0.00    -0.276 A  
HETATM   14  C   UNL     1     -11.189  13.857  65.783  1.00  0.00    -0.303 A  
HETATM   15  N   UNL     1     -10.796  14.741  64.806  1.00  0.00    -0.399 NA 
HETATM   16  C   UNL     1     -12.175  12.863  65.815  1.00  0.00    -0.439 A  
HETATM   17  N   UNL     1     -13.045  12.618  64.761  1.00  0.00    -0.848 NA 
HETATM   18  N   UNL     1     -12.279  12.091  66.916  1.00  0.00    -0.351 NA 
HETATM   19  C   UNL     1      -9.786  15.395  65.335  1.00  0.00    -0.279 A  
HETATM   20  H1  UNL     1     -13.762  11.894  64.784  1.00  0.00     0.000 HD 
HETATM   21  N   UNL     1      -9.557  15.024  66.639  1.00  0.00    -0.249 NA 
HETATM   22  H2  UNL     1     -12.477  12.455  63.930  1.00  0.00     0.000 HD 
BRANCH  21  23
HETATM   23  C1* UNL     1      -8.531  15.601  67.475  1.00  0.00    -0.167 C  
HETATM   24  O4* UNL     1      -7.249  15.160  66.992  1.00  0.00    -0.170 OA 
HETATM   25  C4* UNL     1      -6.710  14.188  67.912  1.00  0.00    -0.167 C  
HETATM   26  C3* UNL     1      -7.495  14.293  69.228  1.00  0.00    -0.022 C  
HETATM   27  H2* UNL     1      -8.500  16.361  70.632  1.00  0.00     0.000 HD 
HETATM   28  C2* UNL     1      -8.612  15.310  68.972  1.00  0.00    -0.226 C  
HETATM   29  O2* UNL     1      -8.450  16.541  69.700  1.00  0.00     0.127 OA 
HETATM   30  O3* UNL     1      -6.660  14.715  70.314  1.00  0.00    -0.214 OA 
HETATM   31  H3* UNL     1      -7.145  14.780  71.127  1.00  0.00     0.000 HD 
BRANCH  25  32
HETATM   32  C5* UNL     1      -6.767  12.799  67.259  1.00  0.00    -0.082 C  
HETATM   33  O5* UNL     1      -8.056  12.214  67.464  1.00  0.00    -0.143 OA 
HETATM   34  H5* UNL     1      -8.091  11.355  67.060  1.00  0.00     0.000 HD 
ENDBRANCH  25  32
ENDBRANCH  21  23
ENDBRANCH   8  11
ENDBRANCH   3   6
TORSDOF 4
ENDMDL
MODEL       94
REMARK 921   NORMALIZED FREE ENERGY PREDICTED BY IDOCK:   -5.99 KCAL/MOL
REMARK 922        TOTAL FREE ENERGY PREDICTED BY IDOCK:   -7.90 KCAL/MOL
REMARK 923 INTER-LIGAND FREE ENERGY PREDICTED BY IDOCK:   -7.28 KCAL/MOL
REMARK 924 INTRA-LIGAND FREE ENERGY PREDICTED BY IDOCK:   -0.63 KCAL/MOL
REMARK 927      BINDING AFFINITY PREDICTED BY RF-SCORE:    0.00 PKD
ROOT
HETATM    1  C   UNL     1      -9.089  17.955  66.051  1.00  0.00     0.009 C  
HETATM    2  N   UNL     1      -9.713  16.661  66.110  1.00  0.00    -0.301 N  
HETATM    3  C   UNL     1     -10.739  16.311  65.259  1.00  0.00    -0.332 C  
HETATM    4  H   UNL     1      -9.387  15.983  66.799  1.00  0.00     0.000 HD 
HETATM    5  O   UNL     1     -11.194  17.060  64.403  1.00  0.00    -1.167 OA 
ENDROOT
BRANCH   3   6
HETATM    6  C   UNL     1     -11.244  14.957  65.445  1.00  0.00    -0.359 A  
HETATM    7  C   UNL     1     -10.807  13.988  66.324  1.00  0.00    -0.291 A  
HETATM    8  N   UNL     1     -11.567  12.853  66.120  1.00  0.00    -0.352 NA 
HETATM    9  N   UNL     1     -12.500  13.052  65.145  1.00  0.00    -0.485 NA 
HETATM   10  C   UNL     1     -12.302  14.316  64.758  1.00  0.00    -0.426 A  
BRANCH   8  11
HETATM   11  C   UNL     1     -11.358  11.593  66.789  1.00  0.00    -0.286 A  
HETATM   12  N   UNL     1     -10.399  10.761  66.310  1.00  0.00    -0.248 NA 
HETATM   13  C   UNL     1     -10.152   9.745  67.156  1.00  0.00    -0.211 A  
HETATM   14  C   UNL     1     -10.792   9.478  68.353  1.00  0.00    -0.137 A  
HETATM   15  N   UNL     1     -10.247   8.378  68.975  1.00  0.00    -0.204 NA 
HETATM   16  C   UNL     1     -11.835  10.342  68.710  1.00  0.00     0.073 A  
HETATM   17  N   UNL     1     -12.604  10.178  69.854  1.00  0.00    -0.519 NA 
HETATM   18  N   UNL     1     -12.099  11.399  67.914  1.00  0.00    -0.621 NA 
HETATM   19  C   UNL     1      -9.260   8.008  68.190  1.00  0.00    -0.133 A  
HETATM   20  H1  UNL     1     -13.363  10.807  70.113  1.00  0.00     0.000 HD 
HETATM   21  N   UNL     1      -9.190   8.775  67.051  1.00  0.00    -0.138 NA 
HETATM   22  H2  UNL     1     -11.964  10.131  70.646  1.00  0.00     0.000 HD 
BRANCH  21  23
HETATM   23  C1* UNL     1      -8.223   8.573  65.998  1.00  0.00    -0.118 C  
HETATM   24  O4* UNL     1      -6.908   8.782  66.542  1.00  0.00    -0.070 OA 
HETATM   25  C4* UNL     1      -6.391  10.036  66.052  1.00  0.00    -0.087 C  
HETATM   26  C3* UNL     1      -7.244  10.463  64.849  1.00  0.00    -0.051 C  
HETATM   27  H2* UNL     1      -8.372   9.124  62.802  1.00  0.00     0.000 HD 
HETATM   28  C2* UNL     1      -8.372   9.432  64.745  1.00  0.00    -0.154 C  
HETATM   29  O2* UNL     1      -8.280   8.589  63.582  1.00  0.00    -0.164 OA 
HETATM   30  O3* UNL     1      -6.476  10.502  63.639  1.00  0.00    -0.317 OA 
HETATM   31  H3* UNL     1      -7.004  10.767  62.895  1.00  0.00     0.000 HD 
BRANCH  25  32
HETATM   32  C5* UNL     1      -6.379  11.054  67.203  1.00  0.00    -0.076 C  
HETATM   33  O5* UNL     1      -7.718  11.386  67.576  1.00  0.00    -0.114 OA 
HETATM   34  H5* UNL     1      -7.711  12.015  68.288  1.00  0.00     0.000 HD 
ENDBRANCH  25  32
ENDBRANCH  21  23
ENDBRANCH   8  11
ENDBRANCH   3   6
TORSDOF 4
ENDMDL
MODEL       95
REMARK 921   NORMALIZED FREE ENERGY PREDICTED BY IDOCK:   -5.98 KCAL/MOL
REMARK 922        TOTAL FREE ENERGY PREDICTED BY IDOCK:   -7.89 KCAL/MOL
REMARK 923 INTER-LIGAND FREE ENERGY PREDICTED BY IDOCK:   -7.28 KCAL/MOL
REMARK 924 INTRA-LIGAND FREE ENERGY PREDICTED BY IDOCK:   -0.61 KCAL/MOL
REMARK 927      BINDING AFFINITY PREDICTED BY RF-SCORE:    0.00 PKD
ROOT
HETATM    1  C   UNL     1      -5.834   8.328  70.767  1.00  0.00    -0.032 C  
HETATM    2  N   UNL     1      -6.442   8.865  69.579  1.00  0.00    -0.043 N  
HETATM    3  C   UNL     1      -6.870   8.051  68.552  1.00  0.00    -0.067 C  
HETATM    4  H   UNL     1      -6.560   9.874  69.494  1.00  0.00     0.000 HD 
HETATM    5  O   UNL     1      -6.767   6.830  68.568  1.00  0.00    -0.059 OA 
ENDROOT
BRANCH   3   6
HETATM    6  C   UNL     1      -7.476   8.759  67.432  1.00  0.00    -0.089 A  
HETATM    7  C   UNL     1      -8.346   9.829  67.459  1.00  0.00    -0.114 A  
HETATM    8  N   UNL     1      -8.677  10.142  66.155  1.00  0.00    -0.139 NA 
HETATM    9  N   UNL     1      -8.038   9.322  65.272  1.00  0.00    -0.116 NA 
HETATM   10  C   UNL     1      -7.316   8.507  66.049  1.00  0.00    -0.081 A  
BRANCH   8  11
HETATM   11  C   UNL     1      -9.632  11.151  65.769  1.00  0.00    -0.221 A  
HETATM   12  N   UNL     1      -9.623  12.334  66.435  1.00  0.00    -0.233 NA 
HETATM   13  C   UNL     1     -10.392  13.255  65.826  1.00  0.00    -0.288 A  
HETATM   14  C   UNL     1     -11.171  13.080  64.697  1.00  0.00    -0.326 A  
HETATM   15  N   UNL     1     -11.790  14.254  64.332  1.00  0.00    -0.433 NA 
HETATM   16  C   UNL     1     -11.187  11.795  64.142  1.00  0.00    -0.364 A  
HETATM   17  N   UNL     1     -11.958  11.449  63.040  1.00  0.00    -0.867 NA 
HETATM   18  N   UNL     1     -10.405  10.843  64.693  1.00  0.00    -0.337 NA 
HETATM   19  C   UNL     1     -11.358  15.141  65.201  1.00  0.00    -0.357 A  
HETATM   20  H1  UNL     1     -11.969  10.513  62.636  1.00  0.00     0.000 HD 
HETATM   21  N   UNL     1     -10.545  14.576  66.156  1.00  0.00    -0.298 NA 
HETATM   22  H2  UNL     1     -11.724  12.100  62.290  1.00  0.00     0.000 HD 
BRANCH  21  23
HETATM   23  C1* UNL     1      -9.954  15.308  67.251  1.00  0.00    -0.226 C  
HETATM   24  O4* UNL     1      -9.780  14.408  68.359  1.00  0.00    -0.214 OA 
HETATM   25  C4* UNL     1     -10.757  14.718  69.374  1.00  0.00    -0.239 C  
HETATM   26  C3* UNL     1     -11.326  16.113  69.074  1.00  0.00    -0.340 C  
HETATM   27  H2* UNL     1     -10.241  18.408  68.173  1.00  0.00     0.000 HD 
HETATM   28  C2* UNL     1     -10.703  16.545  67.743  1.00  0.00    -0.329 C  
HETATM   29  O2* UNL     1      -9.776  17.639  67.866  1.00  0.00    -0.278 OA 
HETATM   30  O3* UNL     1     -11.012  17.051  70.112  1.00  0.00    -0.361 OA 
HETATM   31  H3* UNL     1     -11.364  17.913  69.926  1.00  0.00     0.000 HD 
BRANCH  25  32
HETATM   32  C5* UNL     1     -11.814  13.605  69.406  1.00  0.00    -0.339 C  
HETATM   33  O5* UNL     1     -11.277  12.438  70.033  1.00  0.00    -0.492 OA 
HETATM   34  H5* UNL     1     -11.931  11.749  70.053  1.00  0.00     0.000 HD 
ENDBRANCH  25  32
ENDBRANCH  21  23
ENDBRANCH   8  11
ENDBRANCH   3   6
TORSDOF 4
ENDMDL
MODEL       96
REMARK 921   NORMALIZED FREE ENERGY PREDICTED BY IDOCK:   -5.93 KCAL/MOL
REMARK 922        TOTAL FREE ENERGY PREDICTED BY IDOCK:   -7.83 KCAL/MOL
REMARK 923 INTER-LIGAND FREE ENERGY PREDICTED BY IDOCK:   -6.88 KCAL/MOL
REMARK 924 INTRA-LIGAND FREE ENERGY PREDICTED BY IDOCK:   -0.95 KCAL/MOL
REMARK 927      BINDING AFFINITY PREDICTED BY RF-SCORE:    0.00 PKD
ROOT
HETATM    1  C   UNL     1      -7.273   4.784  65.447  1.00  0.00    -0.071 C  
HETATM    2  N   UNL     1      -8.062   5.610  66.321  1.00  0.00    -0.105 N  
HETATM    3  C   UNL     1      -8.547   6.836  65.919  1.00  0.00    -0.147 C  
HETATM    4  H   UNL     1      -8.269   5.279  67.264  1.00  0.00     0.000 HD 
HETATM    5  O   UNL     1      -8.346   7.311  64.807  1.00  0.00    -0.093 OA 
ENDROOT
BRANCH   3   6
HETATM    6  C   UNL     1      -9.339   7.532  66.923  1.00  0.00    -0.197 A  
HETATM    7  C   UNL     1      -9.585   8.885  67.041  1.00  0.00    -0.176 A  
HETATM    8  N   UNL     1     -10.364   9.080  68.165  1.00  0.00    -0.208 NA 
HETATM    9  N   UNL     1     -10.651   7.897  68.779  1.00  0.00    -0.172 NA 
HETATM   10  C   UNL     1     -10.042   6.980  68.021  1.00  0.00    -0.169 A  
BRANCH   8  11
HETATM   11  C   UNL     1     -10.761  10.369  68.675  1.00  0.00    -0.218 A  
HETATM   12  N   UNL     1     -10.412  11.476  67.970  1.00  0.00    -0.183 NA 
HETATM   13  C   UNL     1     -11.040  12.575  68.426  1.00  0.00    -0.258 A  
HETATM   14  C   UNL     1     -11.900  12.661  69.506  1.00  0.00    -0.312 A  
HETATM   15  N   UNL     1     -12.389  13.938  69.653  1.00  0.00    -0.306 NA 
HETATM   16  C   UNL     1     -12.117  11.480  70.226  1.00  0.00    -0.359 A  
HETATM   17  N   UNL     1     -12.912  11.415  71.363  1.00  0.00    -0.412 NA 
HETATM   18  N   UNL     1     -11.540  10.341  69.791  1.00  0.00    -0.244 NA 
HETATM   19  C   UNL     1     -11.870  14.610  68.649  1.00  0.00    -0.311 A  
HETATM   20  H1  UNL     1     -13.070  10.555  71.887  1.00  0.00     0.000 HD 
HETATM   21  N   UNL     1     -11.008  13.841  67.903  1.00  0.00    -0.248 NA 
HETATM   22  H2  UNL     1     -13.827  11.792  71.116  1.00  0.00     0.000 HD 
BRANCH  21  23
HETATM   23  C1* UNL     1     -10.273  14.328  66.760  1.00  0.00    -0.272 C  
HETATM   24  O4* UNL     1      -8.888  13.974  66.926  1.00  0.00    -0.226 OA 
HETATM   25  C4* UNL     1      -8.136  15.162  67.249  1.00  0.00    -0.201 C  
HETATM   26  C3* UNL     1      -9.002  16.381  66.900  1.00  0.00    -0.216 C  
HETATM   27  H2* UNL     1     -10.695  16.942  64.881  1.00  0.00     0.000 HD 
HETATM   28  C2* UNL     1     -10.360  15.823  66.464  1.00  0.00    -0.294 C  
HETATM   29  O2* UNL     1     -10.641  16.012  65.065  1.00  0.00    -0.551 OA 
HETATM   30  O3* UNL     1      -8.415  17.169  65.855  1.00  0.00    -0.529 OA 
HETATM   31  H3* UNL     1      -8.951  17.923  65.640  1.00  0.00     0.000 HD 
BRANCH  25  32
HETATM   32  C5* UNL     1      -7.712  15.097  68.723  1.00  0.00    -0.143 C  
HETATM   33  O5* UNL     1      -8.739  15.647  69.553  1.00  0.00    -0.260 OA 
HETATM   34  H5* UNL     1      -8.476  15.607  70.465  1.00  0.00     0.000 HD 
ENDBRANCH  25  32
ENDBRANCH  21  23
ENDBRANCH   8  11
ENDBRANCH   3   6
TORSDOF 4
ENDMDL
MODEL       97
REMARK 921   NORMALIZED FREE ENERGY PREDICTED BY IDOCK:   -5.92 KCAL/MOL
REMARK 922        TOTAL FREE ENERGY PREDICTED BY IDOCK:   -7.82 KCAL/MOL
REMARK 923 INTER-LIGAND FREE ENERGY PREDICTED BY IDOCK:   -7.30 KCAL/MOL
REMARK 924 INTRA-LIGAND FREE ENERGY PREDICTED BY IDOCK:   -0.51 KCAL/MOL
REMARK 927      BINDING AFFINITY PREDICTED BY RF-SCORE:    0.00 PKD
ROOT
HETATM    1  C   UNL     1      -8.486   8.492  63.109  1.00  0.00    -0.056 C  
HETATM    2  N   UNL     1      -9.062   9.031  64.312  1.00  0.00    -0.407 N  
HETATM    3  C   UNL     1      -9.495  10.337  64.386  1.00  0.00    -0.302 C  
HETATM    4  H   UNL     1      -9.153   8.430  65.131  1.00  0.00     0.000 HD 
HETATM    5  O   UNL     1      -9.424  11.128  63.453  1.00  0.00    -0.255 OA 
ENDROOT
BRANCH   3   6
HETATM    6  C   UNL     1     -10.067  10.712  65.672  1.00  0.00    -0.335 A  
HETATM    7  C   UNL     1     -10.086  11.952  66.277  1.00  0.00    -0.220 A  
HETATM    8  N   UNL     1     -10.711  11.819  67.502  1.00  0.00    -0.213 NA 
HETATM    9  N   UNL     1     -11.116  10.534  67.713  1.00  0.00    -0.309 NA 
HETATM   10  C   UNL     1     -10.734   9.886  66.608  1.00  0.00    -0.046 A  
BRANCH   8  11
HETATM   11  C   UNL     1     -10.850  12.877  68.472  1.00  0.00    -0.257 A  
HETATM   12  N   UNL     1     -10.018  13.945  68.385  1.00  0.00    -0.230 NA 
HETATM   13  C   UNL     1     -10.408  14.948  69.191  1.00  0.00    -0.245 A  
HETATM   14  C   UNL     1     -11.474  14.949  70.072  1.00  0.00    -0.278 A  
HETATM   15  N   UNL     1     -11.599  16.165  70.702  1.00  0.00    -0.367 NA 
HETATM   16  C   UNL     1     -12.212  13.762  70.158  1.00  0.00    -0.356 A  
HETATM   17  N   UNL     1     -13.279  13.589  71.031  1.00  0.00    -0.147 NA 
HETATM   18  N   UNL     1     -11.885  12.737  69.345  1.00  0.00    -0.307 NA 
HETATM   19  C   UNL     1     -10.650  16.909  70.180  1.00  0.00     0.188 A  
HETATM   20  H1  UNL     1     -13.816  12.724  71.093  1.00  0.00     0.000 HD 
HETATM   21  N   UNL     1      -9.870  16.205  69.293  1.00  0.00    -0.246 NA 
HETATM   22  H2  UNL     1     -13.940  14.345  70.856  1.00  0.00     0.000 HD 
BRANCH  21  23
HETATM   23  C1* UNL     1      -8.737  16.762  68.594  1.00  0.00    -0.255 C  
HETATM   24  O4* UNL     1      -8.628  18.154  68.940  1.00  0.00    -0.235 OA 
HETATM   25  C4* UNL     1      -9.043  18.953  67.813  1.00  0.00    -0.290 C  
HETATM   26  C3* UNL     1      -9.053  18.050  66.571  1.00  0.00    -0.269 C  
HETATM   27  H2* UNL     1      -7.444  16.074  65.696  1.00  0.00     0.000 HD 
HETATM   28  C2* UNL     1      -8.731  16.639  67.072  1.00  0.00    -0.200 C  
HETATM   29  O2* UNL     1      -7.447  16.151  66.643  1.00  0.00    -0.228 OA 
HETATM   30  O3* UNL     1      -8.091  18.476  65.596  1.00  0.00    -0.445 OA 
HETATM   31  H3* UNL     1      -8.097  17.918  64.828  1.00  0.00     0.000 HD 
BRANCH  25  32
HETATM   32  C5* UNL     1     -10.402  19.594  68.131  1.00  0.00    -0.438 C  
HETATM   33  O5* UNL     1     -10.378  20.169  69.439  1.00  0.00    -0.557 OA 
HETATM   34  H5* UNL     1     -11.218  20.566  69.636  1.00  0.00     0.000 HD 
ENDBRANCH  25  32
ENDBRANCH  21  23
ENDBRANCH   8  11
ENDBRANCH   3   6
TORSDOF 4
ENDMDL
MODEL       98
REMARK 921   NORMALIZED FREE ENERGY PREDICTED BY IDOCK:   -5.90 KCAL/MOL
REMARK 922        TOTAL FREE ENERGY PREDICTED BY IDOCK:   -7.79 KCAL/MOL
REMARK 923 INTER-LIGAND FREE ENERGY PREDICTED BY IDOCK:   -6.97 KCAL/MOL
REMARK 924 INTRA-LIGAND FREE ENERGY PREDICTED BY IDOCK:   -0.82 KCAL/MOL
REMARK 927      BINDING AFFINITY PREDICTED BY RF-SCORE:    0.00 PKD
ROOT
HETATM    1  C   UNL     1      -8.959   4.666  63.368  1.00  0.00    -0.110 C  
HETATM    2  N   UNL     1      -8.936   5.426  64.589  1.00  0.00    -0.356 N  
HETATM    3  C   UNL     1      -9.850   5.206  65.598  1.00  0.00    -0.033 C  
HETATM    4  H   UNL     1      -8.226   6.147  64.713  1.00  0.00     0.000 HD 
HETATM    5  O   UNL     1     -10.737   4.363  65.535  1.00  0.00    -0.256 OA 
ENDROOT
BRANCH   3   6
HETATM    6  C   UNL     1      -9.673   6.052  66.770  1.00  0.00    -0.182 A  
HETATM    7  C   UNL     1     -10.475   7.082  67.217  1.00  0.00    -0.293 A  
HETATM    8  N   UNL     1      -9.892   7.614  68.351  1.00  0.00    -0.162 NA 
HETATM    9  N   UNL     1      -8.742   6.955  68.671  1.00  0.00    -0.123 NA 
HETATM   10  C   UNL     1      -8.629   6.018  67.724  1.00  0.00    -0.106 A  
BRANCH   8  11
HETATM   11  C   UNL     1     -10.385   8.766  69.064  1.00  0.00    -0.213 A  
HETATM   12  N   UNL     1     -10.426   9.957  68.415  1.00  0.00    -0.198 NA 
HETATM   13  C   UNL     1     -11.117  10.880  69.108  1.00  0.00    -0.245 A  
HETATM   14  C   UNL     1     -11.694  10.731  70.357  1.00  0.00    -0.351 A  
HETATM   15  N   UNL     1     -12.360  11.872  70.738  1.00  0.00    -0.366 NA 
HETATM   16  C   UNL     1     -11.511   9.492  70.985  1.00  0.00    -0.349 A  
HETATM   17  N   UNL     1     -11.985   9.205  72.258  1.00  0.00    -0.280 NA 
HETATM   18  N   UNL     1     -10.856   8.520  70.318  1.00  0.00    -0.238 NA 
HETATM   19  C   UNL     1     -12.229  12.690  69.716  1.00  0.00    -0.143 A  
HETATM   20  H1  UNL     1     -11.851   8.303  72.714  1.00  0.00     0.000 HD 
HETATM   21  N   UNL     1     -11.445  12.153  68.722  1.00  0.00    -0.281 NA 
HETATM   22  H2  UNL     1     -12.985   9.402  72.261  1.00  0.00     0.000 HD 
BRANCH  21  23
HETATM   23  C1* UNL     1     -11.107  12.841  67.499  1.00  0.00    -0.263 C  
HETATM   24  O4* UNL     1      -9.694  13.112  67.504  1.00  0.00    -0.205 OA 
HETATM   25  C4* UNL     1      -9.487  14.521  67.731  1.00  0.00    -0.210 C  
HETATM   26  C3* UNL     1     -10.819  15.243  67.479  1.00  0.00    -0.304 C  
HETATM   27  H2* UNL     1     -12.789  14.929  65.668  1.00  0.00     0.000 HD 
HETATM   28  C2* UNL     1     -11.850  14.143  67.207  1.00  0.00    -0.419 C  
HETATM   29  O2* UNL     1     -12.327  14.119  65.849  1.00  0.00    -0.448 OA 
HETATM   30  O3* UNL     1     -10.733  16.146  66.368  1.00  0.00    -0.294 OA 
HETATM   31  H3* UNL     1     -11.557  16.593  66.213  1.00  0.00     0.000 HD 
BRANCH  25  32
HETATM   32  C5* UNL     1      -8.926  14.721  69.146  1.00  0.00    -0.078 C  
HETATM   33  O5* UNL     1      -9.994  14.951  70.068  1.00  0.00    -0.465 OA 
HETATM   34  H5* UNL     1      -9.647  15.074  70.944  1.00  0.00     0.000 HD 
ENDBRANCH  25  32
ENDBRANCH  21  23
ENDBRANCH   8  11
ENDBRANCH   3   6
TORSDOF 4
ENDMDL
MODEL       99
REMARK 921   NORMALIZED FREE ENERGY PREDICTED BY IDOCK:   -5.90 KCAL/MOL
REMARK 922        TOTAL FREE ENERGY PREDICTED BY IDOCK:   -7.79 KCAL/MOL
REMARK 923 INTER-LIGAND FREE ENERGY PREDICTED BY IDOCK:   -7.45 KCAL/MOL
REMARK 924 INTRA-LIGAND FREE ENERGY PREDICTED BY IDOCK:   -0.34 KCAL/MOL
REMARK 927      BINDING AFFINITY PREDICTED BY RF-SCORE:    0.00 PKD
ROOT
HETATM    1  C   UNL     1     -10.597   5.474  69.634  1.00  0.00    -0.305 C  
HETATM    2  N   UNL     1     -10.234   6.606  68.825  1.00  0.00    -0.161 N  
HETATM    3  C   UNL     1     -10.509   7.898  69.220  1.00  0.00    -0.216 C  
HETATM    4  H   UNL     1      -9.761   6.450  67.935  1.00  0.00     0.000 HD 
HETATM    5  O   UNL     1     -11.075   8.178  70.270  1.00  0.00    -0.256 OA 
ENDROOT
BRANCH   3   6
HETATM    6  C   UNL     1     -10.059   8.924  68.290  1.00  0.00    -0.219 A  
HETATM    7  C   UNL     1      -9.318  10.058  68.551  1.00  0.00    -0.145 A  
HETATM    8  N   UNL     1      -9.159  10.746  67.363  1.00  0.00    -0.143 NA 
HETATM    9  N   UNL     1      -9.758  10.091  66.329  1.00  0.00    -0.200 NA 
HETATM   10  C   UNL     1     -10.283   8.999  66.894  1.00  0.00    -0.269 A  
BRANCH   8  11
HETATM   11  C   UNL     1      -8.513  12.029  67.238  1.00  0.00    -0.175 A  
HETATM   12  N   UNL     1      -9.252  13.082  66.804  1.00  0.00    -0.234 NA 
HETATM   13  C   UNL     1      -8.598  14.248  66.959  1.00  0.00    -0.192 A  
HETATM   14  C   UNL     1      -7.311  14.429  67.435  1.00  0.00    -0.142 A  
HETATM   15  N   UNL     1      -6.987  15.765  67.496  1.00  0.00    -0.169 NA 
HETATM   16  C   UNL     1      -6.599  13.270  67.764  1.00  0.00    -0.155 A  
HETATM   17  N   UNL     1      -5.283  13.284  68.207  1.00  0.00    -0.085 NA 
HETATM   18  N   UNL     1      -7.221  12.077  67.662  1.00  0.00    -0.107 NA 
HETATM   19  C   UNL     1      -8.076  16.389  67.105  1.00  0.00    -0.181 A  
HETATM   20  H1  UNL     1      -4.764  12.439  68.446  1.00  0.00     0.000 HD 
HETATM   21  N   UNL     1      -9.065  15.514  66.723  1.00  0.00    -0.234 NA 
HETATM   22  H2  UNL     1      -5.241  13.905  69.015  1.00  0.00     0.000 HD 
BRANCH  21  23
HETATM   23  C1* UNL     1     -10.356  15.922  66.221  1.00  0.00    -0.314 C  
HETATM   24  O4* UNL     1     -11.333  15.714  67.257  1.00  0.00    -0.255 OA 
HETATM   25  C4* UNL     1     -12.148  14.575  66.912  1.00  0.00    -0.281 C  
HETATM   26  C3* UNL     1     -11.938  14.276  65.420  1.00  0.00    -0.383 C  
HETATM   27  H2* UNL     1     -11.634  15.828  63.238  1.00  0.00     0.000 HD 
HETATM   28  C2* UNL     1     -10.850  15.244  64.945  1.00  0.00    -0.425 C  
HETATM   29  O2* UNL     1     -11.327  16.249  64.032  1.00  0.00    -0.822 OA 
HETATM   30  O3* UNL     1     -13.144  14.456  64.666  1.00  0.00    -0.481 OA 
HETATM   31  H3* UNL     1     -13.014  14.271  63.744  1.00  0.00     0.000 HD 
BRANCH  25  32
HETATM   32  C5* UNL     1     -11.790  13.406  67.840  1.00  0.00    -0.357 C  
HETATM   33  O5* UNL     1     -11.895  12.168  67.132  1.00  0.00    -0.543 OA 
HETATM   34  H5* UNL     1     -11.673  11.445  67.706  1.00  0.00     0.000 HD 
ENDBRANCH  25  32
ENDBRANCH  21  23
ENDBRANCH   8  11
ENDBRANCH   3   6
TORSDOF 4
ENDMDL
MODEL      100
REMARK 921   NORMALIZED FREE ENERGY PREDICTED BY IDOCK:   -5.87 KCAL/MOL
REMARK 922        TOTAL FREE ENERGY PREDICTED BY IDOCK:   -7.76 KCAL/MOL
REMARK 923 INTER-LIGAND FREE ENERGY PREDICTED BY IDOCK:   -7.06 KCAL/MOL
REMARK 924 INTRA-LIGAND FREE ENERGY PREDICTED BY IDOCK:   -0.70 KCAL/MOL
REMARK 927      BINDING AFFINITY PREDICTED BY RF-SCORE:    0.00 PKD
ROOT
HETATM    1  C   UNL     1      -7.810   5.640  62.380  1.00  0.00    -0.079 C  
HETATM    2  N   UNL     1      -8.421   6.851  62.857  1.00  0.00    -0.346 N  
HETATM    3  C   UNL     1      -7.791   7.669  63.771  1.00  0.00    -0.117 C  
HETATM    4  H   UNL     1      -9.344   7.112  62.511  1.00  0.00     0.000 HD 
HETATM    5  O   UNL     1      -6.684   7.433  64.240  1.00  0.00    -0.049 OA 
ENDROOT
BRANCH   3   6
HETATM    6  C   UNL     1      -8.543   8.862  64.134  1.00  0.00    -0.128 A  
HETATM    7  C   UNL     1      -8.788   9.377  65.390  1.00  0.00    -0.184 A  
HETATM    8  N   UNL     1      -9.572  10.505  65.244  1.00  0.00    -0.227 NA 
HETATM    9  N   UNL     1      -9.836  10.755  63.930  1.00  0.00    -0.305 NA 
HETATM   10  C   UNL     1      -9.207   9.772  63.278  1.00  0.00    -0.181 A  
BRANCH   8  11
HETATM   11  C   UNL     1     -10.111  11.277  66.335  1.00  0.00    -0.220 A  
HETATM   12  N   UNL     1      -9.856  12.610  66.369  1.00  0.00    -0.254 NA 
HETATM   13  C   UNL     1     -10.604  13.238  67.293  1.00  0.00    -0.247 A  
HETATM   14  C   UNL     1     -11.499  12.663  68.178  1.00  0.00    -0.313 A  
HETATM   15  N   UNL     1     -12.118  13.617  68.951  1.00  0.00    -0.342 NA 
HETATM   16  C   UNL     1     -11.617  11.268  68.128  1.00  0.00    -0.289 A  
HETATM   17  N   UNL     1     -12.434  10.541  68.984  1.00  0.00    -0.672 NA 
HETATM   18  N   UNL     1     -10.915  10.593  67.194  1.00  0.00    -0.276 NA 
HETATM   19  C   UNL     1     -11.641  14.761  68.513  1.00  0.00    -0.321 A  
HETATM   20  H1  UNL     1     -12.519   9.526  68.947  1.00  0.00     0.000 HD 
HETATM   21  N   UNL     1     -10.685  14.583  67.541  1.00  0.00    -0.272 NA 
HETATM   22  H2  UNL     1     -13.374  10.927  68.907  1.00  0.00     0.000 HD 
BRANCH  21  23
HETATM   23  C1* UNL     1      -9.970  15.663  66.903  1.00  0.00    -0.248 C  
HETATM   24  O4* UNL     1      -8.621  15.230  66.652  1.00  0.00    -0.262 OA 
HETATM   25  C4* UNL     1      -7.735  15.894  67.575  1.00  0.00    -0.159 C  
HETATM   26  C3* UNL     1      -8.491  17.084  68.185  1.00  0.00    -0.227 C  
HETATM   27  H2* UNL     1     -10.230  18.887  67.193  1.00  0.00     0.000 HD 
HETATM   28  C2* UNL     1      -9.921  16.997  67.644  1.00  0.00    -0.280 C  
HETATM   29  O2* UNL     1     -10.261  18.057  66.731  1.00  0.00    -0.331 OA 
HETATM   30  O3* UNL     1      -7.887  18.336  67.831  1.00  0.00    -0.239 OA 
HETATM   31  H3* UNL     1      -8.355  19.072  68.208  1.00  0.00     0.000 HD 
BRANCH  25  32
HETATM   32  C5* UNL     1      -7.237  14.874  68.610  1.00  0.00    -0.117 C  
HETATM   33  O5* UNL     1      -7.907  15.074  69.856  1.00  0.00    -0.369 OA 
HETATM   34  H5* UNL     1      -7.599  14.443  70.496  1.00  0.00     0.000 HD 
ENDBRANCH  25  32
ENDBRANCH  21  23
ENDBRANCH   8  11
ENDBRANCH   3   6
TORSDOF 4
ENDMDL
MODEL      101
REMARK 921   NORMALIZED FREE ENERGY PREDICTED BY IDOCK:   -5.86 KCAL/MOL
REMARK 922        TOTAL FREE ENERGY PREDICTED BY IDOCK:   -7.74 KCAL/MOL
REMARK 923 INTER-LIGAND FREE ENERGY PREDICTED BY IDOCK:   -7.15 KCAL/MOL
REMARK 924 INTRA-LIGAND FREE ENERGY PREDICTED BY IDOCK:   -0.59 KCAL/MOL
REMARK 927      BINDING AFFINITY PREDICTED BY RF-SCORE:    0.00 PKD
ROOT
HETATM    1  C   UNL     1     -10.090   5.983  71.481  1.00  0.00    -0.192 C  
HETATM    2  N   UNL     1      -9.506   7.259  71.167  1.00  0.00    -0.157 N  
HETATM    3  C   UNL     1      -8.464   7.379  70.273  1.00  0.00    -0.136 C  
HETATM    4  H   UNL     1      -9.873   8.098  71.617  1.00  0.00     0.000 HD 
HETATM    5  O   UNL     1      -7.961   6.427  69.687  1.00  0.00    -0.111 OA 
ENDROOT
BRANCH   3   6
HETATM    6  C   UNL     1      -8.004   8.744  70.059  1.00  0.00    -0.108 A  
HETATM    7  C   UNL     1      -8.454   9.671  69.142  1.00  0.00    -0.143 A  
HETATM    8  N   UNL     1      -7.698  10.819  69.290  1.00  0.00    -0.142 NA 
HETATM    9  N   UNL     1      -6.778  10.679  70.286  1.00  0.00    -0.256 NA 
HETATM   10  C   UNL     1      -6.979   9.439  70.744  1.00  0.00    -0.114 A  
BRANCH   8  11
HETATM   11  C   UNL     1      -7.808  11.988  68.453  1.00  0.00    -0.147 A  
HETATM   12  N   UNL     1      -8.943  12.157  67.729  1.00  0.00    -0.171 NA 
HETATM   13  C   UNL     1      -9.010  13.386  67.187  1.00  0.00    -0.226 A  
HETATM   14  C   UNL     1      -8.058  14.387  67.261  1.00  0.00    -0.187 A  
HETATM   15  N   UNL     1      -8.485  15.528  66.622  1.00  0.00    -0.275 NA 
HETATM   16  C   UNL     1      -6.879  14.077  67.950  1.00  0.00    -0.164 A  
HETATM   17  N   UNL     1      -5.811  14.956  68.068  1.00  0.00    -0.138 NA 
HETATM   18  N   UNL     1      -6.776  12.870  68.543  1.00  0.00    -0.084 NA 
HETATM   19  C   UNL     1      -9.698  15.242  66.204  1.00  0.00    -0.314 A  
HETATM   20  H1  UNL     1      -4.953  14.730  68.570  1.00  0.00     0.000 HD 
HETATM   21  N   UNL     1     -10.045  13.940  66.480  1.00  0.00    -0.279 NA 
HETATM   22  H2  UNL     1      -6.174  15.824  68.463  1.00  0.00     0.000 HD 
BRANCH  21  23
HETATM   23  C1* UNL     1     -11.306  13.344  66.108  1.00  0.00    -0.303 C  
HETATM   24  O4* UNL     1     -11.146  11.914  66.092  1.00  0.00    -0.303 OA 
HETATM   25  C4* UNL     1     -11.131  11.458  64.724  1.00  0.00    -0.188 C  
HETATM   26  C3* UNL     1     -11.686  12.586  63.842  1.00  0.00    -0.452 C  
HETATM   27  H2* UNL     1     -13.680  14.373  64.146  1.00  0.00     0.000 HD 
HETATM   28  C2* UNL     1     -11.914  13.779  64.776  1.00  0.00    -0.404 C  
HETATM   29  O2* UNL     1     -13.302  14.102  64.974  1.00  0.00    -0.553 OA 
HETATM   30  O3* UNL     1     -12.908  12.204  63.196  1.00  0.00    -0.780 OA 
HETATM   31  H3* UNL     1     -13.251  12.902  62.651  1.00  0.00     0.000 HD 
BRANCH  25  32
HETATM   32  C5* UNL     1      -9.704  11.024  64.359  1.00  0.00    -0.280 C  
HETATM   33  O5* UNL     1      -9.150  11.924  63.396  1.00  0.00    -0.547 OA 
HETATM   34  H5* UNL     1      -8.267  11.655  63.170  1.00  0.00     0.000 HD 
ENDBRANCH  25  32
ENDBRANCH  21  23
ENDBRANCH   8  11
ENDBRANCH   3   6
TORSDOF 4
ENDMDL
MODEL      102
REMARK 921   NORMALIZED FREE ENERGY PREDICTED BY IDOCK:   -5.86 KCAL/MOL
REMARK 922        TOTAL FREE ENERGY PREDICTED BY IDOCK:   -7.74 KCAL/MOL
REMARK 923 INTER-LIGAND FREE ENERGY PREDICTED BY IDOCK:   -6.90 KCAL/MOL
REMARK 924 INTRA-LIGAND FREE ENERGY PREDICTED BY IDOCK:   -0.84 KCAL/MOL
REMARK 927      BINDING AFFINITY PREDICTED BY RF-SCORE:    0.00 PKD
ROOT
HETATM    1  C   UNL     1     -10.851  16.079  64.803  1.00  0.00    -0.294 C  
HETATM    2  N   UNL     1     -10.859  15.180  65.925  1.00  0.00    -0.330 N  
HETATM    3  C   UNL     1     -11.872  14.263  66.111  1.00  0.00    -0.402 C  
HETATM    4  H   UNL     1     -10.097  15.222  66.601  1.00  0.00     0.000 HD 
HETATM    5  O   UNL     1     -12.826  14.144  65.351  1.00  0.00    -0.637 OA 
ENDROOT
BRANCH   3   6
HETATM    6  C   UNL     1     -11.715  13.421  67.289  1.00  0.00    -0.424 A  
HETATM    7  C   UNL     1     -11.292  12.110  67.361  1.00  0.00    -0.326 A  
HETATM    8  N   UNL     1     -11.332  11.721  68.686  1.00  0.00    -0.244 NA 
HETATM    9  N   UNL     1     -11.754  12.739  69.487  1.00  0.00    -0.316 NA 
HETATM   10  C   UNL     1     -11.969  13.752  68.641  1.00  0.00    -0.366 A  
BRANCH   8  11
HETATM   11  C   UNL     1     -11.044  10.390  69.160  1.00  0.00    -0.246 A  
HETATM   12  N   UNL     1     -10.262   9.588  68.393  1.00  0.00    -0.186 NA 
HETATM   13  C   UNL     1      -9.885   8.479  69.054  1.00  0.00    -0.183 A  
HETATM   14  C   UNL     1     -10.252   8.101  70.333  1.00  0.00    -0.201 A  
HETATM   15  N   UNL     1      -9.639   6.925  70.700  1.00  0.00    -0.169 NA 
HETATM   16  C   UNL     1     -11.141   8.950  71.004  1.00  0.00    -0.276 A  
HETATM   17  N   UNL     1     -11.641   8.683  72.271  1.00  0.00    -0.368 NA 
HETATM   18  N   UNL     1     -11.522  10.094  70.399  1.00  0.00    -0.299 NA 
HETATM   19  C   UNL     1      -8.875   6.615  69.676  1.00  0.00    -0.143 A  
HETATM   20  H1  UNL     1     -12.288   9.302  72.759  1.00  0.00     0.000 HD 
HETATM   21  N   UNL     1      -9.023   7.500  68.634  1.00  0.00    -0.133 NA 
HETATM   22  H2  UNL     1     -10.842   8.533  72.887  1.00  0.00     0.000 HD 
BRANCH  21  23
HETATM   23  C1* UNL     1      -8.330   7.387  67.373  1.00  0.00    -0.116 C  
HETATM   24  O4* UNL     1      -9.287   7.037  66.358  1.00  0.00    -0.167 OA 
HETATM   25  C4* UNL     1      -9.093   5.657  65.984  1.00  0.00    -0.156 C  
HETATM   26  C3* UNL     1      -7.715   5.216  66.499  1.00  0.00    -0.092 C  
HETATM   27  H2* UNL     1      -5.313   6.427  66.652  1.00  0.00     0.000 HD 
HETATM   28  C2* UNL     1      -7.168   6.398  67.306  1.00  0.00    -0.078 C  
HETATM   29  O2* UNL     1      -6.036   7.042  66.694  1.00  0.00    -0.031 OA 
HETATM   30  O3* UNL     1      -6.828   4.879  65.424  1.00  0.00    -0.057 OA 
HETATM   31  H3* UNL     1      -5.976   4.606  65.743  1.00  0.00     0.000 HD 
BRANCH  25  32
HETATM   32  C5* UNL     1     -10.261   4.824  66.531  1.00  0.00    -0.259 C  
HETATM   33  O5* UNL     1      -9.834   3.481  66.772  1.00  0.00    -0.398 OA 
HETATM   34  H5* UNL     1     -10.556   2.965  67.110  1.00  0.00     0.000 HD 
ENDBRANCH  25  32
ENDBRANCH  21  23
ENDBRANCH   8  11
ENDBRANCH   3   6
TORSDOF 4
ENDMDL
MODEL      103
REMARK 921   NORMALIZED FREE ENERGY PREDICTED BY IDOCK:   -5.84 KCAL/MOL
REMARK 922        TOTAL FREE ENERGY PREDICTED BY IDOCK:   -7.72 KCAL/MOL
REMARK 923 INTER-LIGAND FREE ENERGY PREDICTED BY IDOCK:   -6.98 KCAL/MOL
REMARK 924 INTRA-LIGAND FREE ENERGY PREDICTED BY IDOCK:   -0.74 KCAL/MOL
REMARK 927      BINDING AFFINITY PREDICTED BY RF-SCORE:    0.00 PKD
ROOT
HETATM    1  C   UNL     1      -5.474   8.731  71.483  1.00  0.00    -0.042 C  
HETATM    2  N   UNL     1      -5.931   9.255  70.225  1.00  0.00    -0.035 N  
HETATM    3  C   UNL     1      -6.028   8.462  69.101  1.00  0.00    -0.042 C  
HETATM    4  H   UNL     1      -6.191  10.239  70.161  1.00  0.00     0.000 HD 
HETATM    5  O   UNL     1      -5.737   7.272  69.086  1.00  0.00    -0.018 OA 
ENDROOT
BRANCH   3   6
HETATM    6  C   UNL     1      -6.524   9.149  67.917  1.00  0.00    -0.056 A  
HETATM    7  C   UNL     1      -7.798   9.609  67.658  1.00  0.00    -0.095 A  
HETATM    8  N   UNL     1      -7.801  10.167  66.394  1.00  0.00    -0.110 NA 
HETATM    9  N   UNL     1      -6.566  10.102  65.822  1.00  0.00    -0.101 NA 
HETATM   10  C   UNL     1      -5.810   9.500  66.746  1.00  0.00    -0.055 A  
BRANCH   8  11
HETATM   11  C   UNL     1      -8.971  10.683  65.727  1.00  0.00    -0.182 A  
HETATM   12  N   UNL     1      -9.772  11.545  66.404  1.00  0.00    -0.201 NA 
HETATM   13  C   UNL     1     -10.679  12.122  65.596  1.00  0.00    -0.275 A  
HETATM   14  C   UNL     1     -10.876  11.878  64.249  1.00  0.00    -0.344 A  
HETATM   15  N   UNL     1     -11.866  12.685  63.737  1.00  0.00    -0.454 NA 
HETATM   16  C   UNL     1     -10.062  10.899  63.667  1.00  0.00    -0.355 A  
HETATM   17  N   UNL     1     -10.172  10.506  62.339  1.00  0.00    -0.696 NA 
HETATM   18  N   UNL     1      -9.111  10.315  64.424  1.00  0.00    -0.217 NA 
HETATM   19  C   UNL     1     -12.236  13.440  64.747  1.00  0.00    -0.409 A  
HETATM   20  H1  UNL     1      -9.579   9.793  61.916  1.00  0.00     0.000 HD 
HETATM   21  N   UNL     1     -11.579  13.107  65.908  1.00  0.00    -0.338 NA 
HETATM   22  H2  UNL     1     -10.093  11.346  61.766  1.00  0.00     0.000 HD 
BRANCH  21  23
HETATM   23  C1* UNL     1     -11.809  13.750  67.180  1.00  0.00    -0.406 C  
HETATM   24  O4* UNL     1     -11.645  15.169  67.009  1.00  0.00    -0.295 OA 
HETATM   25  C4* UNL     1     -10.406  15.576  67.626  1.00  0.00    -0.269 C  
HETATM   26  C3* UNL     1      -9.948  14.446  68.560  1.00  0.00    -0.237 C  
HETATM   27  H2* UNL     1     -11.244  12.770  70.223  1.00  0.00     0.000 HD 
HETATM   28  C2* UNL     1     -10.942  13.299  68.353  1.00  0.00    -0.264 C  
HETATM   29  O2* UNL     1     -11.783  13.050  69.494  1.00  0.00    -0.297 OA 
HETATM   30  O3* UNL     1      -9.930  14.864  69.931  1.00  0.00    -0.447 OA 
HETATM   31  H3* UNL     1      -9.646  14.165  70.508  1.00  0.00     0.000 HD 
BRANCH  25  32
HETATM   32  C5* UNL     1      -9.393  15.928  66.526  1.00  0.00    -0.277 C  
HETATM   33  O5* UNL     1      -8.810  14.734  65.998  1.00  0.00    -0.465 OA 
HETATM   34  H5* UNL     1      -8.183  14.952  65.318  1.00  0.00     0.000 HD 
ENDBRANCH  25  32
ENDBRANCH  21  23
ENDBRANCH   8  11
ENDBRANCH   3   6
TORSDOF 4
ENDMDL
MODEL      104
REMARK 921   NORMALIZED FREE ENERGY PREDICTED BY IDOCK:   -5.81 KCAL/MOL
REMARK 922        TOTAL FREE ENERGY PREDICTED BY IDOCK:   -7.68 KCAL/MOL
REMARK 923 INTER-LIGAND FREE ENERGY PREDICTED BY IDOCK:   -7.20 KCAL/MOL
REMARK 924 INTRA-LIGAND FREE ENERGY PREDICTED BY IDOCK:   -0.48 KCAL/MOL
REMARK 927      BINDING AFFINITY PREDICTED BY RF-SCORE:    0.00 PKD
ROOT
HETATM    1  C   UNL     1      -5.826  20.323  70.441  1.00  0.00    -0.348 C  
HETATM    2  N   UNL     1      -6.865  19.471  69.925  1.00  0.00    -0.187 N  
HETATM    3  C   UNL     1      -6.665  18.672  68.820  1.00  0.00    -0.270 C  
HETATM    4  H   UNL     1      -7.772  19.458  70.390  1.00  0.00     0.000 HD 
HETATM    5  O   UNL     1      -5.609  18.626  68.200  1.00  0.00    -0.181 OA 
ENDROOT
BRANCH   3   6
HETATM    6  C   UNL     1      -7.816  17.863  68.443  1.00  0.00    -0.288 A  
HETATM    7  C   UNL     1      -7.886  16.497  68.263  1.00  0.00    -0.175 A  
HETATM    8  N   UNL     1      -9.175  16.183  67.880  1.00  0.00    -0.199 NA 
HETATM    9  N   UNL     1      -9.957  17.298  67.818  1.00  0.00    -0.290 NA 
HETATM   10  C   UNL     1      -9.135  18.293  68.167  1.00  0.00    -0.298 A  
BRANCH   8  11
HETATM   11  C   UNL     1      -9.625  14.863  67.514  1.00  0.00    -0.204 A  
HETATM   12  N   UNL     1     -10.091  14.047  68.493  1.00  0.00    -0.235 NA 
HETATM   13  C   UNL     1     -10.689  12.953  67.988  1.00  0.00    -0.228 A  
HETATM   14  C   UNL     1     -10.802  12.600  66.655  1.00  0.00    -0.258 A  
HETATM   15  N   UNL     1     -11.516  11.434  66.507  1.00  0.00    -0.377 NA 
HETATM   16  C   UNL     1     -10.201  13.462  65.729  1.00  0.00    -0.295 A  
HETATM   17  N   UNL     1     -10.185  13.220  64.361  1.00  0.00    -0.602 NA 
HETATM   18  N   UNL     1      -9.620  14.592  66.180  1.00  0.00    -0.310 NA 
HETATM   19  C   UNL     1     -11.870  11.104  67.729  1.00  0.00    -0.015 A  
HETATM   20  H1  UNL     1      -9.748  13.848  63.687  1.00  0.00     0.000 HD 
HETATM   21  N   UNL     1     -11.355  11.966  68.667  1.00  0.00    -0.250 NA 
HETATM   22  H2  UNL     1     -11.152  13.084  64.066  1.00  0.00     0.000 HD 
BRANCH  21  23
HETATM   23  C1* UNL     1     -11.557  11.828  70.090  1.00  0.00    -0.195 C  
HETATM   24  O4* UNL     1     -10.677  10.799  70.577  1.00  0.00     0.033 OA 
HETATM   25  C4* UNL     1     -11.455   9.625  70.888  1.00  0.00    -0.353 C  
HETATM   26  C3* UNL     1     -12.931  10.042  70.968  1.00  0.00    -0.360 C  
HETATM   27  H2* UNL     1     -14.199  12.212  71.937  1.00  0.00     0.000 HD 
HETATM   28  C2* UNL     1     -12.975  11.518  70.563  1.00  0.00     0.119 C  
HETATM   29  O2* UNL     1     -13.317  12.405  71.643  1.00  0.00    -0.351 OA 
HETATM   30  O3* UNL     1     -13.465   9.859  72.287  1.00  0.00    -0.553 OA 
HETATM   31  H3* UNL     1     -14.377  10.117  72.336  1.00  0.00     0.000 HD 
BRANCH  25  32
HETATM   32  C5* UNL     1     -11.167   8.543  69.836  1.00  0.00    -0.032 C  
HETATM   33  O5* UNL     1     -11.995   7.401  70.070  1.00  0.00    -0.501 OA 
HETATM   34  H5* UNL     1     -11.817   6.732  69.419  1.00  0.00     0.000 HD 
ENDBRANCH  25  32
ENDBRANCH  21  23
ENDBRANCH   8  11
ENDBRANCH   3   6
TORSDOF 4
ENDMDL
MODEL      105
REMARK 921   NORMALIZED FREE ENERGY PREDICTED BY IDOCK:   -5.79 KCAL/MOL
REMARK 922        TOTAL FREE ENERGY PREDICTED BY IDOCK:   -7.65 KCAL/MOL
REMARK 923 INTER-LIGAND FREE ENERGY PREDICTED BY IDOCK:   -7.09 KCAL/MOL
REMARK 924 INTRA-LIGAND FREE ENERGY PREDICTED BY IDOCK:   -0.56 KCAL/MOL
REMARK 927      BINDING AFFINITY PREDICTED BY RF-SCORE:    0.00 PKD
ROOT
HETATM    1  C   UNL     1      -8.542   7.914  73.803  1.00  0.00    -0.265 C  
HETATM    2  N   UNL     1      -8.707   8.105  72.387  1.00  0.00    -0.170 N  
HETATM    3  C   UNL     1      -9.423   7.217  71.614  1.00  0.00    -0.152 C  
HETATM    4  H   UNL     1      -8.282   8.919  71.943  1.00  0.00     0.000 HD 
HETATM    5  O   UNL     1      -9.964   6.213  72.062  1.00  0.00    -0.172 OA 
ENDROOT
BRANCH   3   6
HETATM    6  C   UNL     1      -9.502   7.570  70.203  1.00  0.00    -0.161 A  
HETATM    7  C   UNL     1      -9.940   8.748  69.634  1.00  0.00    -0.191 A  
HETATM    8  N   UNL     1      -9.863   8.612  68.261  1.00  0.00    -0.160 NA 
HETATM    9  N   UNL     1      -9.373   7.389  67.912  1.00  0.00    -0.134 NA 
HETATM   10  C   UNL     1      -9.151   6.781  69.082  1.00  0.00    -0.138 A  
BRANCH   8  11
HETATM   11  C   UNL     1     -10.313   9.600  67.312  1.00  0.00    -0.249 A  
HETATM   12  N   UNL     1     -10.941  10.707  67.783  1.00  0.00    -0.285 NA 
HETATM   13  C   UNL     1     -11.092  11.640  66.826  1.00  0.00    -0.309 A  
HETATM   14  C   UNL     1     -10.736  11.537  65.493  1.00  0.00    -0.272 A  
HETATM   15  N   UNL     1     -11.001  12.705  64.815  1.00  0.00    -0.289 NA 
HETATM   16  C   UNL     1     -10.185  10.316  65.087  1.00  0.00    -0.224 A  
HETATM   17  N   UNL     1      -9.823  10.041  63.774  1.00  0.00    -0.489 NA 
HETATM   18  N   UNL     1      -9.978   9.359  66.015  1.00  0.00    -0.300 NA 
HETATM   19  C   UNL     1     -11.470  13.522  65.732  1.00  0.00    -0.315 A  
HETATM   20  H1  UNL     1      -9.422   9.152  63.479  1.00  0.00     0.000 HD 
HETATM   21  N   UNL     1     -11.589  12.910  66.957  1.00  0.00    -0.342 NA 
HETATM   22  H2  UNL     1      -9.184  10.777  63.475  1.00  0.00     0.000 HD 
BRANCH  21  23
HETATM   23  C1* UNL     1     -12.106  13.559  68.139  1.00  0.00    -0.255 C  
HETATM   24  O4* UNL     1     -12.253  14.963  67.859  1.00  0.00    -0.167 OA 
HETATM   25  C4* UNL     1     -11.220  15.691  68.556  1.00  0.00    -0.342 C  
HETATM   26  C3* UNL     1     -10.626  14.763  69.626  1.00  0.00    -0.148 C  
HETATM   27  H2* UNL     1     -11.687  12.936  71.297  1.00  0.00     0.000 HD 
HETATM   28  C2* UNL     1     -11.300  13.402  69.426  1.00  0.00    -0.226 C  
HETATM   29  O2* UNL     1     -12.188  13.033  70.497  1.00  0.00    -0.357 OA 
HETATM   30  O3* UNL     1     -10.863  15.259  70.951  1.00  0.00    -0.478 OA 
HETATM   31  H3* UNL     1     -10.496  14.686  71.612  1.00  0.00     0.000 HD 
BRANCH  25  32
HETATM   32  C5* UNL     1     -10.195  16.203  67.533  1.00  0.00    -0.267 C  
HETATM   33  O5* UNL     1      -9.244  17.054  68.178  1.00  0.00    -0.232 OA 
HETATM   34  H5* UNL     1      -8.610  17.371  67.546  1.00  0.00     0.000 HD 
ENDBRANCH  25  32
ENDBRANCH  21  23
ENDBRANCH   8  11
ENDBRANCH   3   6
TORSDOF 4
ENDMDL
MODEL      106
REMARK 921   NORMALIZED FREE ENERGY PREDICTED BY IDOCK:   -5.78 KCAL/MOL
REMARK 922        TOTAL FREE ENERGY PREDICTED BY IDOCK:   -7.65 KCAL/MOL
REMARK 923 INTER-LIGAND FREE ENERGY PREDICTED BY IDOCK:   -7.22 KCAL/MOL
REMARK 924 INTRA-LIGAND FREE ENERGY PREDICTED BY IDOCK:   -0.43 KCAL/MOL
REMARK 927      BINDING AFFINITY PREDICTED BY RF-SCORE:    0.00 PKD
ROOT
HETATM    1  C   UNL     1     -13.673  13.862  72.474  1.00  0.00    -0.560 C  
HETATM    2  N   UNL     1     -13.138  12.968  71.483  1.00  0.00    -0.355 N  
HETATM    3  C   UNL     1     -12.294  13.411  70.487  1.00  0.00    -0.329 C  
HETATM    4  H   UNL     1     -13.389  11.980  71.518  1.00  0.00     0.000 HD 
HETATM    5  O   UNL     1     -11.941  14.578  70.369  1.00  0.00    -0.280 OA 
ENDROOT
BRANCH   3   6
HETATM    6  C   UNL     1     -11.832  12.371  69.578  1.00  0.00    -0.368 A  
HETATM    7  C   UNL     1     -11.149  12.508  68.388  1.00  0.00    -0.258 A  
HETATM    8  N   UNL     1     -10.952  11.246  67.861  1.00  0.00    -0.228 NA 
HETATM    9  N   UNL     1     -11.471  10.284  68.676  1.00  0.00    -0.171 NA 
HETATM   10  C   UNL     1     -11.984  10.969  69.703  1.00  0.00    -0.353 A  
BRANCH   8  11
HETATM   11  C   UNL     1     -10.349  10.976  66.580  1.00  0.00    -0.245 A  
HETATM   12  N   UNL     1      -9.449   9.963  66.492  1.00  0.00    -0.172 NA 
HETATM   13  C   UNL     1      -9.149   9.672  65.214  1.00  0.00    -0.218 A  
HETATM   14  C   UNL     1      -9.608  10.315  64.078  1.00  0.00    -0.304 A  
HETATM   15  N   UNL     1      -9.124   9.719  62.938  1.00  0.00    -0.261 NA 
HETATM   16  C   UNL     1     -10.456  11.411  64.282  1.00  0.00    -0.342 A  
HETATM   17  N   UNL     1     -10.959  12.188  63.247  1.00  0.00    -0.673 NA 
HETATM   18  N   UNL     1     -10.818  11.723  65.543  1.00  0.00    -0.291 NA 
HETATM   19  C   UNL     1      -8.415   8.699  63.371  1.00  0.00    -0.074 A  
HETATM   20  H1  UNL     1     -11.577  12.986  63.396  1.00  0.00     0.000 HD 
HETATM   21  N   UNL     1      -8.360   8.655  64.744  1.00  0.00    -0.160 NA 
HETATM   22  H2  UNL     1     -11.428  11.560  62.595  1.00  0.00     0.000 HD 
BRANCH  21  23
HETATM   23  C1* UNL     1      -7.627   7.661  65.492  1.00  0.00    -0.092 C  
HETATM   24  O4* UNL     1      -8.384   6.437  65.485  1.00  0.00    -0.140 OA 
HETATM   25  C4* UNL     1      -8.957   6.233  66.793  1.00  0.00    -0.125 C  
HETATM   26  C3* UNL     1      -8.227   7.156  67.780  1.00  0.00    -0.115 C  
HETATM   27  H2* UNL     1      -5.659   7.918  68.061  1.00  0.00     0.000 HD 
HETATM   28  C2* UNL     1      -7.271   8.004  66.937  1.00  0.00    -0.082 C  
HETATM   29  O2* UNL     1      -5.881   7.705  67.162  1.00  0.00    -0.037 OA 
HETATM   30  O3* UNL     1      -7.508   6.412  68.773  1.00  0.00    -0.084 OA 
HETATM   31  H3* UNL     1      -7.058   6.983  69.384  1.00  0.00     0.000 HD 
BRANCH  25  32
HETATM   32  C5* UNL     1     -10.472   6.471  66.717  1.00  0.00    -0.230 C  
HETATM   33  O5* UNL     1     -11.072   5.526  65.828  1.00  0.00    -0.667 OA 
HETATM   34  H5* UNL     1     -12.009   5.674  65.780  1.00  0.00     0.000 HD 
ENDBRANCH  25  32
ENDBRANCH  21  23
ENDBRANCH   8  11
ENDBRANCH   3   6
TORSDOF 4
ENDMDL
MODEL      107
REMARK 921   NORMALIZED FREE ENERGY PREDICTED BY IDOCK:   -5.76 KCAL/MOL
REMARK 922        TOTAL FREE ENERGY PREDICTED BY IDOCK:   -7.62 KCAL/MOL
REMARK 923 INTER-LIGAND FREE ENERGY PREDICTED BY IDOCK:   -6.89 KCAL/MOL
REMARK 924 INTRA-LIGAND FREE ENERGY PREDICTED BY IDOCK:   -0.73 KCAL/MOL
REMARK 927      BINDING AFFINITY PREDICTED BY RF-SCORE:    0.00 PKD
ROOT
HETATM    1  C   UNL     1      -7.134  10.224  62.666  1.00  0.00    -0.140 C  
HETATM    2  N   UNL     1      -7.854  10.728  63.805  1.00  0.00    -0.351 N  
HETATM    3  C   UNL     1      -8.615   9.902  64.606  1.00  0.00    -0.182 C  
HETATM    4  H   UNL     1      -7.801  11.722  64.026  1.00  0.00     0.000 HD 
HETATM    5  O   UNL     1      -8.736   8.698  64.414  1.00  0.00    -0.109 OA 
ENDROOT
BRANCH   3   6
HETATM    6  C   UNL     1      -9.263  10.574  65.723  1.00  0.00    -0.215 A  
HETATM    7  C   UNL     1      -9.926  10.015  66.797  1.00  0.00    -0.210 A  
HETATM    8  N   UNL     1     -10.402  11.044  67.586  1.00  0.00    -0.184 NA 
HETATM    9  N   UNL     1     -10.059  12.260  67.073  1.00  0.00    -0.212 NA 
HETATM   10  C   UNL     1      -9.371  11.964  65.966  1.00  0.00    -0.206 A  
BRANCH   8  11
HETATM   11  C   UNL     1     -11.222  10.867  68.759  1.00  0.00    -0.270 A  
HETATM   12  N   UNL     1     -11.453   9.604  69.199  1.00  0.00     0.072 NA 
HETATM   13  C   UNL     1     -12.025   9.597  70.416  1.00  0.00    -0.106 A  
HETATM   14  C   UNL     1     -12.416  10.694  71.164  1.00  0.00    -0.418 A  
HETATM   15  N   UNL     1     -12.927  10.309  72.382  1.00  0.00    -0.176 NA 
HETATM   16  C   UNL     1     -12.223  11.950  70.577  1.00  0.00    -0.336 A  
HETATM   17  N   UNL     1     -12.608  13.141  71.180  1.00  0.00    -0.361 NA 
HETATM   18  N   UNL     1     -11.620  12.015  69.373  1.00  0.00    -0.310 NA 
HETATM   19  C   UNL     1     -12.809   9.000  72.394  1.00  0.00    -0.385 A  
HETATM   20  H1  UNL     1     -12.468  14.055  70.752  1.00  0.00     0.000 HD 
HETATM   21  N   UNL     1     -12.311   8.515  71.207  1.00  0.00    -0.298 NA 
HETATM   22  H2  UNL     1     -12.176  13.168  72.103  1.00  0.00     0.000 HD 
BRANCH  21  23
HETATM   23  C1* UNL     1     -12.106   7.114  70.929  1.00  0.00    -0.326 C  
HETATM   24  O4* UNL     1     -12.183   6.388  72.168  1.00  0.00    -0.318 OA 
HETATM   25  C4* UNL     1     -10.857   5.963  72.547  1.00  0.00    -0.247 C  
HETATM   26  C3* UNL     1      -9.949   6.088  71.314  1.00  0.00    -0.184 C  
HETATM   27  H2* UNL     1     -10.305   5.605  68.688  1.00  0.00     0.000 HD 
HETATM   28  C2* UNL     1     -10.808   6.730  70.221  1.00  0.00    -0.270 C  
HETATM   29  O2* UNL     1     -11.112   5.844  69.128  1.00  0.00    -0.351 OA 
HETATM   30  O3* UNL     1      -9.452   4.812  70.888  1.00  0.00    -0.145 OA 
HETATM   31  H3* UNL     1      -8.891   4.889  70.127  1.00  0.00     0.000 HD 
BRANCH  25  32
HETATM   32  C5* UNL     1     -10.393   6.794  73.752  1.00  0.00    -0.368 C  
HETATM   33  O5* UNL     1      -9.762   7.997  73.304  1.00  0.00    -0.286 OA 
HETATM   34  H5* UNL     1      -9.475   8.511  74.049  1.00  0.00     0.000 HD 
ENDBRANCH  25  32
ENDBRANCH  21  23
ENDBRANCH   8  11
ENDBRANCH   3   6
TORSDOF 4
ENDMDL
MODEL      108
REMARK 921   NORMALIZED FREE ENERGY PREDICTED BY IDOCK:   -5.75 KCAL/MOL
REMARK 922        TOTAL FREE ENERGY PREDICTED BY IDOCK:   -7.61 KCAL/MOL
REMARK 923 INTER-LIGAND FREE ENERGY PREDICTED BY IDOCK:   -7.03 KCAL/MOL
REMARK 924 INTRA-LIGAND FREE ENERGY PREDICTED BY IDOCK:   -0.58 KCAL/MOL
REMARK 927      BINDING AFFINITY PREDICTED BY RF-SCORE:    0.00 PKD
ROOT
HETATM    1  C   UNL     1     -10.571  19.934  66.741  1.00  0.00    -0.414 C  
HETATM    2  N   UNL     1      -9.766  18.754  66.904  1.00  0.00    -0.303 N  
HETATM    3  C   UNL     1      -8.514  18.646  66.335  1.00  0.00    -0.272 C  
HETATM    4  H   UNL     1     -10.129  17.976  67.454  1.00  0.00     0.000 HD 
HETATM    5  O   UNL     1      -8.000  19.529  65.658  1.00  0.00    -0.422 OA 
ENDROOT
BRANCH   3   6
HETATM    6  C   UNL     1      -7.830  17.391  66.613  1.00  0.00    -0.292 A  
HETATM    7  C   UNL     1      -8.368  16.127  66.744  1.00  0.00    -0.264 A  
HETATM    8  N   UNL     1      -7.338  15.254  67.037  1.00  0.00    -0.155 NA 
HETATM    9  N   UNL     1      -6.140  15.902  67.085  1.00  0.00    -0.332 NA 
HETATM   10  C   UNL     1      -6.447  17.176  66.820  1.00  0.00    -0.219 A  
BRANCH   8  11
HETATM   11  C   UNL     1      -7.509  13.853  67.331  1.00  0.00    -0.128 A  
HETATM   12  N   UNL     1      -8.601  13.218  66.834  1.00  0.00    -0.157 NA 
HETATM   13  C   UNL     1      -8.513  11.884  66.982  1.00  0.00    -0.177 A  
HETATM   14  C   UNL     1      -7.501  11.176  67.605  1.00  0.00    -0.100 A  
HETATM   15  N   UNL     1      -7.724   9.820  67.531  1.00  0.00    -0.095 NA 
HETATM   16  C   UNL     1      -6.468  11.932  68.172  1.00  0.00    -0.052 A  
HETATM   17  N   UNL     1      -5.409  11.371  68.873  1.00  0.00    -0.040 NA 
HETATM   18  N   UNL     1      -6.489  13.272  68.020  1.00  0.00    -0.113 NA 
HETATM   19  C   UNL     1      -8.832   9.703  66.834  1.00  0.00    -0.131 A  
HETATM   20  H1  UNL     1      -4.656  11.922  69.286  1.00  0.00     0.000 HD 
HETATM   21  N   UNL     1      -9.375  10.926  66.517  1.00  0.00    -0.170 NA 
HETATM   22  H2  UNL     1      -4.977  10.675  68.266  1.00  0.00     0.000 HD 
BRANCH  21  23
HETATM   23  C1* UNL     1     -10.607  11.098  65.784  1.00  0.00    -0.227 C  
HETATM   24  O4* UNL     1     -10.526  10.329  64.571  1.00  0.00    -0.159 OA 
HETATM   25  C4* UNL     1     -10.355  11.227  63.456  1.00  0.00    -0.408 C  
HETATM   26  C3* UNL     1     -10.725  12.642  63.926  1.00  0.00    -0.431 C  
HETATM   27  H2* UNL     1     -12.639  13.620  65.550  1.00  0.00     0.000 HD 
HETATM   28  C2* UNL     1     -11.007  12.528  65.426  1.00  0.00    -0.294 C  
HETATM   29  O2* UNL     1     -12.389  12.731  65.772  1.00  0.00    -0.547 OA 
HETATM   30  O3* UNL     1     -11.870  13.152  63.229  1.00  0.00    -0.727 OA 
HETATM   31  H3* UNL     1     -12.098  14.026  63.519  1.00  0.00     0.000 HD 
BRANCH  25  32
HETATM   32  C5* UNL     1      -8.918  11.099  62.929  1.00  0.00    -0.256 C  
HETATM   33  O5* UNL     1      -8.370   9.833  63.302  1.00  0.00    -0.143 OA 
HETATM   34  H5* UNL     1      -7.482   9.753  62.976  1.00  0.00     0.000 HD 
ENDBRANCH  25  32
ENDBRANCH  21  23
ENDBRANCH   8  11
ENDBRANCH   3   6
TORSDOF 4
ENDMDL
MODEL      109
REMARK 921   NORMALIZED FREE ENERGY PREDICTED BY IDOCK:   -5.74 KCAL/MOL
REMARK 922        TOTAL FREE ENERGY PREDICTED BY IDOCK:   -7.60 KCAL/MOL
REMARK 923 INTER-LIGAND FREE ENERGY PREDICTED BY IDOCK:   -7.13 KCAL/MOL
REMARK 924 INTRA-LIGAND FREE ENERGY PREDICTED BY IDOCK:   -0.47 KCAL/MOL
REMARK 927      BINDING AFFINITY PREDICTED BY RF-SCORE:    0.00 PKD
ROOT
HETATM    1  C   UNL     1      -7.080   6.283  67.630  1.00  0.00    -0.081 C  
HETATM    2  N   UNL     1      -7.726   7.565  67.720  1.00  0.00    -0.113 N  
HETATM    3  C   UNL     1      -8.818   7.883  66.941  1.00  0.00    -0.133 C  
HETATM    4  H   UNL     1      -7.367   8.257  68.377  1.00  0.00     0.000 HD 
HETATM    5  O   UNL     1      -9.315   7.114  66.125  1.00  0.00    -0.142 OA 
ENDROOT
BRANCH   3   6
HETATM    6  C   UNL     1      -9.358   9.216  67.171  1.00  0.00    -0.178 A  
HETATM    7  C   UNL     1      -9.850  10.117  66.249  1.00  0.00    -0.229 A  
HETATM    8  N   UNL     1     -10.222  11.261  66.927  1.00  0.00    -0.212 NA 
HETATM    9  N   UNL     1     -10.004  11.133  68.267  1.00  0.00    -0.180 NA 
HETATM   10  C   UNL     1      -9.498   9.903  68.400  1.00  0.00    -0.137 A  
BRANCH   8  11
HETATM   11  C   UNL     1     -10.704  12.467  66.301  1.00  0.00    -0.256 A  
HETATM   12  N   UNL     1     -10.612  13.632  66.991  1.00  0.00    -0.272 NA 
HETATM   13  C   UNL     1     -10.875  14.696  66.211  1.00  0.00    -0.321 A  
HETATM   14  C   UNL     1     -11.256  14.685  64.881  1.00  0.00    -0.396 A  
HETATM   15  N   UNL     1     -11.397  15.963  64.393  1.00  0.00    -0.423 NA 
HETATM   16  C   UNL     1     -11.417  13.426  64.288  1.00  0.00    -0.393 A  
HETATM   17  N   UNL     1     -11.843  13.249  62.978  1.00  0.00    -0.730 NA 
HETATM   18  N   UNL     1     -11.132  12.328  65.016  1.00  0.00    -0.307 NA 
HETATM   19  C   UNL     1     -11.064  16.742  65.398  1.00  0.00     0.054 A  
HETATM   20  H1  UNL     1     -11.960  12.333  62.547  1.00  0.00     0.000 HD 
HETATM   21  N   UNL     1     -10.784  16.023  66.537  1.00  0.00    -0.281 NA 
HETATM   22  H2  UNL     1     -11.217  13.788  62.380  1.00  0.00     0.000 HD 
BRANCH  21  23
HETATM   23  C1* UNL     1     -10.419  16.620  67.800  1.00  0.00    -0.316 C  
HETATM   24  O4* UNL     1     -10.523  18.049  67.675  1.00  0.00    -0.379 OA 
HETATM   25  C4* UNL     1      -9.197  18.614  67.629  1.00  0.00    -0.281 C  
HETATM   26  C3* UNL     1      -8.210  17.549  68.129  1.00  0.00    -0.251 C  
HETATM   27  H2* UNL     1      -8.305  15.700  70.086  1.00  0.00     0.000 HD 
HETATM   28  C2* UNL     1      -9.038  16.280  68.355  1.00  0.00    -0.203 C  
HETATM   29  O2* UNL     1      -9.164  15.911  69.741  1.00  0.00    -0.181 OA 
HETATM   30  O3* UNL     1      -7.557  17.954  69.339  1.00  0.00    -0.012 OA 
HETATM   31  H3* UNL     1      -6.947  17.295  69.648  1.00  0.00     0.000 HD 
BRANCH  25  32
HETATM   32  C5* UNL     1      -8.914  19.107  66.202  1.00  0.00    -0.219 C  
HETATM   33  O5* UNL     1      -9.809  20.171  65.866  1.00  0.00    -0.554 OA 
HETATM   34  H5* UNL     1      -9.634  20.476  64.983  1.00  0.00     0.000 HD 
ENDBRANCH  25  32
ENDBRANCH  21  23
ENDBRANCH   8  11
ENDBRANCH   3   6
TORSDOF 4
ENDMDL
MODEL      110
REMARK 921   NORMALIZED FREE ENERGY PREDICTED BY IDOCK:   -5.73 KCAL/MOL
REMARK 922        TOTAL FREE ENERGY PREDICTED BY IDOCK:   -7.59 KCAL/MOL
REMARK 923 INTER-LIGAND FREE ENERGY PREDICTED BY IDOCK:   -6.96 KCAL/MOL
REMARK 924 INTRA-LIGAND FREE ENERGY PREDICTED BY IDOCK:   -0.63 KCAL/MOL
REMARK 927      BINDING AFFINITY PREDICTED BY RF-SCORE:    0.00 PKD
ROOT
HETATM    1  C   UNL     1     -12.148  16.843  73.446  1.00  0.00    -0.016 C  
HETATM    2  N   UNL     1     -11.930  15.652  72.670  1.00  0.00    -0.432 N  
HETATM    3  C   UNL     1     -12.942  15.065  71.942  1.00  0.00    -0.345 C  
HETATM    4  H   UNL     1     -11.001  15.230  72.659  1.00  0.00     0.000 HD 
HETATM    5  O   UNL     1     -14.086  15.503  71.899  1.00  0.00    -0.495 OA 
ENDROOT
BRANCH   3   6
HETATM    6  C   UNL     1     -12.544  13.876  71.202  1.00  0.00    -0.446 A  
HETATM    7  C   UNL     1     -11.884  13.794  69.993  1.00  0.00    -0.307 A  
HETATM    8  N   UNL     1     -11.750  12.457  69.671  1.00  0.00    -0.313 NA 
HETATM    9  N   UNL     1     -12.286  11.659  70.637  1.00  0.00    -0.363 NA 
HETATM   10  C   UNL     1     -12.748  12.519  71.551  1.00  0.00    -0.220 A  
BRANCH   8  11
HETATM   11  C   UNL     1     -11.188  11.962  68.439  1.00  0.00    -0.258 A  
HETATM   12  N   UNL     1     -10.175  11.061  68.509  1.00  0.00    -0.184 NA 
HETATM   13  C   UNL     1      -9.911  10.514  67.309  1.00  0.00    -0.186 A  
HETATM   14  C   UNL     1     -10.508  10.819  66.099  1.00  0.00    -0.214 A  
HETATM   15  N   UNL     1     -10.016  10.029  65.087  1.00  0.00    -0.325 NA 
HETATM   16  C   UNL     1     -11.474  11.834  66.119  1.00  0.00    -0.220 A  
HETATM   17  N   UNL     1     -12.126  12.288  64.980  1.00  0.00    -0.384 NA 
HETATM   18  N   UNL     1     -11.803  12.391  67.302  1.00  0.00    -0.519 NA 
HETATM   19  C   UNL     1      -9.164   9.222  65.679  1.00  0.00    -0.231 A  
HETATM   20  H1  UNL     1     -12.829  13.026  64.994  1.00  0.00     0.000 HD 
HETATM   21  N   UNL     1      -9.029   9.506  67.018  1.00  0.00    -0.133 NA 
HETATM   22  H2  UNL     1     -12.547  11.477  64.527  1.00  0.00     0.000 HD 
BRANCH  21  23
HETATM   23  C1* UNL     1      -8.138   8.801  67.908  1.00  0.00    -0.107 C  
HETATM   24  O4* UNL     1      -8.772   7.572  68.307  1.00  0.00    -0.124 OA 
HETATM   25  C4* UNL     1      -9.199   7.687  69.680  1.00  0.00    -0.146 C  
HETATM   26  C3* UNL     1      -8.471   8.888  70.303  1.00  0.00    -0.160 C  
HETATM   27  H2* UNL     1      -5.972   9.868  70.078  1.00  0.00     0.000 HD 
HETATM   28  C2* UNL     1      -7.682   9.541  69.164  1.00  0.00    -0.081 C  
HETATM   29  O2* UNL     1      -6.256   9.408  69.297  1.00  0.00    -0.040 OA 
HETATM   30  O3* UNL     1      -7.595   8.487  71.365  1.00  0.00    -0.087 OA 
HETATM   31  H3* UNL     1      -7.146   9.230  71.750  1.00  0.00     0.000 HD 
BRANCH  25  32
HETATM   32  C5* UNL     1     -10.730   7.795  69.719  1.00  0.00    -0.236 C  
HETATM   33  O5* UNL     1     -11.264   7.662  68.399  1.00  0.00    -0.389 OA 
HETATM   34  H5* UNL     1     -12.211   7.728  68.424  1.00  0.00     0.000 HD 
ENDBRANCH  25  32
ENDBRANCH  21  23
ENDBRANCH   8  11
ENDBRANCH   3   6
TORSDOF 4
ENDMDL
MODEL      111
REMARK 921   NORMALIZED FREE ENERGY PREDICTED BY IDOCK:   -5.73 KCAL/MOL
REMARK 922        TOTAL FREE ENERGY PREDICTED BY IDOCK:   -7.58 KCAL/MOL
REMARK 923 INTER-LIGAND FREE ENERGY PREDICTED BY IDOCK:   -6.80 KCAL/MOL
REMARK 924 INTRA-LIGAND FREE ENERGY PREDICTED BY IDOCK:   -0.78 KCAL/MOL
REMARK 927      BINDING AFFINITY PREDICTED BY RF-SCORE:    0.00 PKD
ROOT
HETATM    1  C   UNL     1      -9.558  20.932  67.238  1.00  0.00    -0.246 C  
HETATM    2  N   UNL     1      -9.000  19.671  67.644  1.00  0.00    -0.312 N  
HETATM    3  C   UNL     1      -7.707  19.566  68.110  1.00  0.00    -0.306 C  
HETATM    4  H   UNL     1      -9.575  18.831  67.584  1.00  0.00     0.000 HD 
HETATM    5  O   UNL     1      -6.946  20.521  68.214  1.00  0.00    -0.265 OA 
ENDROOT
BRANCH   3   6
HETATM    6  C   UNL     1      -7.309  18.218  68.492  1.00  0.00    -0.297 A  
HETATM    7  C   UNL     1      -7.827  17.013  68.063  1.00  0.00    -0.182 A  
HETATM    8  N   UNL     1      -7.153  16.002  68.721  1.00  0.00    -0.137 NA 
HETATM    9  N   UNL     1      -6.199  16.505  69.555  1.00  0.00    -0.196 NA 
HETATM   10  C   UNL     1      -6.296  17.829  69.401  1.00  0.00    -0.239 A  
BRANCH   8  11
HETATM   11  C   UNL     1      -7.465  14.599  68.606  1.00  0.00    -0.125 A  
HETATM   12  N   UNL     1      -8.308  14.204  67.619  1.00  0.00    -0.169 NA 
HETATM   13  C   UNL     1      -8.323  12.867  67.480  1.00  0.00    -0.183 A  
HETATM   14  C   UNL     1      -7.642  11.938  68.246  1.00  0.00    -0.116 A  
HETATM   15  N   UNL     1      -7.861  10.659  67.790  1.00  0.00    -0.107 NA 
HETATM   16  C   UNL     1      -6.875  12.443  69.304  1.00  0.00    -0.028 A  
HETATM   17  N   UNL     1      -6.174  11.637  70.191  1.00  0.00    -0.242 NA 
HETATM   18  N   UNL     1      -6.796  13.780  69.464  1.00  0.00    -0.052 NA 
HETATM   19  C   UNL     1      -8.629  10.810  66.734  1.00  0.00    -0.136 A  
HETATM   20  H1  UNL     1      -5.616  12.005  70.960  1.00  0.00     0.000 HD 
HETATM   21  N   UNL     1      -8.976  12.125  66.531  1.00  0.00    -0.203 NA 
HETATM   22  H2  UNL     1      -5.567  11.032  69.638  1.00  0.00     0.000 HD 
BRANCH  21  23
HETATM   23  C1* UNL     1      -9.836  12.579  65.464  1.00  0.00    -0.183 C  
HETATM   24  O4* UNL     1     -10.309  13.898  65.791  1.00  0.00    -0.296 OA 
HETATM   25  C4* UNL     1     -11.700  13.818  66.164  1.00  0.00    -0.370 C  
HETATM   26  C3* UNL     1     -12.242  12.461  65.690  1.00  0.00    -0.250 C  
HETATM   27  H2* UNL     1     -11.843  10.970  63.482  1.00  0.00     0.000 HD 
HETATM   28  C2* UNL     1     -11.039  11.703  65.121  1.00  0.00    -0.237 C  
HETATM   29  O2* UNL     1     -11.094  11.515  63.696  1.00  0.00    -0.397 OA 
HETATM   30  O3* UNL     1     -13.264  12.615  64.696  1.00  0.00    -0.828 OA 
HETATM   31  H3* UNL     1     -13.599  11.775  64.404  1.00  0.00     0.000 HD 
BRANCH  25  32
HETATM   32  C5* UNL     1     -11.824  14.046  67.678  1.00  0.00    -0.395 C  
HETATM   33  O5* UNL     1     -11.189  15.274  68.042  1.00  0.00    -0.302 OA 
HETATM   34  H5* UNL     1     -11.265  15.415  68.978  1.00  0.00     0.000 HD 
ENDBRANCH  25  32
ENDBRANCH  21  23
ENDBRANCH   8  11
ENDBRANCH   3   6
TORSDOF 4
ENDMDL
MODEL      112
REMARK 921   NORMALIZED FREE ENERGY PREDICTED BY IDOCK:   -5.72 KCAL/MOL
REMARK 922        TOTAL FREE ENERGY PREDICTED BY IDOCK:   -7.56 KCAL/MOL
REMARK 923 INTER-LIGAND FREE ENERGY PREDICTED BY IDOCK:   -6.78 KCAL/MOL
REMARK 924 INTRA-LIGAND FREE ENERGY PREDICTED BY IDOCK:   -0.79 KCAL/MOL
REMARK 927      BINDING AFFINITY PREDICTED BY RF-SCORE:    0.00 PKD
ROOT
HETATM    1  C   UNL     1     -11.492  16.000  64.253  1.00  0.00    -0.157 C  
HETATM    2  N   UNL     1     -11.324  14.901  65.165  1.00  0.00    -0.367 N  
HETATM    3  C   UNL     1     -10.170  14.740  65.903  1.00  0.00    -0.313 C  
HETATM    4  H   UNL     1     -12.078  14.222  65.269  1.00  0.00     0.000 HD 
HETATM    5  O   UNL     1      -9.215  15.505  65.841  1.00  0.00    -0.333 OA 
ENDROOT
BRANCH   3   6
HETATM    6  C   UNL     1     -10.174  13.583  66.787  1.00  0.00    -0.264 A  
HETATM    7  C   UNL     1      -9.909  12.264  66.481  1.00  0.00    -0.229 A  
HETATM    8  N   UNL     1     -10.064  11.520  67.635  1.00  0.00    -0.182 NA 
HETATM    9  N   UNL     1     -10.406  12.310  68.691  1.00  0.00    -0.215 NA 
HETATM   10  C   UNL     1     -10.458  13.542  68.173  1.00  0.00    -0.244 A  
BRANCH   8  11
HETATM   11  C   UNL     1      -9.957  10.083  67.705  1.00  0.00    -0.170 A  
HETATM   12  N   UNL     1     -10.421   9.457  68.816  1.00  0.00    -0.210 NA 
HETATM   13  C   UNL     1     -10.475   8.123  68.650  1.00  0.00    -0.165 A  
HETATM   14  C   UNL     1     -10.071   7.400  67.542  1.00  0.00    -0.192 A  
HETATM   15  N   UNL     1     -10.315   6.056  67.709  1.00  0.00    -0.179 NA 
HETATM   16  C   UNL     1      -9.515   8.133  66.487  1.00  0.00    -0.221 A  
HETATM   17  N   UNL     1      -9.018   7.548  65.331  1.00  0.00    -0.379 NA 
HETATM   18  N   UNL     1      -9.470   9.478  66.588  1.00  0.00    -0.159 NA 
HETATM   19  C   UNL     1     -10.900   5.967  68.883  1.00  0.00    -0.331 A  
HETATM   20  H1  UNL     1      -8.613   8.082  64.563  1.00  0.00     0.000 HD 
HETATM   21  N   UNL     1     -10.979   7.186  69.515  1.00  0.00    -0.222 NA 
HETATM   22  H2  UNL     1      -9.761   6.970  64.939  1.00  0.00     0.000 HD 
BRANCH  21  23
HETATM   23  C1* UNL     1     -11.545   7.381  70.828  1.00  0.00    -0.290 C  
HETATM   24  O4* UNL     1     -10.979   8.576  71.395  1.00  0.00    -0.237 OA 
HETATM   25  C4* UNL     1     -10.045   8.208  72.431  1.00  0.00    -0.285 C  
HETATM   26  C3* UNL     1     -10.307   6.742  72.806  1.00  0.00    -0.209 C  
HETATM   27  H2* UNL     1     -12.543   5.264  73.079  1.00  0.00     0.000 HD 
HETATM   28  C2* UNL     1     -11.377   6.242  71.832  1.00  0.00    -0.299 C  
HETATM   29  O2* UNL     1     -12.647   5.973  72.455  1.00  0.00    -0.126 OA 
HETATM   30  O3* UNL     1     -10.752   6.612  74.163  1.00  0.00    -0.455 OA 
HETATM   31  H3* UNL     1     -10.914   5.705  74.395  1.00  0.00     0.000 HD 
BRANCH  25  32
HETATM   32  C5* UNL     1      -8.617   8.482  71.936  1.00  0.00    -0.188 C  
HETATM   33  O5* UNL     1      -8.543   9.784  71.351  1.00  0.00    -0.157 OA 
HETATM   34  H5* UNL     1      -7.660   9.953  71.045  1.00  0.00     0.000 HD 
ENDBRANCH  25  32
ENDBRANCH  21  23
ENDBRANCH   8  11
ENDBRANCH   3   6
TORSDOF 4
ENDMDL
MODEL      113
REMARK 921   NORMALIZED FREE ENERGY PREDICTED BY IDOCK:   -5.70 KCAL/MOL
REMARK 922        TOTAL FREE ENERGY PREDICTED BY IDOCK:   -7.55 KCAL/MOL
REMARK 923 INTER-LIGAND FREE ENERGY PREDICTED BY IDOCK:   -6.65 KCAL/MOL
REMARK 924 INTRA-LIGAND FREE ENERGY PREDICTED BY IDOCK:   -0.90 KCAL/MOL
REMARK 927      BINDING AFFINITY PREDICTED BY RF-SCORE:    0.00 PKD
ROOT
HETATM    1  C   UNL     1     -10.592  19.236  65.759  1.00  0.00    -0.366 C  
HETATM    2  N   UNL     1     -10.544  17.854  66.155  1.00  0.00    -0.307 N  
HETATM    3  C   UNL     1     -10.891  16.840  65.289  1.00  0.00    -0.138 C  
HETATM    4  H   UNL     1     -10.244  17.619  67.101  1.00  0.00     0.000 HD 
HETATM    5  O   UNL     1     -11.263  17.031  64.137  1.00  0.00    -1.130 OA 
ENDROOT
BRANCH   3   6
HETATM    6  C   UNL     1     -10.769  15.500  65.847  1.00  0.00    -0.346 A  
HETATM    7  C   UNL     1      -9.840  15.024  66.749  1.00  0.00    -0.243 A  
HETATM    8  N   UNL     1     -10.101  13.684  66.962  1.00  0.00    -0.245 NA 
HETATM    9  N   UNL     1     -11.182  13.270  66.242  1.00  0.00    -0.294 NA 
HETATM   10  C   UNL     1     -11.578  14.367  65.589  1.00  0.00    -0.347 A  
BRANCH   8  11
HETATM   11  C   UNL     1      -9.294  12.810  67.777  1.00  0.00    -0.199 A  
HETATM   12  N   UNL     1      -9.830  11.632  68.185  1.00  0.00    -0.185 NA 
HETATM   13  C   UNL     1      -8.903  10.824  68.729  1.00  0.00    -0.163 A  
HETATM   14  C   UNL     1      -7.564  11.105  68.937  1.00  0.00    -0.133 A  
HETATM   15  N   UNL     1      -6.906  10.024  69.476  1.00  0.00    -0.062 NA 
HETATM   16  C   UNL     1      -7.132  12.386  68.570  1.00  0.00    -0.100 A  
HETATM   17  N   UNL     1      -5.832  12.835  68.762  1.00  0.00    -0.066 NA 
HETATM   18  N   UNL     1      -8.014  13.223  67.987  1.00  0.00    -0.139 NA 
HETATM   19  C   UNL     1      -7.821   9.083  69.554  1.00  0.00    -0.094 A  
HETATM   20  H1  UNL     1      -5.518  13.768  68.494  1.00  0.00     0.000 HD 
HETATM   21  N   UNL     1      -9.059   9.531  69.157  1.00  0.00    -0.145 NA 
HETATM   22  H2  UNL     1      -5.209  12.165  68.312  1.00  0.00     0.000 HD 
BRANCH  21  23
HETATM   23  C1* UNL     1     -10.254   8.721  69.169  1.00  0.00    -0.207 C  
HETATM   24  O4* UNL     1     -11.043   9.092  70.313  1.00  0.00    -0.244 OA 
HETATM   25  C4* UNL     1     -10.961   8.043  71.300  1.00  0.00    -0.236 C  
HETATM   26  C3* UNL     1     -10.412   6.785  70.610  1.00  0.00    -0.215 C  
HETATM   27  H2* UNL     1     -10.801   5.675  68.186  1.00  0.00     0.000 HD 
HETATM   28  C2* UNL     1     -10.065   7.206  69.179  1.00  0.00    -0.183 C  
HETATM   29  O2* UNL     1     -10.918   6.618  68.180  1.00  0.00    -0.260 OA 
HETATM   30  O3* UNL     1     -11.370   5.718  70.609  1.00  0.00    -0.222 OA 
HETATM   31  H3* UNL     1     -11.031   4.940  70.183  1.00  0.00     0.000 HD 
BRANCH  25  32
HETATM   32  C5* UNL     1     -10.106   8.533  72.478  1.00  0.00    -0.249 C  
HETATM   33  O5* UNL     1      -8.905   7.762  72.566  1.00  0.00    -0.127 OA 
HETATM   34  H5* UNL     1      -8.376   8.066  73.294  1.00  0.00     0.000 HD 
ENDBRANCH  25  32
ENDBRANCH  21  23
ENDBRANCH   8  11
ENDBRANCH   3   6
TORSDOF 4
ENDMDL
MODEL      114
REMARK 921   NORMALIZED FREE ENERGY PREDICTED BY IDOCK:   -5.70 KCAL/MOL
REMARK 922        TOTAL FREE ENERGY PREDICTED BY IDOCK:   -7.54 KCAL/MOL
REMARK 923 INTER-LIGAND FREE ENERGY PREDICTED BY IDOCK:   -6.65 KCAL/MOL
REMARK 924 INTRA-LIGAND FREE ENERGY PREDICTED BY IDOCK:   -0.90 KCAL/MOL
REMARK 927      BINDING AFFINITY PREDICTED BY RF-SCORE:    0.00 PKD
ROOT
HETATM    1  C   UNL     1      -9.283   2.032  70.399  1.00  0.00    -0.107 C  
HETATM    2  N   UNL     1      -9.535   3.371  69.938  1.00  0.00    -0.178 N  
HETATM    3  C   UNL     1      -9.990   4.357  70.788  1.00  0.00    -0.177 C  
HETATM    4  H   UNL     1      -9.373   3.597  68.957  1.00  0.00     0.000 HD 
HETATM    5  O   UNL     1     -10.212   4.174  71.979  1.00  0.00    -0.179 OA 
ENDROOT
BRANCH   3   6
HETATM    6  C   UNL     1     -10.176   5.657  70.160  1.00  0.00    -0.318 A  
HETATM    7  C   UNL     1      -9.252   6.429  69.487  1.00  0.00    -0.144 A  
HETATM    8  N   UNL     1      -9.878   7.596  69.093  1.00  0.00    -0.168 NA 
HETATM    9  N   UNL     1     -11.187   7.607  69.472  1.00  0.00    -0.011 NA 
HETATM   10  C   UNL     1     -11.355   6.439  70.100  1.00  0.00    -0.420 A  
BRANCH   8  11
HETATM   11  C   UNL     1      -9.221   8.699  68.435  1.00  0.00    -0.138 A  
HETATM   12  N   UNL     1      -9.989   9.695  67.926  1.00  0.00    -0.158 NA 
HETATM   13  C   UNL     1      -9.249  10.756  67.558  1.00  0.00    -0.143 A  
HETATM   14  C   UNL     1      -7.872  10.873  67.603  1.00  0.00    -0.113 A  
HETATM   15  N   UNL     1      -7.464  12.119  67.187  1.00  0.00    -0.148 NA 
HETATM   16  C   UNL     1      -7.165   9.751  68.054  1.00  0.00    -0.080 A  
HETATM   17  N   UNL     1      -5.779   9.695  68.110  1.00  0.00    -0.040 NA 
HETATM   18  N   UNL     1      -7.861   8.673  68.469  1.00  0.00    -0.106 NA 
HETATM   19  C   UNL     1      -8.579  12.767  66.934  1.00  0.00    -0.137 A  
HETATM   20  H1  UNL     1      -5.265   8.878  68.438  1.00  0.00     0.000 HD 
HETATM   21  N   UNL     1      -9.688  11.971  67.098  1.00  0.00    -0.195 NA 
HETATM   22  H2  UNL     1      -5.464  10.493  68.662  1.00  0.00     0.000 HD 
BRANCH  21  23
HETATM   23  C1* UNL     1     -11.042  12.411  66.859  1.00  0.00    -0.287 C  
HETATM   24  O4* UNL     1     -11.622  11.568  65.848  1.00  0.00    -0.273 OA 
HETATM   25  C4* UNL     1     -11.726  12.313  64.617  1.00  0.00    -0.356 C  
HETATM   26  C3* UNL     1     -11.563  13.804  64.951  1.00  0.00    -0.351 C  
HETATM   27  H2* UNL     1     -12.404  15.355  66.986  1.00  0.00     0.000 HD 
HETATM   28  C2* UNL     1     -11.236  13.868  66.446  1.00  0.00    -0.315 C  
HETATM   29  O2* UNL     1     -12.283  14.449  67.243  1.00  0.00    -0.383 OA 
HETATM   30  O3* UNL     1     -12.753  14.548  64.657  1.00  0.00    -0.630 OA 
HETATM   31  H3* UNL     1     -12.652  15.469  64.863  1.00  0.00     0.000 HD 
BRANCH  25  32
HETATM   32  C5* UNL     1     -10.686  11.778  63.622  1.00  0.00    -0.440 C  
HETATM   33  O5* UNL     1      -9.540  12.632  63.605  1.00  0.00    -0.654 OA 
HETATM   34  H5* UNL     1      -8.897  12.301  62.989  1.00  0.00     0.000 HD 
ENDBRANCH  25  32
ENDBRANCH  21  23
ENDBRANCH   8  11
ENDBRANCH   3   6
TORSDOF 4
ENDMDL
MODEL      115
REMARK 921   NORMALIZED FREE ENERGY PREDICTED BY IDOCK:   -5.66 KCAL/MOL
REMARK 922        TOTAL FREE ENERGY PREDICTED BY IDOCK:   -7.50 KCAL/MOL
REMARK 923 INTER-LIGAND FREE ENERGY PREDICTED BY IDOCK:   -6.98 KCAL/MOL
REMARK 924 INTRA-LIGAND FREE ENERGY PREDICTED BY IDOCK:   -0.52 KCAL/MOL
REMARK 927      BINDING AFFINITY PREDICTED BY RF-SCORE:    0.00 PKD
ROOT
HETATM    1  C   UNL     1     -12.582  16.100  73.991  1.00  0.00    -0.574 C  
HETATM    2  N   UNL     1     -12.325  15.024  73.073  1.00  0.00    -0.370 N  
HETATM    3  C   UNL     1     -13.153  14.774  71.999  1.00  0.00    -0.337 C  
HETATM    4  H   UNL     1     -11.510  14.429  73.219  1.00  0.00     0.000 HD 
HETATM    5  O   UNL     1     -14.153  15.436  71.747  1.00  0.00    -0.493 OA 
ENDROOT
BRANCH   3   6
HETATM    6  C   UNL     1     -12.738  13.657  71.162  1.00  0.00    -0.432 A  
HETATM    7  C   UNL     1     -12.318  13.674  69.848  1.00  0.00    -0.249 A  
HETATM    8  N   UNL     1     -12.058  12.373  69.466  1.00  0.00    -0.236 NA 
HETATM    9  N   UNL     1     -12.277  11.503  70.493  1.00  0.00    -0.377 NA 
HETATM   10  C   UNL     1     -12.673  12.285  71.503  1.00  0.00    -0.233 A  
BRANCH   8  11
HETATM   11  C   UNL     1     -11.678  11.967  68.135  1.00  0.00    -0.333 A  
HETATM   12  N   UNL     1     -11.406  12.932  67.221  1.00  0.00    -0.292 NA 
HETATM   13  C   UNL     1     -10.845  12.423  66.110  1.00  0.00    -0.273 A  
HETATM   14  C   UNL     1     -10.598  11.090  65.832  1.00  0.00    -0.206 A  
HETATM   15  N   UNL     1      -9.972  10.943  64.616  1.00  0.00    -0.283 NA 
HETATM   16  C   UNL     1     -11.006  10.165  66.801  1.00  0.00     0.021 A  
HETATM   17  N   UNL     1     -10.873   8.791  66.647  1.00  0.00    -0.052 NA 
HETATM   18  N   UNL     1     -11.542  10.626  67.950  1.00  0.00    -0.489 NA 
HETATM   19  C   UNL     1      -9.799  12.171  64.180  1.00  0.00    -0.163 A  
HETATM   20  H1  UNL     1     -11.170   8.118  67.352  1.00  0.00     0.000 HD 
HETATM   21  N   UNL     1     -10.353  13.102  65.026  1.00  0.00    -0.329 NA 
HETATM   22  H2  UNL     1      -9.892   8.602  66.441  1.00  0.00     0.000 HD 
BRANCH  21  23
HETATM   23  C1* UNL     1     -10.340  14.525  64.782  1.00  0.00    -0.287 C  
HETATM   24  O4* UNL     1      -9.069  15.048  65.208  1.00  0.00     0.433 OA 
HETATM   25  C4* UNL     1      -9.253  15.795  66.429  1.00  0.00    -0.312 C  
HETATM   26  C3* UNL     1     -10.753  16.085  66.585  1.00  0.00    -0.247 C  
HETATM   27  H2* UNL     1     -12.709  16.744  64.854  1.00  0.00     0.000 HD 
HETATM   28  C2* UNL     1     -11.447  15.351  65.434  1.00  0.00    -0.115 C  
HETATM   29  O2* UNL     1     -12.021  16.230  64.449  1.00  0.00    -0.383 OA 
HETATM   30  O3* UNL     1     -11.032  17.491  66.535  1.00  0.00    -0.024 OA 
HETATM   31  H3* UNL     1     -11.959  17.670  66.632  1.00  0.00     0.000 HD 
BRANCH  25  32
HETATM   32  C5* UNL     1      -8.645  15.001  67.595  1.00  0.00    -0.171 C  
HETATM   33  O5* UNL     1      -8.414  15.867  68.708  1.00  0.00    -0.177 OA 
HETATM   34  H5* UNL     1      -8.037  15.377  69.429  1.00  0.00     0.000 HD 
ENDBRANCH  25  32
ENDBRANCH  21  23
ENDBRANCH   8  11
ENDBRANCH   3   6
TORSDOF 4
ENDMDL
MODEL      116
REMARK 921   NORMALIZED FREE ENERGY PREDICTED BY IDOCK:   -5.65 KCAL/MOL
REMARK 922        TOTAL FREE ENERGY PREDICTED BY IDOCK:   -7.48 KCAL/MOL
REMARK 923 INTER-LIGAND FREE ENERGY PREDICTED BY IDOCK:   -6.91 KCAL/MOL
REMARK 924 INTRA-LIGAND FREE ENERGY PREDICTED BY IDOCK:   -0.58 KCAL/MOL
REMARK 927      BINDING AFFINITY PREDICTED BY RF-SCORE:    0.00 PKD
ROOT
HETATM    1  C   UNL     1     -12.905  13.557  71.387  1.00  0.00    -0.355 C  
HETATM    2  N   UNL     1     -12.172  12.484  70.771  1.00  0.00    -0.449 N  
HETATM    3  C   UNL     1     -12.362  11.169  71.141  1.00  0.00    -0.346 C  
HETATM    4  H   UNL     1     -11.492  12.700  70.042  1.00  0.00     0.000 HD 
HETATM    5  O   UNL     1     -13.155  10.818  72.007  1.00  0.00    -0.483 OA 
ENDROOT
BRANCH   3   6
HETATM    6  C   UNL     1     -11.549  10.210  70.406  1.00  0.00    -0.396 A  
HETATM    7  C   UNL     1     -10.853  10.395  69.229  1.00  0.00    -0.241 A  
HETATM    8  N   UNL     1     -10.254   9.195  68.896  1.00  0.00    -0.201 NA 
HETATM    9  N   UNL     1     -10.522   8.234  69.825  1.00  0.00    -0.218 NA 
HETATM   10  C   UNL     1     -11.288   8.857  70.727  1.00  0.00    -0.278 A  
BRANCH   8  11
HETATM   11  C   UNL     1      -9.507   8.959  67.686  1.00  0.00    -0.138 A  
HETATM   12  N   UNL     1      -8.981   7.724  67.484  1.00  0.00    -0.123 NA 
HETATM   13  C   UNL     1      -8.521   7.577  66.229  1.00  0.00    -0.140 A  
HETATM   14  C   UNL     1      -8.494   8.533  65.229  1.00  0.00    -0.174 A  
HETATM   15  N   UNL     1      -7.992   8.015  64.058  1.00  0.00    -0.146 NA 
HETATM   16  C   UNL     1      -8.971   9.805  65.570  1.00  0.00    -0.176 A  
HETATM   17  N   UNL     1      -8.963  10.882  64.693  1.00  0.00    -0.308 NA 
HETATM   18  N   UNL     1      -9.477   9.996  66.805  1.00  0.00    -0.163 NA 
HETATM   19  C   UNL     1      -7.757   6.750  64.328  1.00  0.00    -0.109 A  
HETATM   20  H1  UNL     1      -9.310  11.808  64.941  1.00  0.00     0.000 HD 
HETATM   21  N   UNL     1      -8.017   6.445  65.643  1.00  0.00    -0.113 NA 
HETATM   22  H2  UNL     1      -9.455  10.590  63.849  1.00  0.00     0.000 HD 
BRANCH  21  23
HETATM   23  C1* UNL     1      -7.819   5.138  66.225  1.00  0.00    -0.103 C  
HETATM   24  O4* UNL     1      -8.037   4.148  65.204  1.00  0.00    -0.099 OA 
HETATM   25  C4* UNL     1      -9.295   3.486  65.453  1.00  0.00    -0.158 C  
HETATM   26  C3* UNL     1      -9.715   3.794  66.898  1.00  0.00    -0.113 C  
HETATM   27  H2* UNL     1      -8.365   4.009  69.220  1.00  0.00     0.000 HD 
HETATM   28  C2* UNL     1      -8.676   4.782  67.437  1.00  0.00    -0.103 C  
HETATM   29  O2* UNL     1      -7.832   4.231  68.465  1.00  0.00    -0.073 OA 
HETATM   30  O3* UNL     1      -9.757   2.608  67.703  1.00  0.00    -0.365 OA 
HETATM   31  H3* UNL     1     -10.017   2.799  68.597  1.00  0.00     0.000 HD 
BRANCH  25  32
HETATM   32  C5* UNL     1     -10.313   3.937  64.396  1.00  0.00    -0.231 C  
HETATM   33  O5* UNL     1     -11.455   4.517  65.032  1.00  0.00    -1.101 OA 
HETATM   34  H5* UNL     1     -12.085   4.796  64.379  1.00  0.00     0.000 HD 
ENDBRANCH  25  32
ENDBRANCH  21  23
ENDBRANCH   8  11
ENDBRANCH   3   6
TORSDOF 4
ENDMDL
MODEL      117
REMARK 921   NORMALIZED FREE ENERGY PREDICTED BY IDOCK:   -5.63 KCAL/MOL
REMARK 922        TOTAL FREE ENERGY PREDICTED BY IDOCK:   -7.46 KCAL/MOL
REMARK 923 INTER-LIGAND FREE ENERGY PREDICTED BY IDOCK:   -6.96 KCAL/MOL
REMARK 924 INTRA-LIGAND FREE ENERGY PREDICTED BY IDOCK:   -0.49 KCAL/MOL
REMARK 927      BINDING AFFINITY PREDICTED BY RF-SCORE:    0.00 PKD
ROOT
HETATM    1  C   UNL     1      -5.711  19.854  68.418  1.00  0.00    -0.225 C  
HETATM    2  N   UNL     1      -6.908  19.094  68.174  1.00  0.00    -0.243 N  
HETATM    3  C   UNL     1      -7.745  19.380  67.117  1.00  0.00    -0.247 C  
HETATM    4  H   UNL     1      -7.143  18.323  68.799  1.00  0.00     0.000 HD 
HETATM    5  O   UNL     1      -7.542  20.287  66.318  1.00  0.00    -0.273 OA 
ENDROOT
BRANCH   3   6
HETATM    6  C   UNL     1      -8.903  18.503  67.008  1.00  0.00    -0.278 A  
HETATM    7  C   UNL     1      -9.207  17.381  67.751  1.00  0.00    -0.248 A  
HETATM    8  N   UNL     1     -10.390  16.858  67.269  1.00  0.00    -0.305 NA 
HETATM    9  N   UNL     1     -10.881  17.610  66.243  1.00  0.00    -0.055 NA 
HETATM   10  C   UNL     1      -9.988  18.595  66.104  1.00  0.00    -0.330 A  
BRANCH   8  11
HETATM   11  C   UNL     1     -10.995  15.633  67.730  1.00  0.00    -0.316 A  
HETATM   12  N   UNL     1     -11.251  14.658  66.821  1.00  0.00    -0.336 NA 
HETATM   13  C   UNL     1     -11.589  13.500  67.414  1.00  0.00    -0.356 A  
HETATM   14  C   UNL     1     -11.740  13.265  68.770  1.00  0.00    -0.329 A  
HETATM   15  N   UNL     1     -12.052  11.948  69.015  1.00  0.00    -0.250 NA 
HETATM   16  C   UNL     1     -11.548  14.363  69.618  1.00  0.00    -0.292 A  
HETATM   17  N   UNL     1     -11.712  14.300  70.995  1.00  0.00    -0.506 NA 
HETATM   18  N   UNL     1     -11.172  15.540  69.077  1.00  0.00    -0.281 NA 
HETATM   19  C   UNL     1     -12.048  11.379  67.831  1.00  0.00     0.143 A  
HETATM   20  H1  UNL     1     -11.573  15.099  71.612  1.00  0.00     0.000 HD 
HETATM   21  N   UNL     1     -11.819  12.285  66.822  1.00  0.00    -0.591 NA 
HETATM   22  H2  UNL     1     -11.117  13.545  71.337  1.00  0.00     0.000 HD 
BRANCH  21  23
HETATM   23  C1* UNL     1     -11.791  11.945  65.420  1.00  0.00    -0.079 C  
HETATM   24  O4* UNL     1     -11.377  10.573  65.293  1.00  0.00     0.534 OA 
HETATM   25  C4* UNL     1     -10.027  10.535  64.786  1.00  0.00    -0.345 C  
HETATM   26  C3* UNL     1      -9.700  11.918  64.204  1.00  0.00    -0.128 C  
HETATM   27  H2* UNL     1     -11.115  13.719  62.786  1.00  0.00     0.000 HD 
HETATM   28  C2* UNL     1     -10.910  12.803  64.515  1.00  0.00    -0.347 C  
HETATM   29  O2* UNL     1     -11.663  13.185  63.349  1.00  0.00    -0.475 OA 
HETATM   30  O3* UNL     1      -9.463  11.857  62.791  1.00  0.00    -0.533 OA 
HETATM   31  H3* UNL     1      -9.260  12.712  62.431  1.00  0.00     0.000 HD 
BRANCH  25  32
HETATM   32  C5* UNL     1      -9.084  10.092  65.914  1.00  0.00    -0.156 C  
HETATM   33  O5* UNL     1      -8.099   9.190  65.404  1.00  0.00    -0.115 OA 
HETATM   34  H5* UNL     1      -7.515   8.917  66.101  1.00  0.00     0.000 HD 
ENDBRANCH  25  32
ENDBRANCH  21  23
ENDBRANCH   8  11
ENDBRANCH   3   6
TORSDOF 4
ENDMDL
MODEL      118
REMARK 921   NORMALIZED FREE ENERGY PREDICTED BY IDOCK:   -5.54 KCAL/MOL
REMARK 922        TOTAL FREE ENERGY PREDICTED BY IDOCK:   -7.35 KCAL/MOL
REMARK 923 INTER-LIGAND FREE ENERGY PREDICTED BY IDOCK:   -6.81 KCAL/MOL
REMARK 924 INTRA-LIGAND FREE ENERGY PREDICTED BY IDOCK:   -0.54 KCAL/MOL
REMARK 927      BINDING AFFINITY PREDICTED BY RF-SCORE:    0.00 PKD
ROOT
HETATM    1  C   UNL     1     -10.106   1.611  74.275  1.00  0.00    -0.096 C  
HETATM    2  N   UNL     1     -10.029   2.873  73.590  1.00  0.00    -0.101 N  
HETATM    3  C   UNL     1      -8.884   3.641  73.612  1.00  0.00    -0.088 C  
HETATM    4  H   UNL     1     -10.842   3.210  73.075  1.00  0.00     0.000 HD 
HETATM    5  O   UNL     1      -7.862   3.315  74.206  1.00  0.00    -0.063 OA 
ENDROOT
BRANCH   3   6
HETATM    6  C   UNL     1      -8.972   4.881  72.854  1.00  0.00    -0.123 A  
HETATM    7  C   UNL     1      -9.918   5.881  72.946  1.00  0.00    -0.173 A  
HETATM    8  N   UNL     1      -9.610   6.847  72.008  1.00  0.00    -0.144 NA 
HETATM    9  N   UNL     1      -8.483   6.520  71.314  1.00  0.00    -0.126 NA 
HETATM   10  C   UNL     1      -8.107   5.348  71.836  1.00  0.00    -0.114 A  
BRANCH   8  11
HETATM   11  C   UNL     1     -10.413   8.013  71.736  1.00  0.00    -0.229 A  
HETATM   12  N   UNL     1     -10.048   8.822  70.709  1.00  0.00    -0.197 NA 
HETATM   13  C   UNL     1     -11.002   9.725  70.421  1.00  0.00    -0.312 A  
HETATM   14  C   UNL     1     -12.205   9.911  71.079  1.00  0.00    -0.353 A  
HETATM   15  N   UNL     1     -12.951  10.899  70.482  1.00  0.00    -0.209 NA 
HETATM   16  C   UNL     1     -12.443   9.089  72.188  1.00  0.00    -0.380 A  
HETATM   17  N   UNL     1     -13.579   9.188  72.980  1.00  0.00    -0.925 NA 
HETATM   18  N   UNL     1     -11.534   8.142  72.497  1.00  0.00    -0.396 NA 
HETATM   19  C   UNL     1     -12.234  11.279  69.448  1.00  0.00    -0.247 A  
HETATM   20  H1  UNL     1     -13.752   8.589  73.787  1.00  0.00     0.000 HD 
HETATM   21  N   UNL     1     -11.022  10.631  69.393  1.00  0.00    -0.237 NA 
HETATM   22  H2  UNL     1     -14.387   9.107  72.364  1.00  0.00     0.000 HD 
BRANCH  21  23
HETATM   23  C1* UNL     1     -10.020  10.873  68.383  1.00  0.00    -0.178 C  
HETATM   24  O4* UNL     1      -9.342  12.102  68.699  1.00  0.00    -0.141 OA 
HETATM   25  C4* UNL     1      -9.764  13.123  67.772  1.00  0.00    -0.218 C  
HETATM   26  C3* UNL     1     -10.443  12.432  66.581  1.00  0.00    -0.229 C  
HETATM   27  H2* UNL     1      -9.942  10.165  65.215  1.00  0.00     0.000 HD 
HETATM   28  C2* UNL     1     -10.498  10.942  66.934  1.00  0.00    -0.249 C  
HETATM   29  O2* UNL     1      -9.644  10.122  66.116  1.00  0.00    -0.180 OA 
HETATM   30  O3* UNL     1      -9.719  12.640  65.361  1.00  0.00    -0.423 OA 
HETATM   31  H3* UNL     1     -10.140  12.213  64.625  1.00  0.00     0.000 HD 
BRANCH  25  32
HETATM   32  C5* UNL     1     -10.664  14.125  68.510  1.00  0.00    -0.254 C  
HETATM   33  O5* UNL     1      -9.996  14.618  69.675  1.00  0.00    -0.423 OA 
HETATM   34  H5* UNL     1     -10.552  15.238  70.131  1.00  0.00     0.000 HD 
ENDBRANCH  25  32
ENDBRANCH  21  23
ENDBRANCH   8  11
ENDBRANCH   3   6
TORSDOF 4
ENDMDL
MODEL      119
REMARK 921   NORMALIZED FREE ENERGY PREDICTED BY IDOCK:   -5.53 KCAL/MOL
REMARK 922        TOTAL FREE ENERGY PREDICTED BY IDOCK:   -7.33 KCAL/MOL
REMARK 923 INTER-LIGAND FREE ENERGY PREDICTED BY IDOCK:   -6.76 KCAL/MOL
REMARK 924 INTRA-LIGAND FREE ENERGY PREDICTED BY IDOCK:   -0.58 KCAL/MOL
REMARK 927      BINDING AFFINITY PREDICTED BY RF-SCORE:    0.00 PKD
ROOT
HETATM    1  C   UNL     1     -12.509  15.941  73.641  1.00  0.00    -0.596 C  
HETATM    2  N   UNL     1     -12.182  14.834  72.782  1.00  0.00    -0.269 N  
HETATM    3  C   UNL     1     -13.157  14.024  72.241  1.00  0.00    -0.423 C  
HETATM    4  H   UNL     1     -11.203  14.644  72.568  1.00  0.00     0.000 HD 
HETATM    5  O   UNL     1     -14.355  14.178  72.446  1.00  0.00    -0.586 OA 
ENDROOT
BRANCH   3   6
HETATM    6  C   UNL     1     -12.652  12.961  71.383  1.00  0.00    -0.319 A  
HETATM    7  C   UNL     1     -12.786  11.596  71.532  1.00  0.00    -0.364 A  
HETATM    8  N   UNL     1     -12.116  10.985  70.490  1.00  0.00    -0.348 NA 
HETATM    9  N   UNL     1     -11.560  11.906  69.653  1.00  0.00    -0.316 NA 
HETATM   10  C   UNL     1     -11.897  13.083  70.192  1.00  0.00    -0.252 A  
BRANCH   8  11
HETATM   11  C   UNL     1     -11.953   9.560  70.342  1.00  0.00    -0.066 A  
HETATM   12  N   UNL     1     -11.145   9.104  69.351  1.00  0.00    -0.086 NA 
HETATM   13  C   UNL     1     -10.900   7.787  69.475  1.00  0.00    -0.153 A  
HETATM   14  C   UNL     1     -11.415   6.925  70.426  1.00  0.00    -0.338 A  
HETATM   15  N   UNL     1     -10.910   5.655  70.272  1.00  0.00    -0.294 NA 
HETATM   16  C   UNL     1     -12.317   7.476  71.344  1.00  0.00    -0.345 A  
HETATM   17  N   UNL     1     -12.957   6.731  72.325  1.00  0.00    -0.536 NA 
HETATM   18  N   UNL     1     -12.570   8.800  71.287  1.00  0.00    -0.284 NA 
HETATM   19  C   UNL     1     -10.066   5.752  69.269  1.00  0.00    -0.205 A  
HETATM   20  H1  UNL     1     -13.614   7.133  72.994  1.00  0.00     0.000 HD 
HETATM   21  N   UNL     1     -10.057   7.013  68.721  1.00  0.00    -0.164 NA 
HETATM   22  H2  UNL     1     -12.235   6.250  72.861  1.00  0.00     0.000 HD 
BRANCH  21  23
HETATM   23  C1* UNL     1      -9.248   7.397  67.589  1.00  0.00    -0.127 C  
HETATM   24  O4* UNL     1      -8.104   6.527  67.532  1.00  0.00    -0.118 OA 
HETATM   25  C4* UNL     1      -6.933   7.261  67.945  1.00  0.00    -0.076 C  
HETATM   26  C3* UNL     1      -7.272   8.759  67.897  1.00  0.00    -0.084 C  
HETATM   27  H2* UNL     1      -8.711  10.285  66.206  1.00  0.00     0.000 HD 
HETATM   28  C2* UNL     1      -8.760   8.843  67.544  1.00  0.00    -0.123 C  
HETATM   29  O2* UNL     1      -9.014   9.385  66.235  1.00  0.00    -0.143 OA 
HETATM   30  O3* UNL     1      -6.477   9.453  66.926  1.00  0.00    -0.065 OA 
HETATM   31  H3* UNL     1      -6.687  10.379  66.897  1.00  0.00     0.000 HD 
BRANCH  25  32
HETATM   32  C5* UNL     1      -6.495   6.764  69.330  1.00  0.00    -0.044 C  
HETATM   33  O5* UNL     1      -6.287   7.874  70.206  1.00  0.00    -0.036 OA 
HETATM   34  H5* UNL     1      -6.017   7.566  71.063  1.00  0.00     0.000 HD 
ENDBRANCH  25  32
ENDBRANCH  21  23
ENDBRANCH   8  11
ENDBRANCH   3   6
TORSDOF 4
ENDMDL
MODEL      120
REMARK 921   NORMALIZED FREE ENERGY PREDICTED BY IDOCK:   -5.48 KCAL/MOL
REMARK 922        TOTAL FREE ENERGY PREDICTED BY IDOCK:   -7.28 KCAL/MOL
REMARK 923 INTER-LIGAND FREE ENERGY PREDICTED BY IDOCK:   -6.82 KCAL/MOL
REMARK 924 INTRA-LIGAND FREE ENERGY PREDICTED BY IDOCK:   -0.46 KCAL/MOL
REMARK 927      BINDING AFFINITY PREDICTED BY RF-SCORE:    0.00 PKD
ROOT
HETATM    1  C   UNL     1     -10.341   5.370  72.663  1.00  0.00    -0.203 C  
HETATM    2  N   UNL     1     -10.206   5.656  71.260  1.00  0.00    -0.212 N  
HETATM    3  C   UNL     1      -9.828   4.687  70.355  1.00  0.00    -0.236 C  
HETATM    4  H   UNL     1     -10.395   6.600  70.925  1.00  0.00     0.000 HD 
HETATM    5  O   UNL     1      -9.580   3.528  70.669  1.00  0.00    -0.169 OA 
ENDROOT
BRANCH   3   6
HETATM    6  C   UNL     1      -9.756   5.144  68.975  1.00  0.00    -0.227 A  
HETATM    7  C   UNL     1      -9.430   6.397  68.498  1.00  0.00    -0.120 A  
HETATM    8  N   UNL     1      -9.524   6.366  67.120  1.00  0.00    -0.126 NA 
HETATM    9  N   UNL     1      -9.885   5.129  66.677  1.00  0.00    -0.168 NA 
HETATM   10  C   UNL     1     -10.010   4.406  67.794  1.00  0.00    -0.037 A  
BRANCH   8  11
HETATM   11  C   UNL     1      -9.343   7.509  66.259  1.00  0.00    -0.120 A  
HETATM   12  N   UNL     1     -10.065   8.629  66.515  1.00  0.00    -0.287 NA 
HETATM   13  C   UNL     1      -9.630   9.678  65.794  1.00  0.00    -0.263 A  
HETATM   14  C   UNL     1      -8.622   9.683  64.847  1.00  0.00    -0.170 A  
HETATM   15  N   UNL     1      -8.420  10.946  64.341  1.00  0.00     0.015 NA 
HETATM   16  C   UNL     1      -8.005   8.453  64.586  1.00  0.00    -0.147 A  
HETATM   17  N   UNL     1      -7.013   8.286  63.629  1.00  0.00    -0.083 NA 
HETATM   18  N   UNL     1      -8.379   7.377  65.308  1.00  0.00    -0.131 NA 
HETATM   19  C   UNL     1      -9.263  11.708  65.002  1.00  0.00     0.045 A  
HETATM   20  H1  UNL     1      -6.564   7.390  63.439  1.00  0.00     0.000 HD 
HETATM   21  N   UNL     1     -10.052  10.980  65.862  1.00  0.00    -0.240 NA 
HETATM   22  H2  UNL     1      -6.274   8.957  63.836  1.00  0.00     0.000 HD 
BRANCH  21  23
HETATM   23  C1* UNL     1     -11.085  11.553  66.692  1.00  0.00    -0.295 C  
HETATM   24  O4* UNL     1     -12.205  11.893  65.854  1.00  0.00    -0.435 OA 
HETATM   25  C4* UNL     1     -12.265  13.327  65.709  1.00  0.00    -0.456 C  
HETATM   26  C3* UNL     1     -11.385  13.951  66.802  1.00  0.00    -0.333 C  
HETATM   27  H2* UNL     1     -10.930  13.353  69.389  1.00  0.00     0.000 HD 
HETATM   28  C2* UNL     1     -10.710  12.779  67.521  1.00  0.00    -0.229 C  
HETATM   29  O2* UNL     1     -11.164  12.591  68.873  1.00  0.00    -0.251 OA 
HETATM   30  O3* UNL     1     -12.155  14.737  67.721  1.00  0.00    -0.548 OA 
HETATM   31  H3* UNL     1     -11.611  15.123  68.397  1.00  0.00     0.000 HD 
BRANCH  25  32
HETATM   32  C5* UNL     1     -11.846  13.700  64.279  1.00  0.00    -0.425 C  
HETATM   33  O5* UNL     1     -12.570  14.852  63.842  1.00  0.00    -0.964 OA 
HETATM   34  H5* UNL     1     -12.311  15.084  62.958  1.00  0.00     0.000 HD 
ENDBRANCH  25  32
ENDBRANCH  21  23
ENDBRANCH   8  11
ENDBRANCH   3   6
TORSDOF 4
ENDMDL
MODEL      121
REMARK 921   NORMALIZED FREE ENERGY PREDICTED BY IDOCK:   -5.45 KCAL/MOL
REMARK 922        TOTAL FREE ENERGY PREDICTED BY IDOCK:   -7.23 KCAL/MOL
REMARK 923 INTER-LIGAND FREE ENERGY PREDICTED BY IDOCK:   -6.52 KCAL/MOL
REMARK 924 INTRA-LIGAND FREE ENERGY PREDICTED BY IDOCK:   -0.71 KCAL/MOL
REMARK 927      BINDING AFFINITY PREDICTED BY RF-SCORE:    0.00 PKD
ROOT
HETATM    1  C   UNL     1      -9.733   2.511  72.789  1.00  0.00    -0.118 C  
HETATM    2  N   UNL     1     -10.455   3.689  72.391  1.00  0.00    -0.101 N  
HETATM    3  C   UNL     1     -10.007   4.955  72.703  1.00  0.00    -0.165 C  
HETATM    4  H   UNL     1     -11.322   3.586  71.864  1.00  0.00     0.000 HD 
HETATM    5  O   UNL     1      -8.979   5.172  73.333  1.00  0.00    -0.120 OA 
ENDROOT
BRANCH   3   6
HETATM    6  C   UNL     1     -10.851   6.034  72.210  1.00  0.00    -0.289 A  
HETATM    7  C   UNL     1     -10.474   7.213  71.599  1.00  0.00    -0.198 A  
HETATM    8  N   UNL     1     -11.617   7.940  71.334  1.00  0.00    -0.266 NA 
HETATM    9  N   UNL     1     -12.734   7.270  71.736  1.00  0.00    -0.342 NA 
HETATM   10  C   UNL     1     -12.263   6.129  72.248  1.00  0.00    -0.122 A  
BRANCH   8  11
HETATM   11  C   UNL     1     -11.633   9.270  70.776  1.00  0.00    -0.285 A  
HETATM   12  N   UNL     1     -11.093   9.459  69.545  1.00  0.00    -0.169 NA 
HETATM   13  C   UNL     1     -11.384  10.677  69.055  1.00  0.00    -0.277 A  
HETATM   14  C   UNL     1     -12.087  11.688  69.686  1.00  0.00    -0.280 A  
HETATM   15  N   UNL     1     -12.230  12.783  68.865  1.00  0.00    -0.103 NA 
HETATM   16  C   UNL     1     -12.517  11.427  70.993  1.00  0.00    -0.383 A  
HETATM   17  N   UNL     1     -13.189  12.358  71.774  1.00  0.00    -0.412 NA 
HETATM   18  N   UNL     1     -12.283  10.208  71.519  1.00  0.00    -0.386 NA 
HETATM   19  C   UNL     1     -11.661  12.427  67.734  1.00  0.00    -0.350 A  
HETATM   20  H1  UNL     1     -13.502  12.167  72.726  1.00  0.00     0.000 HD 
HETATM   21  N   UNL     1     -11.092  11.177  67.813  1.00  0.00    -0.263 NA 
HETATM   22  H2  UNL     1     -14.003  12.669  71.244  1.00  0.00     0.000 HD 
BRANCH  21  23
HETATM   23  C1* UNL     1     -10.374  10.546  66.731  1.00  0.00    -0.245 C  
HETATM   24  O4* UNL     1      -9.521   9.528  67.284  1.00  0.00    -0.132 OA 
HETATM   25  C4* UNL     1      -8.152   9.980  67.225  1.00  0.00    -0.114 C  
HETATM   26  C3* UNL     1      -8.086  11.164  66.249  1.00  0.00    -0.142 C  
HETATM   27  H2* UNL     1      -9.287  11.708  63.901  1.00  0.00     0.000 HD 
HETATM   28  C2* UNL     1      -9.532  11.452  65.836  1.00  0.00    -0.228 C  
HETATM   29  O2* UNL     1      -9.812  11.145  64.458  1.00  0.00    -0.243 OA 
HETATM   30  O3* UNL     1      -7.277  10.865  65.103  1.00  0.00    -0.355 OA 
HETATM   31  H3* UNL     1      -7.236  11.598  64.501  1.00  0.00     0.000 HD 
BRANCH  25  32
HETATM   32  C5* UNL     1      -7.675  10.312  68.646  1.00  0.00    -0.094 C  
HETATM   33  O5* UNL     1      -8.124  11.617  69.020  1.00  0.00    -0.340 OA 
HETATM   34  H5* UNL     1      -7.829  11.823  69.899  1.00  0.00     0.000 HD 
ENDBRANCH  25  32
ENDBRANCH  21  23
ENDBRANCH   8  11
ENDBRANCH   3   6
TORSDOF 4
ENDMDL
MODEL      122
REMARK 921   NORMALIZED FREE ENERGY PREDICTED BY IDOCK:   -5.43 KCAL/MOL
REMARK 922        TOTAL FREE ENERGY PREDICTED BY IDOCK:   -7.21 KCAL/MOL
REMARK 923 INTER-LIGAND FREE ENERGY PREDICTED BY IDOCK:   -6.52 KCAL/MOL
REMARK 924 INTRA-LIGAND FREE ENERGY PREDICTED BY IDOCK:   -0.69 KCAL/MOL
REMARK 927      BINDING AFFINITY PREDICTED BY RF-SCORE:    0.00 PKD
ROOT
HETATM    1  C   UNL     1     -13.515  16.057  72.977  1.00  0.00    -0.486 C  
HETATM    2  N   UNL     1     -13.192  14.700  72.626  1.00  0.00    -0.429 N  
HETATM    3  C   UNL     1     -13.064  14.301  71.312  1.00  0.00    -0.355 C  
HETATM    4  H   UNL     1     -13.055  14.014  73.368  1.00  0.00     0.000 HD 
HETATM    5  O   UNL     1     -13.213  15.056  70.359  1.00  0.00    -0.249 OA 
ENDROOT
BRANCH   3   6
HETATM    6  C   UNL     1     -12.719  12.897  71.137  1.00  0.00    -0.366 A  
HETATM    7  C   UNL     1     -11.839  12.332  70.238  1.00  0.00    -0.240 A  
HETATM    8  N   UNL     1     -11.862  10.963  70.421  1.00  0.00    -0.330 NA 
HETATM    9  N   UNL     1     -12.717  10.614  71.424  1.00  0.00    -0.408 NA 
HETATM   10  C   UNL     1     -13.215  11.779  71.849  1.00  0.00    -0.362 A  
BRANCH   8  11
HETATM   11  C   UNL     1     -11.139  10.014  69.612  1.00  0.00    -0.259 A  
HETATM   12  N   UNL     1     -10.811   8.817  70.161  1.00  0.00    -0.228 NA 
HETATM   13  C   UNL     1     -10.357   7.952  69.237  1.00  0.00    -0.220 A  
HETATM   14  C   UNL     1     -10.162   8.193  67.888  1.00  0.00    -0.218 A  
HETATM   15  N   UNL     1      -9.726   7.062  67.239  1.00  0.00    -0.141 NA 
HETATM   16  C   UNL     1     -10.438   9.490  67.440  1.00  0.00    -0.272 A  
HETATM   17  N   UNL     1     -10.245   9.901  66.128  1.00  0.00    -0.237 NA 
HETATM   18  N   UNL     1     -10.931  10.387  68.319  1.00  0.00    -0.253 NA 
HETATM   19  C   UNL     1      -9.698   6.133  68.169  1.00  0.00    -0.120 A  
HETATM   20  H1  UNL     1     -10.447  10.846  65.802  1.00  0.00     0.000 HD 
HETATM   21  N   UNL     1     -10.026   6.633  69.407  1.00  0.00    -0.154 NA 
HETATM   22  H2  UNL     1     -10.762   9.257  65.529  1.00  0.00     0.000 HD 
BRANCH  21  23
HETATM   23  C1* UNL     1     -10.048   5.845  70.617  1.00  0.00    -0.197 C  
HETATM   24  O4* UNL     1      -9.590   6.669  71.704  1.00  0.00    -0.163 OA 
HETATM   25  C4* UNL     1      -8.263   6.250  72.084  1.00  0.00    -0.109 C  
HETATM   26  C3* UNL     1      -8.013   4.861  71.478  1.00  0.00    -0.110 C  
HETATM   27  H2* UNL     1      -9.554   2.678  71.135  1.00  0.00     0.000 HD 
HETATM   28  C2* UNL     1      -9.239   4.550  70.616  1.00  0.00    -0.135 C  
HETATM   29  O2* UNL     1     -10.056   3.485  71.135  1.00  0.00    -0.094 OA 
HETATM   30  O3* UNL     1      -7.835   3.863  72.493  1.00  0.00    -0.077 OA 
HETATM   31  H3* UNL     1      -7.680   3.004  72.118  1.00  0.00     0.000 HD 
BRANCH  25  32
HETATM   32  C5* UNL     1      -7.255   7.319  71.636  1.00  0.00    -0.075 C  
HETATM   33  O5* UNL     1      -7.737   8.621  71.978  1.00  0.00    -0.230 OA 
HETATM   34  H5* UNL     1      -7.114   9.282  71.700  1.00  0.00     0.000 HD 
ENDBRANCH  25  32
ENDBRANCH  21  23
ENDBRANCH   8  11
ENDBRANCH   3   6
TORSDOF 4
ENDMDL
MODEL      123
REMARK 921   NORMALIZED FREE ENERGY PREDICTED BY IDOCK:   -5.41 KCAL/MOL
REMARK 922        TOTAL FREE ENERGY PREDICTED BY IDOCK:   -7.19 KCAL/MOL
REMARK 923 INTER-LIGAND FREE ENERGY PREDICTED BY IDOCK:   -6.74 KCAL/MOL
REMARK 924 INTRA-LIGAND FREE ENERGY PREDICTED BY IDOCK:   -0.45 KCAL/MOL
REMARK 927      BINDING AFFINITY PREDICTED BY RF-SCORE:    0.00 PKD
ROOT
HETATM    1  C   UNL     1      -9.231   2.385  73.836  1.00  0.00    -0.080 C  
HETATM    2  N   UNL     1      -9.972   3.483  73.276  1.00  0.00    -0.120 N  
HETATM    3  C   UNL     1      -9.670   4.793  73.581  1.00  0.00    -0.136 C  
HETATM    4  H   UNL     1     -10.742   3.287  72.636  1.00  0.00     0.000 HD 
HETATM    5  O   UNL     1      -8.765   5.120  74.339  1.00  0.00    -0.112 OA 
ENDROOT
BRANCH   3   6
HETATM    6  C   UNL     1     -10.510   5.778  72.914  1.00  0.00    -0.244 A  
HETATM    7  C   UNL     1     -10.189   7.063  72.525  1.00  0.00    -0.184 A  
HETATM    8  N   UNL     1     -11.313   7.631  71.958  1.00  0.00    -0.265 NA 
HETATM    9  N   UNL     1     -12.357   6.754  71.948  1.00  0.00    -0.343 NA 
HETATM   10  C   UNL     1     -11.861   5.648  72.512  1.00  0.00    -0.134 A  
BRANCH   8  11
HETATM   11  C   UNL     1     -11.404   8.997  71.506  1.00  0.00    -0.346 A  
HETATM   12  N   UNL     1     -10.675   9.366  70.422  1.00  0.00    -0.242 NA 
HETATM   13  C   UNL     1     -11.031  10.583  69.973  1.00  0.00    -0.286 A  
HETATM   14  C   UNL     1     -11.967  11.439  70.525  1.00  0.00    -0.356 A  
HETATM   15  N   UNL     1     -12.101  12.582  69.773  1.00  0.00    -0.264 NA 
HETATM   16  C   UNL     1     -12.593  11.004  71.700  1.00  0.00    -0.297 A  
HETATM   17  N   UNL     1     -13.517  11.769  72.399  1.00  0.00    -0.498 NA 
HETATM   18  N   UNL     1     -12.299   9.775  72.173  1.00  0.00    -0.255 NA 
HETATM   19  C   UNL     1     -11.290  12.407  68.753  1.00  0.00    -0.293 A  
HETATM   20  H1  UNL     1     -13.973  11.452  73.255  1.00  0.00     0.000 HD 
HETATM   21  N   UNL     1     -10.584  11.232  68.852  1.00  0.00    -0.201 NA 
HETATM   22  H2  UNL     1     -14.253  12.032  71.744  1.00  0.00     0.000 HD 
BRANCH  21  23
HETATM   23  C1* UNL     1      -9.600  10.797  67.889  1.00  0.00    -0.160 C  
HETATM   24  O4* UNL     1      -9.343  11.881  66.979  1.00  0.00    -0.179 OA 
HETATM   25  C4* UNL     1      -9.949  11.579  65.705  1.00  0.00    -0.233 C  
HETATM   26  C3* UNL     1     -10.276  10.079  65.680  1.00  0.00    -0.188 C  
HETATM   27  H2* UNL     1      -9.003   7.884  66.585  1.00  0.00     0.000 HD 
HETATM   28  C2* UNL     1      -9.930   9.548  67.074  1.00  0.00    -0.213 C  
HETATM   29  O2* UNL     1      -8.798   8.660  67.092  1.00  0.00    -0.126 OA 
HETATM   30  O3* UNL     1      -9.526   9.388  64.671  1.00  0.00    -0.441 OA 
HETATM   31  H3* UNL     1      -9.729   8.460  64.655  1.00  0.00     0.000 HD 
BRANCH  25  32
HETATM   32  C5* UNL     1     -11.170  12.489  65.506  1.00  0.00    -0.314 C  
HETATM   33  O5* UNL     1     -12.276  11.724  65.022  1.00  0.00    -0.226 OA 
HETATM   34  H5* UNL     1     -13.032  12.286  64.899  1.00  0.00     0.000 HD 
ENDBRANCH  25  32
ENDBRANCH  21  23
ENDBRANCH   8  11
ENDBRANCH   3   6
TORSDOF 4
ENDMDL
MODEL      124
REMARK 921   NORMALIZED FREE ENERGY PREDICTED BY IDOCK:   -5.40 KCAL/MOL
REMARK 922        TOTAL FREE ENERGY PREDICTED BY IDOCK:   -7.18 KCAL/MOL
REMARK 923 INTER-LIGAND FREE ENERGY PREDICTED BY IDOCK:   -6.22 KCAL/MOL
REMARK 924 INTRA-LIGAND FREE ENERGY PREDICTED BY IDOCK:   -0.96 KCAL/MOL
REMARK 927      BINDING AFFINITY PREDICTED BY RF-SCORE:    0.00 PKD
ROOT
HETATM    1  C   UNL     1      -7.910  10.388  62.678  1.00  0.00    -0.152 C  
HETATM    2  N   UNL     1      -8.531  10.710  63.935  1.00  0.00    -0.320 N  
HETATM    3  C   UNL     1      -9.666  11.489  64.004  1.00  0.00    -0.223 C  
HETATM    4  H   UNL     1      -8.121  10.353  64.797  1.00  0.00     0.000 HD 
HETATM    5  O   UNL     1     -10.225  11.960  63.021  1.00  0.00    -0.365 OA 
ENDROOT
BRANCH   3   6
HETATM    6  C   UNL     1     -10.171  11.703  65.353  1.00  0.00    -0.306 A  
HETATM    7  C   UNL     1     -10.310  10.788  66.376  1.00  0.00    -0.248 A  
HETATM    8  N   UNL     1     -10.858  11.443  67.462  1.00  0.00    -0.228 NA 
HETATM    9  N   UNL     1     -11.068  12.762  67.190  1.00  0.00    -0.267 NA 
HETATM   10  C   UNL     1     -10.643  12.906  65.930  1.00  0.00    -0.269 A  
BRANCH   8  11
HETATM   11  C   UNL     1     -11.237  10.807  68.700  1.00  0.00    -0.274 A  
HETATM   12  N   UNL     1     -10.724   9.581  68.977  1.00  0.00    -0.221 NA 
HETATM   13  C   UNL     1     -10.966   9.214  70.248  1.00  0.00    -0.245 A  
HETATM   14  C   UNL     1     -11.690   9.914  71.198  1.00  0.00    -0.396 A  
HETATM   15  N   UNL     1     -11.695   9.254  72.405  1.00  0.00    -0.016 NA 
HETATM   16  C   UNL     1     -12.260  11.123  70.781  1.00  0.00    -0.385 A  
HETATM   17  N   UNL     1     -13.054  11.914  71.602  1.00  0.00    -0.407 NA 
HETATM   18  N   UNL     1     -12.017  11.554  69.527  1.00  0.00    -0.331 NA 
HETATM   19  C   UNL     1     -10.948   8.191  72.206  1.00  0.00    -0.332 A  
HETATM   20  H1  UNL     1     -13.469  12.794  71.298  1.00  0.00     0.000 HD 
HETATM   21  N   UNL     1     -10.521   8.096  70.903  1.00  0.00    -0.201 NA 
HETATM   22  H2  UNL     1     -12.519  12.107  72.448  1.00  0.00     0.000 HD 
BRANCH  21  23
HETATM   23  C1* UNL     1      -9.712   7.014  70.393  1.00  0.00    -0.176 C  
HETATM   24  O4* UNL     1      -8.349   7.236  70.797  1.00  0.00    -0.121 OA 
HETATM   25  C4* UNL     1      -7.580   7.648  69.649  1.00  0.00    -0.093 C  
HETATM   26  C3* UNL     1      -8.390   7.306  68.389  1.00  0.00    -0.125 C  
HETATM   27  H2* UNL     1      -9.956   5.228  67.693  1.00  0.00     0.000 HD 
HETATM   28  C2* UNL     1      -9.739   6.778  68.885  1.00  0.00    -0.137 C  
HETATM   29  O2* UNL     1      -9.940   5.375  68.631  1.00  0.00    -0.147 OA 
HETATM   30  O3* UNL     1      -7.725   6.327  67.578  1.00  0.00    -0.098 OA 
HETATM   31  H3* UNL     1      -8.226   6.117  66.799  1.00  0.00     0.000 HD 
BRANCH  25  32
HETATM   32  C5* UNL     1      -7.237   9.138  69.786  1.00  0.00    -0.062 C  
HETATM   33  O5* UNL     1      -7.708   9.857  68.644  1.00  0.00    -0.078 OA 
HETATM   34  H5* UNL     1      -7.496  10.779  68.729  1.00  0.00     0.000 HD 
ENDBRANCH  25  32
ENDBRANCH  21  23
ENDBRANCH   8  11
ENDBRANCH   3   6
TORSDOF 4
ENDMDL
MODEL      125
REMARK 921   NORMALIZED FREE ENERGY PREDICTED BY IDOCK:   -5.37 KCAL/MOL
REMARK 922        TOTAL FREE ENERGY PREDICTED BY IDOCK:   -7.14 KCAL/MOL
REMARK 923 INTER-LIGAND FREE ENERGY PREDICTED BY IDOCK:   -6.44 KCAL/MOL
REMARK 924 INTRA-LIGAND FREE ENERGY PREDICTED BY IDOCK:   -0.70 KCAL/MOL
REMARK 927      BINDING AFFINITY PREDICTED BY RF-SCORE:    0.00 PKD
ROOT
HETATM    1  C   UNL     1     -13.467  14.465  72.143  1.00  0.00    -0.417 C  
HETATM    2  N   UNL     1     -12.796  13.565  71.244  1.00  0.00    -0.351 N  
HETATM    3  C   UNL     1     -12.872  12.197  71.396  1.00  0.00    -0.276 C  
HETATM    4  H   UNL     1     -12.249  13.949  70.473  1.00  0.00     0.000 HD 
HETATM    5  O   UNL     1     -13.503  11.650  72.293  1.00  0.00    -0.397 OA 
ENDROOT
BRANCH   3   6
HETATM    6  C   UNL     1     -12.146  11.435  70.389  1.00  0.00    -0.473 A  
HETATM    7  C   UNL     1     -11.764  10.110  70.421  1.00  0.00    -0.308 A  
HETATM    8  N   UNL     1     -11.072   9.838  69.257  1.00  0.00    -0.192 NA 
HETATM    9  N   UNL     1     -11.002  10.938  68.455  1.00  0.00    -0.217 NA 
HETATM   10  C   UNL     1     -11.657  11.882  69.138  1.00  0.00    -0.312 A  
BRANCH   8  11
HETATM   11  C   UNL     1     -10.436   8.579  68.955  1.00  0.00    -0.200 A  
HETATM   12  N   UNL     1      -9.524   8.091  69.835  1.00  0.00    -0.160 NA 
HETATM   13  C   UNL     1      -9.191   6.819  69.553  1.00  0.00    -0.147 A  
HETATM   14  C   UNL     1      -9.630   6.055  68.487  1.00  0.00    -0.121 A  
HETATM   15  N   UNL     1      -9.112   4.782  68.541  1.00  0.00    -0.111 NA 
HETATM   16  C   UNL     1     -10.493   6.685  67.581  1.00  0.00    -0.227 A  
HETATM   17  N   UNL     1     -10.979   6.068  66.436  1.00  0.00    -0.714 NA 
HETATM   18  N   UNL     1     -10.888   7.949  67.837  1.00  0.00    -0.069 NA 
HETATM   19  C   UNL     1      -8.404   4.757  69.648  1.00  0.00    -0.078 A  
HETATM   20  H1  UNL     1     -11.608   6.526  65.778  1.00  0.00     0.000 HD 
HETATM   21  N   UNL     1      -8.382   5.981  70.274  1.00  0.00    -0.122 NA 
HETATM   22  H2  UNL     1     -11.425   5.198  66.726  1.00  0.00     0.000 HD 
BRANCH  21  23
HETATM   23  C1* UNL     1      -7.657   6.252  71.493  1.00  0.00    -0.099 C  
HETATM   24  O4* UNL     1      -8.458   5.816  72.605  1.00  0.00    -0.120 OA 
HETATM   25  C4* UNL     1      -8.986   6.973  73.286  1.00  0.00    -0.133 C  
HETATM   26  C3* UNL     1      -8.183   8.200  72.827  1.00  0.00    -0.173 C  
HETATM   27  H2* UNL     1      -5.578   8.619  72.281  1.00  0.00     0.000 HD 
HETATM   28  C2* UNL     1      -7.230   7.697  71.739  1.00  0.00    -0.064 C  
HETATM   29  O2* UNL     1      -5.844   7.720  72.128  1.00  0.00    -0.036 OA 
HETATM   30  O3* UNL     1      -7.453   8.794  73.910  1.00  0.00    -0.402 OA 
HETATM   31  H3* UNL     1      -6.957   9.552  73.626  1.00  0.00     0.000 HD 
BRANCH  25  32
HETATM   32  C5* UNL     1     -10.493   7.072  73.007  1.00  0.00    -0.277 C  
HETATM   33  O5* UNL     1     -10.913   5.973  72.196  1.00  0.00    -0.242 OA 
HETATM   34  H5* UNL     1     -11.845   6.034  72.023  1.00  0.00     0.000 HD 
ENDBRANCH  25  32
ENDBRANCH  21  23
ENDBRANCH   8  11
ENDBRANCH   3   6
TORSDOF 4
ENDMDL
MODEL      126
REMARK 921   NORMALIZED FREE ENERGY PREDICTED BY IDOCK:   -5.36 KCAL/MOL
REMARK 922        TOTAL FREE ENERGY PREDICTED BY IDOCK:   -7.13 KCAL/MOL
REMARK 923 INTER-LIGAND FREE ENERGY PREDICTED BY IDOCK:   -6.59 KCAL/MOL
REMARK 924 INTRA-LIGAND FREE ENERGY PREDICTED BY IDOCK:   -0.54 KCAL/MOL
REMARK 927      BINDING AFFINITY PREDICTED BY RF-SCORE:    0.00 PKD
ROOT
HETATM    1  C   UNL     1     -10.372  16.293  68.541  1.00  0.00    -0.261 C  
HETATM    2  N   UNL     1     -10.904  15.124  69.188  1.00  0.00    -0.240 N  
HETATM    3  C   UNL     1     -11.838  15.215  70.198  1.00  0.00    -0.313 C  
HETATM    4  H   UNL     1     -10.583  14.202  68.892  1.00  0.00     0.000 HD 
HETATM    5  O   UNL     1     -12.278  16.279  70.618  1.00  0.00    -0.123 OA 
ENDROOT
BRANCH   3   6
HETATM    6  C   UNL     1     -12.280  13.934  70.731  1.00  0.00    -0.441 A  
HETATM    7  C   UNL     1     -11.869  12.666  70.376  1.00  0.00    -0.154 A  
HETATM    8  N   UNL     1     -12.588  11.758  71.130  1.00  0.00    -0.361 NA 
HETATM    9  N   UNL     1     -13.446  12.391  71.979  1.00  0.00    -0.454 NA 
HETATM   10  C   UNL     1     -13.244  13.691  71.738  1.00  0.00    -0.394 A  
BRANCH   8  11
HETATM   11  C   UNL     1     -12.506  10.326  70.988  1.00  0.00    -0.384 A  
HETATM   12  N   UNL     1     -11.490   9.808  70.253  1.00  0.00    -0.260 NA 
HETATM   13  C   UNL     1     -11.398   8.474  70.399  1.00  0.00    -0.182 A  
HETATM   14  C   UNL     1     -12.231   7.653  71.138  1.00  0.00    -0.285 A  
HETATM   15  N   UNL     1     -11.808   6.345  71.092  1.00  0.00    -0.316 NA 
HETATM   16  C   UNL     1     -13.309   8.274  71.780  1.00  0.00    -0.352 A  
HETATM   17  N   UNL     1     -14.260   7.580  72.517  1.00  0.00    -0.419 NA 
HETATM   18  N   UNL     1     -13.426   9.615  71.696  1.00  0.00    -0.386 NA 
HETATM   19  C   UNL     1     -10.708   6.375  70.373  1.00  0.00    -0.262 A  
HETATM   20  H1  UNL     1     -15.044   8.032  72.985  1.00  0.00     0.000 HD 
HETATM   21  N   UNL     1     -10.441   7.634  69.890  1.00  0.00    -0.226 NA 
HETATM   22  H2  UNL     1     -13.761   7.034  73.220  1.00  0.00     0.000 HD 
BRANCH  21  23
HETATM   23  C1* UNL     1      -9.315   7.955  69.046  1.00  0.00    -0.151 C  
HETATM   24  O4* UNL     1      -8.497   6.779  68.912  1.00  0.00    -0.120 OA 
HETATM   25  C4* UNL     1      -7.292   6.955  69.685  1.00  0.00    -0.086 C  
HETATM   26  C3* UNL     1      -7.154   8.448  70.015  1.00  0.00    -0.047 C  
HETATM   27  H2* UNL     1      -7.646  10.710  68.635  1.00  0.00     0.000 HD 
HETATM   28  C2* UNL     1      -8.426   9.116  69.485  1.00  0.00    -0.128 C  
HETATM   29  O2* UNL     1      -8.199   9.987  68.362  1.00  0.00    -0.103 OA 
HETATM   30  O3* UNL     1      -5.987   9.022  69.409  1.00  0.00    -0.037 OA 
HETATM   31  H3* UNL     1      -5.902   9.945  69.614  1.00  0.00     0.000 HD 
BRANCH  25  32
HETATM   32  C5* UNL     1      -7.355   6.044  70.920  1.00  0.00    -0.082 C  
HETATM   33  O5* UNL     1      -6.033   5.695  71.338  1.00  0.00    -0.027 OA 
HETATM   34  H5* UNL     1      -6.072   5.132  72.102  1.00  0.00     0.000 HD 
ENDBRANCH  25  32
ENDBRANCH  21  23
ENDBRANCH   8  11
ENDBRANCH   3   6
TORSDOF 4
ENDMDL
MODEL      127
REMARK 921   NORMALIZED FREE ENERGY PREDICTED BY IDOCK:   -5.35 KCAL/MOL
REMARK 922        TOTAL FREE ENERGY PREDICTED BY IDOCK:   -7.12 KCAL/MOL
REMARK 923 INTER-LIGAND FREE ENERGY PREDICTED BY IDOCK:   -6.59 KCAL/MOL
REMARK 924 INTRA-LIGAND FREE ENERGY PREDICTED BY IDOCK:   -0.53 KCAL/MOL
REMARK 927      BINDING AFFINITY PREDICTED BY RF-SCORE:    0.00 PKD
ROOT
HETATM    1  C   UNL     1     -13.397  15.879  73.353  1.00  0.00    -0.510 C  
HETATM    2  N   UNL     1     -12.874  14.855  72.489  1.00  0.00    -0.343 N  
HETATM    3  C   UNL     1     -13.166  14.823  71.142  1.00  0.00    -0.393 C  
HETATM    4  H   UNL     1     -12.271  14.133  72.883  1.00  0.00     0.000 HD 
HETATM    5  O   UNL     1     -13.881  15.648  70.585  1.00  0.00    -0.346 OA 
ENDROOT
BRANCH   3   6
HETATM    6  C   UNL     1     -12.541  13.728  70.414  1.00  0.00    -0.325 A  
HETATM    7  C   UNL     1     -11.842  13.772  69.225  1.00  0.00    -0.344 A  
HETATM    8  N   UNL     1     -11.463  12.483  68.905  1.00  0.00    -0.285 NA 
HETATM    9  N   UNL     1     -11.877  11.596  69.855  1.00  0.00    -0.337 NA 
HETATM   10  C   UNL     1     -12.511  12.355  70.755  1.00  0.00    -0.267 A  
BRANCH   8  11
HETATM   11  C   UNL     1     -10.787  12.103  67.690  1.00  0.00    -0.233 A  
HETATM   12  N   UNL     1     -10.414  10.807  67.538  1.00  0.00    -0.206 NA 
HETATM   13  C   UNL     1     -10.014  10.547  66.280  1.00  0.00    -0.221 A  
HETATM   14  C   UNL     1      -9.909  11.445  65.232  1.00  0.00    -0.248 A  
HETATM   15  N   UNL     1      -9.507  10.817  64.077  1.00  0.00    -0.248 NA 
HETATM   16  C   UNL     1     -10.224  12.779  65.520  1.00  0.00    -0.279 A  
HETATM   17  N   UNL     1     -10.120  13.804  64.589  1.00  0.00    -0.619 NA 
HETATM   18  N   UNL     1     -10.666  13.087  66.756  1.00  0.00    -0.261 NA 
HETATM   19  C   UNL     1      -9.411   9.547  64.404  1.00  0.00    -0.054 A  
HETATM   20  H1  UNL     1     -10.350  14.775  64.799  1.00  0.00     0.000 HD 
HETATM   21  N   UNL     1      -9.663   9.338  65.740  1.00  0.00    -0.286 NA 
HETATM   22  H2  UNL     1     -10.669  13.532  63.774  1.00  0.00     0.000 HD 
BRANCH  21  23
HETATM   23  C1* UNL     1      -9.599   8.047  66.382  1.00  0.00    -0.197 C  
HETATM   24  O4* UNL     1      -9.060   8.222  67.705  1.00  0.00    -0.131 OA 
HETATM   25  C4* UNL     1      -7.711   7.714  67.734  1.00  0.00    -0.122 C  
HETATM   26  C3* UNL     1      -7.510   6.831  66.493  1.00  0.00    -0.078 C  
HETATM   27  H2* UNL     1      -9.080   5.071  65.190  1.00  0.00     0.000 HD 
HETATM   28  C2* UNL     1      -8.797   6.957  65.673  1.00  0.00    -0.016 C  
HETATM   29  O2* UNL     1      -9.578   5.749  65.631  1.00  0.00    -0.009 OA 
HETATM   30  O3* UNL     1      -7.263   5.463  66.847  1.00  0.00    -0.075 OA 
HETATM   31  H3* UNL     1      -7.139   4.918  66.079  1.00  0.00     0.000 HD 
BRANCH  25  32
HETATM   32  C5* UNL     1      -6.734   8.895  67.825  1.00  0.00    -0.066 C  
HETATM   33  O5* UNL     1      -7.196   9.976  67.011  1.00  0.00    -0.089 OA 
HETATM   34  H5* UNL     1      -6.593  10.707  67.068  1.00  0.00     0.000 HD 
ENDBRANCH  25  32
ENDBRANCH  21  23
ENDBRANCH   8  11
ENDBRANCH   3   6
TORSDOF 4
ENDMDL
MODEL      128
REMARK 921   NORMALIZED FREE ENERGY PREDICTED BY IDOCK:   -5.35 KCAL/MOL
REMARK 922        TOTAL FREE ENERGY PREDICTED BY IDOCK:   -7.11 KCAL/MOL
REMARK 923 INTER-LIGAND FREE ENERGY PREDICTED BY IDOCK:   -6.61 KCAL/MOL
REMARK 924 INTRA-LIGAND FREE ENERGY PREDICTED BY IDOCK:   -0.50 KCAL/MOL
REMARK 927      BINDING AFFINITY PREDICTED BY RF-SCORE:    0.00 PKD
ROOT
HETATM    1  C   UNL     1     -11.288  15.270  66.738  1.00  0.00    -0.183 C  
HETATM    2  N   UNL     1     -11.524  14.218  67.690  1.00  0.00    -0.327 N  
HETATM    3  C   UNL     1     -11.753  14.484  69.023  1.00  0.00    -0.311 C  
HETATM    4  H   UNL     1     -11.523  13.249  67.371  1.00  0.00     0.000 HD 
HETATM    5  O   UNL     1     -11.771  15.616  69.494  1.00  0.00    -0.328 OA 
ENDROOT
BRANCH   3   6
HETATM    6  C   UNL     1     -11.990  13.305  69.844  1.00  0.00    -0.400 A  
HETATM    7  C   UNL     1     -11.545  12.014  69.645  1.00  0.00    -0.301 A  
HETATM    8  N   UNL     1     -12.044  11.229  70.666  1.00  0.00    -0.377 NA 
HETATM    9  N   UNL     1     -12.790  11.966  71.537  1.00  0.00    -0.367 NA 
HETATM   10  C   UNL     1     -12.740  13.207  71.039  1.00  0.00    -0.277 A  
BRANCH   8  11
HETATM   11  C   UNL     1     -11.872   9.801  70.763  1.00  0.00    -0.319 A  
HETATM   12  N   UNL     1     -11.620   9.103  69.627  1.00  0.00     0.199 NA 
HETATM   13  C   UNL     1     -11.251   7.837  69.890  1.00  0.00    -0.062 A  
HETATM   14  C   UNL     1     -11.170   7.228  71.130  1.00  0.00    -0.259 A  
HETATM   15  N   UNL     1     -10.714   5.935  71.021  1.00  0.00    -0.256 NA 
HETATM   16  C   UNL     1     -11.545   8.007  72.232  1.00  0.00    -0.366 A  
HETATM   17  N   UNL     1     -11.567   7.524  73.534  1.00  0.00    -0.342 NA 
HETATM   18  N   UNL     1     -11.890   9.294  72.027  1.00  0.00    -0.346 NA 
HETATM   19  C   UNL     1     -10.478   5.773  69.738  1.00  0.00    -0.292 A  
HETATM   20  H1  UNL     1     -11.840   8.091  74.336  1.00  0.00     0.000 HD 
HETATM   21  N   UNL     1     -10.831   6.880  69.003  1.00  0.00    -0.226 NA 
HETATM   22  H2  UNL     1     -10.641   7.144  73.732  1.00  0.00     0.000 HD 
BRANCH  21  23
HETATM   23  C1* UNL     1     -10.709   6.970  67.568  1.00  0.00    -0.281 C  
HETATM   24  O4* UNL     1     -10.520   5.644  67.043  1.00  0.00    -0.226 OA 
HETATM   25  C4* UNL     1      -9.149   5.497  66.619  1.00  0.00    -0.126 C  
HETATM   26  C3* UNL     1      -8.533   6.901  66.512  1.00  0.00    -0.125 C  
HETATM   27  H2* UNL     1      -9.466   9.278  65.652  1.00  0.00     0.000 HD 
HETATM   28  C2* UNL     1      -9.604   7.871  67.020  1.00  0.00    -0.192 C  
HETATM   29  O2* UNL     1     -10.153   8.717  65.993  1.00  0.00    -0.228 OA 
HETATM   30  O3* UNL     1      -8.159   7.215  65.164  1.00  0.00    -0.123 OA 
HETATM   31  H3* UNL     1      -7.778   8.083  65.098  1.00  0.00     0.000 HD 
BRANCH  25  32
HETATM   32  C5* UNL     1      -8.420   4.569  67.602  1.00  0.00    -0.103 C  
HETATM   33  O5* UNL     1      -7.411   5.297  68.306  1.00  0.00    -0.069 OA 
HETATM   34  H5* UNL     1      -6.960   4.722  68.914  1.00  0.00     0.000 HD 
ENDBRANCH  25  32
ENDBRANCH  21  23
ENDBRANCH   8  11
ENDBRANCH   3   6
TORSDOF 4
ENDMDL
MODEL      129
REMARK 921   NORMALIZED FREE ENERGY PREDICTED BY IDOCK:   -5.31 KCAL/MOL
REMARK 922        TOTAL FREE ENERGY PREDICTED BY IDOCK:   -7.06 KCAL/MOL
REMARK 923 INTER-LIGAND FREE ENERGY PREDICTED BY IDOCK:   -6.34 KCAL/MOL
REMARK 924 INTRA-LIGAND FREE ENERGY PREDICTED BY IDOCK:   -0.72 KCAL/MOL
REMARK 927      BINDING AFFINITY PREDICTED BY RF-SCORE:    0.00 PKD
ROOT
HETATM    1  C   UNL     1     -10.657   3.284  63.631  1.00  0.00    -0.258 C  
HETATM    2  N   UNL     1     -10.350   4.385  64.503  1.00  0.00    -0.429 N  
HETATM    3  C   UNL     1      -9.083   4.577  65.010  1.00  0.00    -0.152 C  
HETATM    4  H   UNL     1     -11.089   5.042  64.753  1.00  0.00     0.000 HD 
HETATM    5  O   UNL     1      -8.137   3.838  64.765  1.00  0.00    -0.089 OA 
ENDROOT
BRANCH   3   6
HETATM    6  C   UNL     1      -8.944   5.749  65.863  1.00  0.00    -0.158 A  
HETATM    7  C   UNL     1      -8.695   7.056  65.498  1.00  0.00    -0.025 A  
HETATM    8  N   UNL     1      -8.616   7.814  66.650  1.00  0.00    -0.130 NA 
HETATM    9  N   UNL     1      -8.821   7.048  67.759  1.00  0.00    -0.124 NA 
HETATM   10  C   UNL     1      -9.025   5.819  67.274  1.00  0.00    -0.112 A  
BRANCH   8  11
HETATM   11  C   UNL     1      -8.283   9.216  66.689  1.00  0.00    -0.115 A  
HETATM   12  N   UNL     1      -9.292  10.114  66.821  1.00  0.00    -0.157 NA 
HETATM   13  C   UNL     1      -8.828  11.350  67.079  1.00  0.00    -0.168 A  
HETATM   14  C   UNL     1      -7.506  11.750  67.157  1.00  0.00    -0.149 A  
HETATM   15  N   UNL     1      -7.407  13.083  67.481  1.00  0.00    -0.152 NA 
HETATM   16  C   UNL     1      -6.542  10.765  66.908  1.00  0.00    -0.091 A  
HETATM   17  N   UNL     1      -5.177  11.021  66.900  1.00  0.00    -0.055 NA 
HETATM   18  N   UNL     1      -6.952   9.501  66.680  1.00  0.00    -0.084 NA 
HETATM   19  C   UNL     1      -8.650  13.479  67.643  1.00  0.00    -0.185 A  
HETATM   20  H1  UNL     1      -4.475  10.304  66.719  1.00  0.00     0.000 HD 
HETATM   21  N   UNL     1      -9.551  12.479  67.365  1.00  0.00    -0.189 NA 
HETATM   22  H2  UNL     1      -4.943  11.455  67.792  1.00  0.00     0.000 HD 
BRANCH  21  23
HETATM   23  C1* UNL     1     -10.985  12.641  67.430  1.00  0.00    -0.254 C  
HETATM   24  O4* UNL     1     -11.592  11.662  66.568  1.00  0.00    -0.473 OA 
HETATM   25  C4* UNL     1     -12.102  12.324  65.392  1.00  0.00    -0.276 C  
HETATM   26  C3* UNL     1     -12.167  13.830  65.686  1.00  0.00    -0.454 C  
HETATM   27  H2* UNL     1     -12.837  15.272  67.861  1.00  0.00     0.000 HD 
HETATM   28  C2* UNL     1     -11.544  14.016  67.073  1.00  0.00    -0.371 C  
HETATM   29  O2* UNL     1     -12.489  14.417  68.083  1.00  0.00    -0.075 OA 
HETATM   30  O3* UNL     1     -13.514  14.320  65.662  1.00  0.00    -0.688 OA 
HETATM   31  H3* UNL     1     -13.554  15.251  65.844  1.00  0.00     0.000 HD 
BRANCH  25  32
HETATM   32  C5* UNL     1     -11.217  11.959  64.192  1.00  0.00    -0.376 C  
HETATM   33  O5* UNL     1      -9.994  12.697  64.243  1.00  0.00    -0.551 OA 
HETATM   34  H5* UNL     1      -9.446  12.471  63.500  1.00  0.00     0.000 HD 
ENDBRANCH  25  32
ENDBRANCH  21  23
ENDBRANCH   8  11
ENDBRANCH   3   6
TORSDOF 4
ENDMDL
MODEL      130
REMARK 921   NORMALIZED FREE ENERGY PREDICTED BY IDOCK:   -5.28 KCAL/MOL
REMARK 922        TOTAL FREE ENERGY PREDICTED BY IDOCK:   -7.03 KCAL/MOL
REMARK 923 INTER-LIGAND FREE ENERGY PREDICTED BY IDOCK:   -6.36 KCAL/MOL
REMARK 924 INTRA-LIGAND FREE ENERGY PREDICTED BY IDOCK:   -0.67 KCAL/MOL
REMARK 927      BINDING AFFINITY PREDICTED BY RF-SCORE:    0.00 PKD
ROOT
HETATM    1  C   UNL     1      -6.817   4.960  62.528  1.00  0.00    -0.030 C  
HETATM    2  N   UNL     1      -7.504   6.057  63.156  1.00  0.00    -0.064 N  
HETATM    3  C   UNL     1      -6.875   7.257  63.409  1.00  0.00    -0.054 C  
HETATM    4  H   UNL     1      -8.482   5.943  63.422  1.00  0.00     0.000 HD 
HETATM    5  O   UNL     1      -5.705   7.481  63.125  1.00  0.00    -0.048 OA 
ENDROOT
BRANCH   3   6
HETATM    6  C   UNL     1      -7.722   8.263  64.036  1.00  0.00    -0.140 A  
HETATM    7  C   UNL     1      -8.003   8.439  65.375  1.00  0.00    -0.122 A  
HETATM    8  N   UNL     1      -8.877   9.502  65.491  1.00  0.00    -0.156 NA 
HETATM    9  N   UNL     1      -9.167  10.039  64.272  1.00  0.00    -0.252 NA 
HETATM   10  C   UNL     1      -8.462   9.296  63.413  1.00  0.00    -0.202 A  
BRANCH   8  11
HETATM   11  C   UNL     1      -9.474   9.943  66.727  1.00  0.00    -0.169 A  
HETATM   12  N   UNL     1      -9.696  11.272  66.897  1.00  0.00    -0.189 NA 
HETATM   13  C   UNL     1     -10.461  11.515  67.976  1.00  0.00    -0.189 A  
HETATM   14  C   UNL     1     -10.949  10.591  68.883  1.00  0.00    -0.246 A  
HETATM   15  N   UNL     1     -11.732  11.196  69.838  1.00  0.00    -0.323 NA 
HETATM   16  C   UNL     1     -10.580   9.256  68.673  1.00  0.00    -0.187 A  
HETATM   17  N   UNL     1     -10.948   8.221  69.522  1.00  0.00    -0.424 NA 
HETATM   18  N   UNL     1      -9.844   8.953  67.584  1.00  0.00    -0.172 NA 
HETATM   19  C   UNL     1     -11.758  12.464  69.493  1.00  0.00    -0.322 A  
HETATM   20  H1  UNL     1     -10.680   7.250  69.369  1.00  0.00     0.000 HD 
HETATM   21  N   UNL     1     -10.965  12.718  68.398  1.00  0.00    -0.242 NA 
HETATM   22  H2  UNL     1     -11.964   8.245  69.608  1.00  0.00     0.000 HD 
BRANCH  21  23
HETATM   23  C1* UNL     1     -10.780  14.027  67.819  1.00  0.00    -0.243 C  
HETATM   24  O4* UNL     1     -12.030  14.452  67.246  1.00  0.00    -0.399 OA 
HETATM   25  C4* UNL     1     -11.934  14.385  65.809  1.00  0.00    -0.357 C  
HETATM   26  C3* UNL     1     -10.447  14.282  65.437  1.00  0.00    -0.365 C  
HETATM   27  H2* UNL     1      -8.205  15.415  66.410  1.00  0.00     0.000 HD 
HETATM   28  C2* UNL     1      -9.688  14.171  66.762  1.00  0.00    -0.277 C  
HETATM   29  O2* UNL     1      -8.885  15.326  67.068  1.00  0.00    -0.204 OA 
HETATM   30  O3* UNL     1     -10.005  15.424  64.690  1.00  0.00    -0.323 OA 
HETATM   31  H3* UNL     1      -9.086  15.360  64.460  1.00  0.00     0.000 HD 
BRANCH  25  32
HETATM   32  C5* UNL     1     -12.787  13.211  65.307  1.00  0.00    -0.266 C  
HETATM   33  O5* UNL     1     -12.030  11.999  65.358  1.00  0.00    -0.399 OA 
HETATM   34  H5* UNL     1     -12.558  11.272  65.048  1.00  0.00     0.000 HD 
ENDBRANCH  25  32
ENDBRANCH  21  23
ENDBRANCH   8  11
ENDBRANCH   3   6
TORSDOF 4
ENDMDL
MODEL      131
REMARK 921   NORMALIZED FREE ENERGY PREDICTED BY IDOCK:   -5.24 KCAL/MOL
REMARK 922        TOTAL FREE ENERGY PREDICTED BY IDOCK:   -6.98 KCAL/MOL
REMARK 923 INTER-LIGAND FREE ENERGY PREDICTED BY IDOCK:   -6.41 KCAL/MOL
REMARK 924 INTRA-LIGAND FREE ENERGY PREDICTED BY IDOCK:   -0.57 KCAL/MOL
REMARK 927      BINDING AFFINITY PREDICTED BY RF-SCORE:    0.00 PKD
ROOT
HETATM    1  C   UNL     1      -8.415   3.607  62.608  1.00  0.00    -0.081 C  
HETATM    2  N   UNL     1      -8.856   4.255  63.814  1.00  0.00    -0.127 N  
HETATM    3  C   UNL     1      -8.540   3.759  65.060  1.00  0.00    -0.113 C  
HETATM    4  H   UNL     1      -9.416   5.105  63.745  1.00  0.00     0.000 HD 
HETATM    5  O   UNL     1      -7.874   2.745  65.237  1.00  0.00    -0.079 OA 
ENDROOT
BRANCH   3   6
HETATM    6  C   UNL     1      -9.053   4.547  66.173  1.00  0.00    -0.128 A  
HETATM    7  C   UNL     1      -9.240   5.912  66.247  1.00  0.00    -0.158 A  
HETATM    8  N   UNL     1      -9.719   6.208  67.509  1.00  0.00    -0.115 NA 
HETATM    9  N   UNL     1      -9.867   5.079  68.259  1.00  0.00    -0.155 NA 
HETATM   10  C   UNL     1      -9.476   4.093  67.445  1.00  0.00    -0.187 A  
BRANCH   8  11
HETATM   11  C   UNL     1      -9.959   7.541  68.004  1.00  0.00    -0.172 A  
HETATM   12  N   UNL     1      -9.558   8.592  67.245  1.00  0.00    -0.161 NA 
HETATM   13  C   UNL     1     -10.049   9.756  67.706  1.00  0.00    -0.180 A  
HETATM   14  C   UNL     1     -10.821   9.950  68.838  1.00  0.00    -0.210 A  
HETATM   15  N   UNL     1     -11.178  11.271  68.977  1.00  0.00    -0.234 NA 
HETATM   16  C   UNL     1     -11.097   8.812  69.606  1.00  0.00    -0.028 A  
HETATM   17  N   UNL     1     -11.815   8.851  70.794  1.00  0.00    -0.419 NA 
HETATM   18  N   UNL     1     -10.659   7.614  69.169  1.00  0.00    -0.211 NA 
HETATM   19  C   UNL     1     -10.668  11.866  67.921  1.00  0.00    -0.204 A  
HETATM   20  H1  UNL     1     -12.017   8.023  71.354  1.00  0.00     0.000 HD 
HETATM   21  N   UNL     1      -9.935  11.001  67.144  1.00  0.00    -0.184 NA 
HETATM   22  H2  UNL     1     -12.706   9.307  70.596  1.00  0.00     0.000 HD 
BRANCH  21  23
HETATM   23  C1* UNL     1      -9.237  11.388  65.941  1.00  0.00    -0.216 C  
HETATM   24  O4* UNL     1      -9.675  12.705  65.564  1.00  0.00    -0.208 OA 
HETATM   25  C4* UNL     1     -10.527  12.603  64.405  1.00  0.00    -0.373 C  
HETATM   26  C3* UNL     1     -10.319  11.214  63.784  1.00  0.00    -0.386 C  
HETATM   27  H2* UNL     1      -8.159   9.646  63.422  1.00  0.00     0.000 HD 
HETATM   28  C2* UNL     1      -9.376  10.466  64.731  1.00  0.00    -0.251 C  
HETATM   29  O2* UNL     1      -8.072  10.219  64.174  1.00  0.00    -0.157 OA 
HETATM   30  O3* UNL     1      -9.756  11.299  62.467  1.00  0.00    -0.574 OA 
HETATM   31  H3* UNL     1      -9.628  10.440  62.083  1.00  0.00     0.000 HD 
BRANCH  25  32
HETATM   32  C5* UNL     1     -11.977  12.890  64.824  1.00  0.00    -0.396 C  
HETATM   33  O5* UNL     1     -12.655  13.601  63.786  1.00  0.00    -0.705 OA 
HETATM   34  H5* UNL     1     -13.552  13.777  64.046  1.00  0.00     0.000 HD 
ENDBRANCH  25  32
ENDBRANCH  21  23
ENDBRANCH   8  11
ENDBRANCH   3   6
TORSDOF 4
ENDMDL
MODEL      132
REMARK 921   NORMALIZED FREE ENERGY PREDICTED BY IDOCK:   -5.24 KCAL/MOL
REMARK 922        TOTAL FREE ENERGY PREDICTED BY IDOCK:   -6.97 KCAL/MOL
REMARK 923 INTER-LIGAND FREE ENERGY PREDICTED BY IDOCK:   -6.28 KCAL/MOL
REMARK 924 INTRA-LIGAND FREE ENERGY PREDICTED BY IDOCK:   -0.69 KCAL/MOL
REMARK 927      BINDING AFFINITY PREDICTED BY RF-SCORE:    0.00 PKD
ROOT
HETATM    1  C   UNL     1     -10.237  15.671  65.649  1.00  0.00    -0.375 C  
HETATM    2  N   UNL     1     -10.161  14.257  65.905  1.00  0.00    -0.310 N  
HETATM    3  C   UNL     1     -10.761  13.337  65.072  1.00  0.00    -0.333 C  
HETATM    4  H   UNL     1      -9.651  13.927  66.724  1.00  0.00     0.000 HD 
HETATM    5  O   UNL     1     -11.394  13.643  64.068  1.00  0.00    -0.342 OA 
ENDROOT
BRANCH   3   6
HETATM    6  C   UNL     1     -10.572  11.949  65.470  1.00  0.00    -0.313 A  
HETATM    7  C   UNL     1     -10.932  11.335  66.652  1.00  0.00    -0.268 A  
HETATM    8  N   UNL     1     -10.524  10.017  66.590  1.00  0.00    -0.204 NA 
HETATM    9  N   UNL     1      -9.922   9.742  65.398  1.00  0.00    -0.304 NA 
HETATM   10  C   UNL     1      -9.967  10.902  64.734  1.00  0.00    -0.307 A  
BRANCH   8  11
HETATM   11  C   UNL     1     -10.644   9.068  67.669  1.00  0.00    -0.231 A  
HETATM   12  N   UNL     1     -10.520   7.747  67.382  1.00  0.00    -0.278 NA 
HETATM   13  C   UNL     1     -10.417   7.002  68.497  1.00  0.00    -0.200 A  
HETATM   14  C   UNL     1     -10.481   7.443  69.808  1.00  0.00    -0.229 A  
HETATM   15  N   UNL     1     -10.293   6.405  70.691  1.00  0.00    -0.193 NA 
HETATM   16  C   UNL     1     -10.709   8.812  69.995  1.00  0.00    -0.228 A  
HETATM   17  N   UNL     1     -10.848   9.397  71.246  1.00  0.00    -0.341 NA 
HETATM   18  N   UNL     1     -10.784   9.609  68.910  1.00  0.00    -0.219 NA 
HETATM   19  C   UNL     1     -10.074   5.356  69.930  1.00  0.00    -0.252 A  
HETATM   20  H1  UNL     1     -11.014  10.394  71.383  1.00  0.00     0.000 HD 
HETATM   21  N   UNL     1     -10.184   5.655  68.593  1.00  0.00    -0.184 NA 
HETATM   22  H2  UNL     1     -10.022   9.150  71.791  1.00  0.00     0.000 HD 
BRANCH  21  23
HETATM   23  C1* UNL     1     -10.024   4.689  67.532  1.00  0.00    -0.121 C  
HETATM   24  O4* UNL     1      -8.751   4.041  67.696  1.00  0.00    -0.098 OA 
HETATM   25  C4* UNL     1      -7.846   4.518  66.679  1.00  0.00    -0.099 C  
HETATM   26  C3* UNL     1      -8.680   5.209  65.590  1.00  0.00    -0.143 C  
HETATM   27  H2* UNL     1     -11.065   4.675  64.457  1.00  0.00     0.000 HD 
HETATM   28  C2* UNL     1     -10.124   5.208  66.100  1.00  0.00    -0.207 C  
HETATM   29  O2* UNL     1     -11.003   4.352  65.348  1.00  0.00    -0.230 OA 
HETATM   30  O3* UNL     1      -8.583   4.525  64.333  1.00  0.00    -0.125 OA 
HETATM   31  H3* UNL     1      -9.098   4.953  63.659  1.00  0.00     0.000 HD 
BRANCH  25  32
HETATM   32  C5* UNL     1      -6.796   5.428  67.334  1.00  0.00    -0.060 C  
HETATM   33  O5* UNL     1      -7.286   6.770  67.403  1.00  0.00    -0.084 OA 
HETATM   34  H5* UNL     1      -6.636   7.332  67.808  1.00  0.00     0.000 HD 
ENDBRANCH  25  32
ENDBRANCH  21  23
ENDBRANCH   8  11
ENDBRANCH   3   6
TORSDOF 4
ENDMDL
MODEL      133
REMARK 921   NORMALIZED FREE ENERGY PREDICTED BY IDOCK:   -5.17 KCAL/MOL
REMARK 922        TOTAL FREE ENERGY PREDICTED BY IDOCK:   -6.89 KCAL/MOL
REMARK 923 INTER-LIGAND FREE ENERGY PREDICTED BY IDOCK:   -6.75 KCAL/MOL
REMARK 924 INTRA-LIGAND FREE ENERGY PREDICTED BY IDOCK:   -0.14 KCAL/MOL
REMARK 927      BINDING AFFINITY PREDICTED BY RF-SCORE:    0.00 PKD
ROOT
HETATM    1  C   UNL     1     -10.587   3.727  74.425  1.00  0.00    -0.182 C  
HETATM    2  N   UNL     1     -10.814   4.939  73.685  1.00  0.00    -0.287 N  
HETATM    3  C   UNL     1     -10.745   4.971  72.308  1.00  0.00    -0.180 C  
HETATM    4  H   UNL     1     -11.031   5.797  74.191  1.00  0.00     0.000 HD 
HETATM    5  O   UNL     1     -10.489   3.990  71.620  1.00  0.00    -0.019 OA 
ENDROOT
BRANCH   3   6
HETATM    6  C   UNL     1     -11.017   6.275  71.720  1.00  0.00    -0.305 A  
HETATM    7  C   UNL     1     -10.287   6.962  70.771  1.00  0.00    -0.203 A  
HETATM    8  N   UNL     1     -10.914   8.171  70.543  1.00  0.00    -0.242 NA 
HETATM    9  N   UNL     1     -12.042   8.293  71.299  1.00  0.00    -0.288 NA 
HETATM   10  C   UNL     1     -12.097   7.149  71.990  1.00  0.00    -0.292 A  
BRANCH   8  11
HETATM   11  C   UNL     1     -10.409   9.208  69.678  1.00  0.00    -0.219 A  
HETATM   12  N   UNL     1     -11.106  10.369  69.588  1.00  0.00    -0.257 NA 
HETATM   13  C   UNL     1     -10.409  11.321  68.944  1.00  0.00    -0.195 A  
HETATM   14  C   UNL     1      -9.159  11.196  68.364  1.00  0.00    -0.168 A  
HETATM   15  N   UNL     1      -8.736  12.391  67.829  1.00  0.00    -0.166 NA 
HETATM   16  C   UNL     1      -8.566   9.929  68.427  1.00  0.00    -0.116 A  
HETATM   17  N   UNL     1      -7.339   9.632  67.849  1.00  0.00    -0.082 NA 
HETATM   18  N   UNL     1      -9.207   8.948  69.094  1.00  0.00    -0.144 NA 
HETATM   19  C   UNL     1      -9.695  13.243  68.119  1.00  0.00    -0.227 A  
HETATM   20  H1  UNL     1      -6.907   8.709  67.895  1.00  0.00     0.000 HD 
HETATM   21  N   UNL     1     -10.753  12.634  68.752  1.00  0.00    -0.230 NA 
HETATM   22  H2  UNL     1      -6.661  10.302  68.213  1.00  0.00     0.000 HD 
BRANCH  21  23
HETATM   23  C1* UNL     1     -11.956  13.321  69.159  1.00  0.00    -0.296 C  
HETATM   24  O4* UNL     1     -12.217  14.377  68.218  1.00  0.00    -0.266 OA 
HETATM   25  C4* UNL     1     -11.917  15.644  68.838  1.00  0.00    -0.279 C  
HETATM   26  C3* UNL     1     -11.828  15.420  70.355  1.00  0.00    -0.335 C  
HETATM   27  H2* UNL     1     -13.217  13.902  72.094  1.00  0.00     0.000 HD 
HETATM   28  C2* UNL     1     -11.976  13.910  70.567  1.00  0.00    -0.314 C  
HETATM   29  O2* UNL     1     -13.204  13.535  71.218  1.00  0.00    -0.300 OA 
HETATM   30  O3* UNL     1     -12.850  16.137  71.060  1.00  0.00    -0.550 OA 
HETATM   31  H3* UNL     1     -12.795  15.998  71.998  1.00  0.00     0.000 HD 
BRANCH  25  32
HETATM   32  C5* UNL     1     -10.634  16.214  68.214  1.00  0.00    -0.288 C  
HETATM   33  O5* UNL     1     -10.630  15.978  66.804  1.00  0.00    -0.315 OA 
HETATM   34  H5* UNL     1      -9.837  16.331  66.418  1.00  0.00     0.000 HD 
ENDBRANCH  25  32
ENDBRANCH  21  23
ENDBRANCH   8  11
ENDBRANCH   3   6
TORSDOF 4
ENDMDL
MODEL      134
REMARK 921   NORMALIZED FREE ENERGY PREDICTED BY IDOCK:   -5.16 KCAL/MOL
REMARK 922        TOTAL FREE ENERGY PREDICTED BY IDOCK:   -6.88 KCAL/MOL
REMARK 923 INTER-LIGAND FREE ENERGY PREDICTED BY IDOCK:   -5.86 KCAL/MOL
REMARK 924 INTRA-LIGAND FREE ENERGY PREDICTED BY IDOCK:   -1.02 KCAL/MOL
REMARK 927      BINDING AFFINITY PREDICTED BY RF-SCORE:    0.00 PKD
ROOT
HETATM    1  C   UNL     1     -12.248  14.693  64.828  1.00  0.00    -0.394 C  
HETATM    2  N   UNL     1     -11.977  13.561  65.673  1.00  0.00    -0.373 N  
HETATM    3  C   UNL     1     -11.740  13.704  67.023  1.00  0.00    -0.384 C  
HETATM    4  H   UNL     1     -11.960  12.628  65.262  1.00  0.00     0.000 HD 
HETATM    5  O   UNL     1     -11.740  14.785  67.600  1.00  0.00    -0.349 OA 
ENDROOT
BRANCH   3   6
HETATM    6  C   UNL     1     -11.499  12.454  67.731  1.00  0.00    -0.383 A  
HETATM    7  C   UNL     1     -10.743  11.371  67.333  1.00  0.00    -0.232 A  
HETATM    8  N   UNL     1     -10.832  10.405  68.316  1.00  0.00    -0.235 NA 
HETATM    9  N   UNL     1     -11.608  10.826  69.354  1.00  0.00    -0.287 NA 
HETATM   10  C   UNL     1     -11.992  12.055  68.996  1.00  0.00    -0.264 A  
BRANCH   8  11
HETATM   11  C   UNL     1     -10.247   9.089  68.229  1.00  0.00    -0.204 A  
HETATM   12  N   UNL     1     -10.173   8.342  69.360  1.00  0.00    -0.200 NA 
HETATM   13  C   UNL     1      -9.830   7.069  69.094  1.00  0.00    -0.158 A  
HETATM   14  C   UNL     1      -9.518   6.525  67.861  1.00  0.00    -0.120 A  
HETATM   15  N   UNL     1      -9.257   5.178  67.962  1.00  0.00    -0.113 NA 
HETATM   16  C   UNL     1      -9.529   7.405  66.771  1.00  0.00    -0.176 A  
HETATM   17  N   UNL     1      -9.190   7.022  65.480  1.00  0.00    -0.357 NA 
HETATM   18  N   UNL     1      -9.901   8.684  66.977  1.00  0.00    -0.197 NA 
HETATM   19  C   UNL     1      -9.451   4.896  69.231  1.00  0.00    -0.142 A  
HETATM   20  H1  UNL     1      -9.198   7.663  64.686  1.00  0.00     0.000 HD 
HETATM   21  N   UNL     1      -9.754   6.016  69.969  1.00  0.00    -0.162 NA 
HETATM   22  H2  UNL     1      -9.779   6.227  65.234  1.00  0.00     0.000 HD 
BRANCH  21  23
HETATM   23  C1* UNL     1      -9.987   6.007  71.394  1.00  0.00    -0.186 C  
HETATM   24  O4* UNL     1      -8.980   6.820  72.024  1.00  0.00    -0.138 OA 
HETATM   25  C4* UNL     1      -8.043   5.961  72.706  1.00  0.00    -0.104 C  
HETATM   26  C3* UNL     1      -8.685   4.572  72.842  1.00  0.00    -0.112 C  
HETATM   27  H2* UNL     1     -11.189   3.725  73.366  1.00  0.00     0.000 HD 
HETATM   28  C2* UNL     1     -10.014   4.646  72.084  1.00  0.00    -0.181 C  
HETATM   29  O2* UNL     1     -11.172   4.572  72.936  1.00  0.00    -0.191 OA 
HETATM   30  O3* UNL     1      -8.901   4.218  74.215  1.00  0.00    -0.095 OA 
HETATM   31  H3* UNL     1      -9.298   3.359  74.299  1.00  0.00     0.000 HD 
BRANCH  25  32
HETATM   32  C5* UNL     1      -6.714   5.962  71.937  1.00  0.00    -0.063 C  
HETATM   33  O5* UNL     1      -6.865   6.665  70.701  1.00  0.00    -0.059 OA 
HETATM   34  H5* UNL     1      -6.043   6.666  70.225  1.00  0.00     0.000 HD 
ENDBRANCH  25  32
ENDBRANCH  21  23
ENDBRANCH   8  11
ENDBRANCH   3   6
TORSDOF 4
ENDMDL
MODEL      135
REMARK 921   NORMALIZED FREE ENERGY PREDICTED BY IDOCK:   -5.12 KCAL/MOL
REMARK 922        TOTAL FREE ENERGY PREDICTED BY IDOCK:   -6.83 KCAL/MOL
REMARK 923 INTER-LIGAND FREE ENERGY PREDICTED BY IDOCK:   -6.16 KCAL/MOL
REMARK 924 INTRA-LIGAND FREE ENERGY PREDICTED BY IDOCK:   -0.67 KCAL/MOL
REMARK 927      BINDING AFFINITY PREDICTED BY RF-SCORE:    0.00 PKD
ROOT
HETATM    1  C   UNL     1      -5.130  10.738  63.723  1.00  0.00    -0.142 C  
HETATM    2  N   UNL     1      -5.864  10.260  64.863  1.00  0.00    -0.124 N  
HETATM    3  C   UNL     1      -5.887  10.954  66.054  1.00  0.00    -0.143 C  
HETATM    4  H   UNL     1      -6.383   9.385  64.789  1.00  0.00     0.000 HD 
HETATM    5  O   UNL     1      -5.293  12.012  66.232  1.00  0.00    -0.264 OA 
ENDROOT
BRANCH   3   6
HETATM    6  C   UNL     1      -6.692  10.337  67.099  1.00  0.00    -0.078 A  
HETATM    7  C   UNL     1      -8.034  10.510  67.367  1.00  0.00    -0.110 A  
HETATM    8  N   UNL     1      -8.350   9.742  68.471  1.00  0.00    -0.109 NA 
HETATM    9  N   UNL     1      -7.262   9.059  68.926  1.00  0.00    -0.072 NA 
HETATM   10  C   UNL     1      -6.281   9.416  68.091  1.00  0.00    -0.053 A  
BRANCH   8  11
HETATM   11  C   UNL     1      -9.641   9.721  69.114  1.00  0.00    -0.188 A  
HETATM   12  N   UNL     1     -10.121   8.530  69.555  1.00  0.00    -0.195 NA 
HETATM   13  C   UNL     1     -11.207   8.688  70.333  1.00  0.00    -0.218 A  
HETATM   14  C   UNL     1     -11.850   9.873  70.644  1.00  0.00    -0.303 A  
HETATM   15  N   UNL     1     -12.902   9.658  71.503  1.00  0.00    -0.364 NA 
HETATM   16  C   UNL     1     -11.332  11.035  70.059  1.00  0.00    -0.277 A  
HETATM   17  N   UNL     1     -11.896  12.292  70.234  1.00  0.00    -0.524 NA 
HETATM   18  N   UNL     1     -10.222  10.938  69.299  1.00  0.00    -0.201 NA 
HETATM   19  C   UNL     1     -12.874   8.366  71.747  1.00  0.00    -0.345 A  
HETATM   20  H1  UNL     1     -11.518  13.138  69.808  1.00  0.00     0.000 HD 
HETATM   21  N   UNL     1     -11.894   7.726  71.025  1.00  0.00    -0.288 NA 
HETATM   22  H2  UNL     1     -11.958  12.460  71.238  1.00  0.00     0.000 HD 
BRANCH  21  23
HETATM   23  C1* UNL     1     -11.655   6.302  71.072  1.00  0.00    -0.272 C  
HETATM   24  O4* UNL     1     -11.928   5.839  72.407  1.00  0.00    -0.275 OA 
HETATM   25  C4* UNL     1     -10.680   5.536  73.063  1.00  0.00    -0.256 C  
HETATM   26  C3* UNL     1      -9.591   5.433  71.985  1.00  0.00    -0.155 C  
HETATM   27  H2* UNL     1      -9.535   4.421  69.489  1.00  0.00     0.000 HD 
HETATM   28  C2* UNL     1     -10.265   5.819  70.666  1.00  0.00    -0.218 C  
HETATM   29  O2* UNL     1     -10.400   4.723  69.742  1.00  0.00    -0.227 OA 
HETATM   30  O3* UNL     1      -9.040   4.111  71.909  1.00  0.00    -0.115 OA 
HETATM   31  H3* UNL     1      -8.366   4.048  71.243  1.00  0.00     0.000 HD 
BRANCH  25  32
HETATM   32  C5* UNL     1     -10.405   6.605  74.131  1.00  0.00    -0.321 C  
HETATM   33  O5* UNL     1     -10.045   7.839  73.506  1.00  0.00    -0.319 OA 
HETATM   34  H5* UNL     1      -9.875   8.501  74.166  1.00  0.00     0.000 HD 
ENDBRANCH  25  32
ENDBRANCH  21  23
ENDBRANCH   8  11
ENDBRANCH   3   6
TORSDOF 4
ENDMDL
MODEL      136
REMARK 921   NORMALIZED FREE ENERGY PREDICTED BY IDOCK:   -5.12 KCAL/MOL
REMARK 922        TOTAL FREE ENERGY PREDICTED BY IDOCK:   -6.83 KCAL/MOL
REMARK 923 INTER-LIGAND FREE ENERGY PREDICTED BY IDOCK:   -5.82 KCAL/MOL
REMARK 924 INTRA-LIGAND FREE ENERGY PREDICTED BY IDOCK:   -1.01 KCAL/MOL
REMARK 927      BINDING AFFINITY PREDICTED BY RF-SCORE:    0.00 PKD
ROOT
HETATM    1  C   UNL     1      -9.256  11.338  62.396  1.00  0.00    -0.117 C  
HETATM    2  N   UNL     1      -9.373  10.536  63.583  1.00  0.00    -0.262 N  
HETATM    3  C   UNL     1     -10.082  10.968  64.684  1.00  0.00    -0.311 C  
HETATM    4  H   UNL     1      -8.919   9.623  63.613  1.00  0.00     0.000 HD 
HETATM    5  O   UNL     1     -10.656  12.049  64.737  1.00  0.00    -0.272 OA 
ENDROOT
BRANCH   3   6
HETATM    6  C   UNL     1     -10.111  10.025  65.793  1.00  0.00    -0.320 A  
HETATM    7  C   UNL     1      -9.618   8.737  65.842  1.00  0.00    -0.184 A  
HETATM    8  N   UNL     1      -9.902   8.219  67.091  1.00  0.00    -0.195 NA 
HETATM    9  N   UNL     1     -10.550   9.131  67.868  1.00  0.00    -0.236 NA 
HETATM   10  C   UNL     1     -10.659  10.209  67.085  1.00  0.00    -0.246 A  
BRANCH   8  11
HETATM   11  C   UNL     1      -9.622   6.865  67.501  1.00  0.00    -0.128 A  
HETATM   12  N   UNL     1      -9.361   6.630  68.811  1.00  0.00    -0.132 NA 
HETATM   13  C   UNL     1      -9.353   5.314  69.090  1.00  0.00    -0.123 A  
HETATM   14  C   UNL     1      -9.522   4.268  68.200  1.00  0.00    -0.157 A  
HETATM   15  N   UNL     1      -9.498   3.055  68.848  1.00  0.00    -0.155 NA 
HETATM   16  C   UNL     1      -9.688   4.616  66.854  1.00  0.00    -0.197 A  
HETATM   17  N   UNL     1      -9.819   3.680  65.836  1.00  0.00    -0.397 NA 
HETATM   18  N   UNL     1      -9.740   5.923  66.525  1.00  0.00    -0.156 NA 
HETATM   19  C   UNL     1      -9.361   3.359  70.119  1.00  0.00    -0.174 A  
HETATM   20  H1  UNL     1      -9.940   3.934  64.856  1.00  0.00     0.000 HD 
HETATM   21  N   UNL     1      -9.221   4.712  70.315  1.00  0.00    -0.121 NA 
HETATM   22  H2  UNL     1     -10.591   3.064  66.087  1.00  0.00     0.000 HD 
BRANCH  21  23
HETATM   23  C1* UNL     1      -9.024   5.327  71.606  1.00  0.00    -0.135 C  
HETATM   24  O4* UNL     1     -10.300   5.422  72.264  1.00  0.00    -0.195 OA 
HETATM   25  C4* UNL     1     -10.727   6.800  72.263  1.00  0.00    -0.220 C  
HETATM   26  C3* UNL     1      -9.507   7.674  71.936  1.00  0.00    -0.146 C  
HETATM   27  H2* UNL     1      -6.905   7.566  72.625  1.00  0.00     0.000 HD 
HETATM   28  C2* UNL     1      -8.364   6.704  71.626  1.00  0.00    -0.115 C  
HETATM   29  O2* UNL     1      -7.316   6.710  72.612  1.00  0.00    -0.087 OA 
HETATM   30  O3* UNL     1      -9.162   8.536  73.029  1.00  0.00    -0.233 OA 
HETATM   31  H3* UNL     1      -8.408   9.077  72.827  1.00  0.00     0.000 HD 
BRANCH  25  32
HETATM   32  C5* UNL     1     -11.894   6.960  71.277  1.00  0.00    -0.341 C  
HETATM   33  O5* UNL     1     -11.680   8.105  70.448  1.00  0.00    -0.465 OA 
HETATM   34  H5* UNL     1     -12.402   8.204  69.838  1.00  0.00     0.000 HD 
ENDBRANCH  25  32
ENDBRANCH  21  23
ENDBRANCH   8  11
ENDBRANCH   3   6
TORSDOF 4
ENDMDL
MODEL      137
REMARK 921   NORMALIZED FREE ENERGY PREDICTED BY IDOCK:   -5.11 KCAL/MOL
REMARK 922        TOTAL FREE ENERGY PREDICTED BY IDOCK:   -6.81 KCAL/MOL
REMARK 923 INTER-LIGAND FREE ENERGY PREDICTED BY IDOCK:   -6.07 KCAL/MOL
REMARK 924 INTRA-LIGAND FREE ENERGY PREDICTED BY IDOCK:   -0.74 KCAL/MOL
REMARK 927      BINDING AFFINITY PREDICTED BY RF-SCORE:    0.00 PKD
ROOT
HETATM    1  C   UNL     1     -10.204  20.009  66.521  1.00  0.00    -0.474 C  
HETATM    2  N   UNL     1      -9.368  18.884  66.840  1.00  0.00    -0.300 N  
HETATM    3  C   UNL     1      -8.145  18.693  66.232  1.00  0.00    -0.244 C  
HETATM    4  H   UNL     1      -9.687  18.209  67.535  1.00  0.00     0.000 HD 
HETATM    5  O   UNL     1      -7.684  19.451  65.387  1.00  0.00    -0.370 OA 
ENDROOT
BRANCH   3   6
HETATM    6  C   UNL     1      -7.422  17.512  66.684  1.00  0.00    -0.280 A  
HETATM    7  C   UNL     1      -7.887  16.454  67.438  1.00  0.00    -0.154 A  
HETATM    8  N   UNL     1      -6.834  15.584  67.645  1.00  0.00    -0.166 NA 
HETATM    9  N   UNL     1      -5.698  16.030  67.037  1.00  0.00    -0.326 NA 
HETATM   10  C   UNL     1      -6.066  17.177  66.458  1.00  0.00    -0.202 A  
BRANCH   8  11
HETATM   11  C   UNL     1      -6.898  14.398  68.461  1.00  0.00    -0.098 A  
HETATM   12  N   UNL     1      -7.534  13.306  67.963  1.00  0.00    -0.121 NA 
HETATM   13  C   UNL     1      -7.316  12.215  68.718  1.00  0.00    -0.090 A  
HETATM   14  C   UNL     1      -6.597  12.142  69.898  1.00  0.00     0.074 A  
HETATM   15  N   UNL     1      -6.548  10.852  70.372  1.00  0.00    -0.296 NA 
HETATM   16  C   UNL     1      -6.064  13.344  70.378  1.00  0.00    -0.077 A  
HETATM   17  N   UNL     1      -5.362  13.444  71.572  1.00  0.00    -0.231 NA 
HETATM   18  N   UNL     1      -6.222  14.462  69.641  1.00  0.00    -0.117 NA 
HETATM   19  C   UNL     1      -7.189  10.141  69.471  1.00  0.00    -0.115 A  
HETATM   20  H1  UNL     1      -4.973  14.319  71.922  1.00  0.00     0.000 HD 
HETATM   21  N   UNL     1      -7.714  10.927  68.472  1.00  0.00    -0.111 NA 
HETATM   22  H2  UNL     1      -4.600  12.767  71.534  1.00  0.00     0.000 HD 
BRANCH  21  23
HETATM   23  C1* UNL     1      -8.492  10.417  67.367  1.00  0.00    -0.121 C  
HETATM   24  O4* UNL     1      -9.748  11.118  67.335  1.00  0.00    -0.171 OA 
HETATM   25  C4* UNL     1     -10.792  10.232  67.789  1.00  0.00    -0.292 C  
HETATM   26  C3* UNL     1     -10.248   8.796  67.745  1.00  0.00    -0.228 C  
HETATM   27  H2* UNL     1      -8.655   7.464  66.029  1.00  0.00     0.000 HD 
HETATM   28  C2* UNL     1      -8.773   8.917  67.350  1.00  0.00    -0.125 C  
HETATM   29  O2* UNL     1      -8.481   8.398  66.040  1.00  0.00    -0.117 OA 
HETATM   30  O3* UNL     1     -10.963   7.984  66.805  1.00  0.00    -0.352 OA 
HETATM   31  H3* UNL     1     -10.626   7.097  66.778  1.00  0.00     0.000 HD 
BRANCH  25  32
HETATM   32  C5* UNL     1     -11.257  10.682  69.182  1.00  0.00    -0.265 C  
HETATM   33  O5* UNL     1     -12.668  10.488  69.313  1.00  0.00    -0.703 OA 
HETATM   34  H5* UNL     1     -12.955  10.767  70.175  1.00  0.00     0.000 HD 
ENDBRANCH  25  32
ENDBRANCH  21  23
ENDBRANCH   8  11
ENDBRANCH   3   6
TORSDOF 4
ENDMDL
MODEL      138
REMARK 921   NORMALIZED FREE ENERGY PREDICTED BY IDOCK:   -5.10 KCAL/MOL
REMARK 922        TOTAL FREE ENERGY PREDICTED BY IDOCK:   -6.80 KCAL/MOL
REMARK 923 INTER-LIGAND FREE ENERGY PREDICTED BY IDOCK:   -6.21 KCAL/MOL
REMARK 924 INTRA-LIGAND FREE ENERGY PREDICTED BY IDOCK:   -0.59 KCAL/MOL
REMARK 927      BINDING AFFINITY PREDICTED BY RF-SCORE:    0.00 PKD
ROOT
HETATM    1  C   UNL     1      -6.192  15.852  67.549  1.00  0.00    -0.158 C  
HETATM    2  N   UNL     1      -7.273  14.920  67.727  1.00  0.00    -0.154 N  
HETATM    3  C   UNL     1      -7.114  13.571  67.492  1.00  0.00    -0.148 C  
HETATM    4  H   UNL     1      -8.181  15.266  68.036  1.00  0.00     0.000 HD 
HETATM    5  O   UNL     1      -6.060  13.069  67.118  1.00  0.00    -0.307 OA 
ENDROOT
BRANCH   3   6
HETATM    6  C   UNL     1      -8.305  12.770  67.737  1.00  0.00    -0.177 A  
HETATM    7  C   UNL     1      -8.692  12.134  68.898  1.00  0.00     0.246 A  
HETATM    8  N   UNL     1      -9.877  11.471  68.647  1.00  0.00    -0.197 NA 
HETATM    9  N   UNL     1     -10.289  11.665  67.362  1.00  0.00    -0.202 NA 
HETATM   10  C   UNL     1      -9.346  12.451  66.833  1.00  0.00    -0.213 A  
BRANCH   8  11
HETATM   11  C   UNL     1     -10.557  10.618  69.591  1.00  0.00    -0.217 A  
HETATM   12  N   UNL     1     -10.035   9.390  69.841  1.00  0.00    -0.197 NA 
HETATM   13  C   UNL     1     -10.625   8.805  70.899  1.00  0.00    -0.220 A  
HETATM   14  C   UNL     1     -11.676   9.298  71.651  1.00  0.00    -0.392 A  
HETATM   15  N   UNL     1     -11.991   8.446  72.684  1.00  0.00    -0.360 NA 
HETATM   16  C   UNL     1     -12.207  10.530  71.249  1.00  0.00    -0.368 A  
HETATM   17  N   UNL     1     -13.293  11.131  71.871  1.00  0.00    -0.407 NA 
HETATM   18  N   UNL     1     -11.629  11.177  70.217  1.00  0.00    -0.312 NA 
HETATM   19  C   UNL     1     -11.116   7.470  72.590  1.00  0.00    -0.347 A  
HETATM   20  H1  UNL     1     -13.679  12.028  71.578  1.00  0.00     0.000 HD 
HETATM   21  N   UNL     1     -10.295   7.616  71.496  1.00  0.00    -0.196 NA 
HETATM   22  H2  UNL     1     -13.072  11.205  72.864  1.00  0.00     0.000 HD 
BRANCH  21  23
HETATM   23  C1* UNL     1      -9.262   6.677  71.129  1.00  0.00    -0.159 C  
HETATM   24  O4* UNL     1      -9.002   6.815  69.721  1.00  0.00    -0.143 OA 
HETATM   25  C4* UNL     1      -9.548   5.674  69.028  1.00  0.00    -0.135 C  
HETATM   26  C3* UNL     1      -9.831   4.579  70.067  1.00  0.00    -0.226 C  
HETATM   27  H2* UNL     1      -8.532   3.725  72.267  1.00  0.00     0.000 HD 
HETATM   28  C2* UNL     1      -9.525   5.203  71.432  1.00  0.00    -0.152 C  
HETATM   29  O2* UNL     1      -8.368   4.642  72.079  1.00  0.00    -0.112 OA 
HETATM   30  O3* UNL     1      -9.022   3.415  69.846  1.00  0.00    -0.082 OA 
HETATM   31  H3* UNL     1      -9.197   2.738  70.489  1.00  0.00     0.000 HD 
BRANCH  25  32
HETATM   32  C5* UNL     1     -10.786   6.118  68.235  1.00  0.00    -0.306 C  
HETATM   33  O5* UNL     1     -11.817   6.538  69.133  1.00  0.00    -0.570 OA 
HETATM   34  H5* UNL     1     -12.583   6.813  68.643  1.00  0.00     0.000 HD 
ENDBRANCH  25  32
ENDBRANCH  21  23
ENDBRANCH   8  11
ENDBRANCH   3   6
TORSDOF 4
ENDMDL
MODEL      139
REMARK 921   NORMALIZED FREE ENERGY PREDICTED BY IDOCK:   -5.08 KCAL/MOL
REMARK 922        TOTAL FREE ENERGY PREDICTED BY IDOCK:   -6.78 KCAL/MOL
REMARK 923 INTER-LIGAND FREE ENERGY PREDICTED BY IDOCK:   -6.04 KCAL/MOL
REMARK 924 INTRA-LIGAND FREE ENERGY PREDICTED BY IDOCK:   -0.74 KCAL/MOL
REMARK 927      BINDING AFFINITY PREDICTED BY RF-SCORE:    0.00 PKD
ROOT
HETATM    1  C   UNL     1     -10.837   4.713  72.863  1.00  0.00    -0.221 C  
HETATM    2  N   UNL     1     -10.554   5.733  71.889  1.00  0.00    -0.225 N  
HETATM    3  C   UNL     1     -11.448   6.748  71.622  1.00  0.00    -0.282 C  
HETATM    4  H   UNL     1      -9.670   5.704  71.383  1.00  0.00     0.000 HD 
HETATM    5  O   UNL     1     -12.532   6.859  72.181  1.00  0.00    -0.263 OA 
ENDROOT
BRANCH   3   6
HETATM    6  C   UNL     1     -10.996   7.703  70.620  1.00  0.00    -0.259 A  
HETATM    7  C   UNL     1     -11.477   8.969  70.358  1.00  0.00    -0.173 A  
HETATM    8  N   UNL     1     -10.758   9.488  69.299  1.00  0.00    -0.228 NA 
HETATM    9  N   UNL     1      -9.809   8.609  68.868  1.00  0.00    -0.174 NA 
HETATM   10  C   UNL     1      -9.955   7.551  69.673  1.00  0.00    -0.184 A  
BRANCH   8  11
HETATM   11  C   UNL     1     -11.020  10.760  68.672  1.00  0.00    -0.239 A  
HETATM   12  N   UNL     1     -11.807  11.651  69.328  1.00  0.00    -0.318 NA 
HETATM   13  C   UNL     1     -11.775  12.865  68.749  1.00  0.00    -0.323 A  
HETATM   14  C   UNL     1     -11.100  13.225  67.597  1.00  0.00    -0.269 A  
HETATM   15  N   UNL     1     -11.260  14.564  67.325  1.00  0.00    -0.319 NA 
HETATM   16  C   UNL     1     -10.397  12.207  66.941  1.00  0.00    -0.212 A  
HETATM   17  N   UNL     1      -9.712  12.400  65.748  1.00  0.00    -0.341 NA 
HETATM   18  N   UNL     1     -10.366  10.980  67.499  1.00  0.00    -0.191 NA 
HETATM   19  C   UNL     1     -11.984  15.022  68.321  1.00  0.00    -0.183 A  
HETATM   20  H1  UNL     1      -9.200  11.658  65.271  1.00  0.00     0.000 HD 
HETATM   21  N   UNL     1     -12.362  14.023  69.187  1.00  0.00    -0.247 NA 
HETATM   22  H2  UNL     1      -9.063  13.173  65.892  1.00  0.00     0.000 HD 
BRANCH  21  23
HETATM   23  C1* UNL     1     -13.187  14.232  70.353  1.00  0.00     0.113 C  
HETATM   24  O4* UNL     1     -13.198  15.638  70.656  1.00  0.00    -0.487 OA 
HETATM   25  C4* UNL     1     -12.398  15.872  71.834  1.00  0.00    -0.471 C  
HETATM   26  C3* UNL     1     -12.181  14.522  72.534  1.00  0.00    -0.128 C  
HETATM   27  H2* UNL     1     -13.750  12.373  72.955  1.00  0.00     0.000 HD 
HETATM   28  C2* UNL     1     -12.807  13.466  71.619  1.00  0.00    -0.321 C  
HETATM   29  O2* UNL     1     -13.986  12.850  72.168  1.00  0.00    -0.367 OA 
HETATM   30  O3* UNL     1     -12.787  14.494  73.834  1.00  0.00    -0.450 OA 
HETATM   31  H3* UNL     1     -12.652  13.660  74.267  1.00  0.00     0.000 HD 
BRANCH  25  32
HETATM   32  C5* UNL     1     -11.099  16.578  71.421  1.00  0.00     0.376 C  
HETATM   33  O5* UNL     1     -10.073  15.613  71.176  1.00  0.00     0.343 OA 
HETATM   34  H5* UNL     1      -9.269  16.050  70.921  1.00  0.00     0.000 HD 
ENDBRANCH  25  32
ENDBRANCH  21  23
ENDBRANCH   8  11
ENDBRANCH   3   6
TORSDOF 4
ENDMDL
MODEL      140
REMARK 921   NORMALIZED FREE ENERGY PREDICTED BY IDOCK:   -5.07 KCAL/MOL
REMARK 922        TOTAL FREE ENERGY PREDICTED BY IDOCK:   -6.77 KCAL/MOL
REMARK 923 INTER-LIGAND FREE ENERGY PREDICTED BY IDOCK:   -5.99 KCAL/MOL
REMARK 924 INTRA-LIGAND FREE ENERGY PREDICTED BY IDOCK:   -0.78 KCAL/MOL
REMARK 927      BINDING AFFINITY PREDICTED BY RF-SCORE:    0.00 PKD
ROOT
HETATM    1  C   UNL     1     -12.324  15.638  70.551  1.00  0.00    -0.403 C  
HETATM    2  N   UNL     1     -12.092  14.428  69.808  1.00  0.00    -0.320 N  
HETATM    3  C   UNL     1     -11.041  14.310  68.924  1.00  0.00    -0.262 C  
HETATM    4  H   UNL     1     -12.722  13.637  69.937  1.00  0.00     0.000 HD 
HETATM    5  O   UNL     1     -10.237  15.209  68.706  1.00  0.00    -0.220 OA 
ENDROOT
BRANCH   3   6
HETATM    6  C   UNL     1     -10.944  13.014  68.269  1.00  0.00    -0.285 A  
HETATM    7  C   UNL     1     -10.061  11.985  68.521  1.00  0.00    -0.196 A  
HETATM    8  N   UNL     1     -10.328  10.964  67.629  1.00  0.00    -0.189 NA 
HETATM    9  N   UNL     1     -11.370  11.285  66.810  1.00  0.00    -0.379 NA 
HETATM   10  C   UNL     1     -11.735  12.508  67.210  1.00  0.00    -0.362 A  
BRANCH   8  11
HETATM   11  C   UNL     1      -9.562   9.748  67.518  1.00  0.00    -0.150 A  
HETATM   12  N   UNL     1      -9.077   9.187  68.655  1.00  0.00    -0.136 NA 
HETATM   13  C   UNL     1      -8.593   7.951  68.433  1.00  0.00    -0.128 A  
HETATM   14  C   UNL     1      -8.508   7.290  67.221  1.00  0.00    -0.118 A  
HETATM   15  N   UNL     1      -7.998   6.022  67.380  1.00  0.00    -0.102 NA 
HETATM   16  C   UNL     1      -8.946   7.995  66.094  1.00  0.00    -0.175 A  
HETATM   17  N   UNL     1      -8.879   7.487  64.803  1.00  0.00    -0.256 NA 
HETATM   18  N   UNL     1      -9.474   9.224  66.265  1.00  0.00    -0.203 NA 
HETATM   19  C   UNL     1      -7.815   5.897  68.676  1.00  0.00    -0.102 A  
HETATM   20  H1  UNL     1      -9.198   8.001  63.982  1.00  0.00     0.000 HD 
HETATM   21  N   UNL     1      -8.117   7.055  69.354  1.00  0.00    -0.128 NA 
HETATM   22  H2  UNL     1      -9.362   6.589  64.805  1.00  0.00     0.000 HD 
BRANCH  21  23
HETATM   23  C1* UNL     1      -7.980   7.214  70.783  1.00  0.00    -0.100 C  
HETATM   24  O4* UNL     1      -8.171   5.931  71.404  1.00  0.00    -0.119 OA 
HETATM   25  C4* UNL     1      -9.455   5.913  72.062  1.00  0.00    -0.150 C  
HETATM   26  C3* UNL     1      -9.939   7.365  72.195  1.00  0.00    -0.170 C  
HETATM   27  H2* UNL     1      -8.703   9.693  72.752  1.00  0.00     0.000 HD 
HETATM   28  C2* UNL     1      -8.905   8.223  71.460  1.00  0.00    -0.168 C  
HETATM   29  O2* UNL     1      -8.128   9.065  72.331  1.00  0.00    -0.342 OA 
HETATM   30  O3* UNL     1     -10.051   7.764  73.567  1.00  0.00    -0.319 OA 
HETATM   31  H3* UNL     1     -10.350   8.662  73.649  1.00  0.00     0.000 HD 
BRANCH  25  32
HETATM   32  C5* UNL     1     -10.408   5.006  71.270  1.00  0.00    -0.185 C  
HETATM   33  O5* UNL     1     -10.954   5.721  70.159  1.00  0.00    -0.326 OA 
HETATM   34  H5* UNL     1     -11.544   5.160  69.669  1.00  0.00     0.000 HD 
ENDBRANCH  25  32
ENDBRANCH  21  23
ENDBRANCH   8  11
ENDBRANCH   3   6
TORSDOF 4
ENDMDL
MODEL      141
REMARK 921   NORMALIZED FREE ENERGY PREDICTED BY IDOCK:   -5.07 KCAL/MOL
REMARK 922        TOTAL FREE ENERGY PREDICTED BY IDOCK:   -6.77 KCAL/MOL
REMARK 923 INTER-LIGAND FREE ENERGY PREDICTED BY IDOCK:   -6.20 KCAL/MOL
REMARK 924 INTRA-LIGAND FREE ENERGY PREDICTED BY IDOCK:   -0.56 KCAL/MOL
REMARK 927      BINDING AFFINITY PREDICTED BY RF-SCORE:    0.00 PKD
ROOT
HETATM    1  C   UNL     1      -8.912   3.872  63.291  1.00  0.00    -0.108 C  
HETATM    2  N   UNL     1      -9.071   5.093  64.033  1.00  0.00    -0.351 N  
HETATM    3  C   UNL     1      -8.684   5.196  65.352  1.00  0.00    -0.149 C  
HETATM    4  H   UNL     1      -9.480   5.906  63.572  1.00  0.00     0.000 HD 
HETATM    5  O   UNL     1      -8.186   4.272  65.985  1.00  0.00    -0.104 OA 
ENDROOT
BRANCH   3   6
HETATM    6  C   UNL     1      -8.902   6.508  65.946  1.00  0.00    -0.131 A  
HETATM    7  C   UNL     1      -9.857   6.889  66.866  1.00  0.00    -0.183 A  
HETATM    8  N   UNL     1      -9.696   8.239  67.113  1.00  0.00    -0.177 NA 
HETATM    9  N   UNL     1      -8.656   8.751  66.396  1.00  0.00    -0.123 NA 
HETATM   10  C   UNL     1      -8.184   7.704  65.712  1.00  0.00    -0.133 A  
BRANCH   8  11
HETATM   11  C   UNL     1     -10.559   9.028  67.956  1.00  0.00    -0.186 A  
HETATM   12  N   UNL     1     -10.826   8.576  69.208  1.00  0.00    -0.123 NA 
HETATM   13  C   UNL     1     -11.440   9.511  69.955  1.00  0.00    -0.109 A  
HETATM   14  C   UNL     1     -11.838  10.774  69.555  1.00  0.00    -0.308 A  
HETATM   15  N   UNL     1     -12.397  11.473  70.599  1.00  0.00    -0.373 NA 
HETATM   16  C   UNL     1     -11.604  11.107  68.215  1.00  0.00    -0.289 A  
HETATM   17  N   UNL     1     -11.991  12.315  67.651  1.00  0.00    -0.512 NA 
HETATM   18  N   UNL     1     -10.959  10.219  67.432  1.00  0.00    -0.284 NA 
HETATM   19  C   UNL     1     -12.301  10.665  71.631  1.00  0.00    -0.234 A  
HETATM   20  H1  UNL     1     -11.821  12.557  66.675  1.00  0.00     0.000 HD 
HETATM   21  N   UNL     1     -11.770   9.445  71.283  1.00  0.00    -0.331 NA 
HETATM   22  H2  UNL     1     -11.590  13.059  68.222  1.00  0.00     0.000 HD 
BRANCH  21  23
HETATM   23  C1* UNL     1     -11.578   8.353  72.208  1.00  0.00    -0.383 C  
HETATM   24  O4* UNL     1     -10.331   8.555  72.897  1.00  0.00    -0.179 OA 
HETATM   25  C4* UNL     1      -9.363   7.608  72.402  1.00  0.00    -0.160 C  
HETATM   26  C3* UNL     1     -10.120   6.507  71.645  1.00  0.00    -0.182 C  
HETATM   27  H2* UNL     1     -12.454   5.230  72.066  1.00  0.00     0.000 HD 
HETATM   28  C2* UNL     1     -11.588   6.941  71.627  1.00  0.00    -0.287 C  
HETATM   29  O2* UNL     1     -12.448   6.109  72.427  1.00  0.00    -0.180 OA 
HETATM   30  O3* UNL     1      -9.973   5.229  72.278  1.00  0.00    -0.168 OA 
HETATM   31  H3* UNL     1     -10.441   4.548  71.809  1.00  0.00     0.000 HD 
BRANCH  25  32
HETATM   32  C5* UNL     1      -8.327   8.355  71.549  1.00  0.00    -0.154 C  
HETATM   33  O5* UNL     1      -8.762   9.696  71.312  1.00  0.00    -0.304 OA 
HETATM   34  H5* UNL     1      -8.122  10.158  70.785  1.00  0.00     0.000 HD 
ENDBRANCH  25  32
ENDBRANCH  21  23
ENDBRANCH   8  11
ENDBRANCH   3   6
TORSDOF 4
ENDMDL
MODEL      142
REMARK 921   NORMALIZED FREE ENERGY PREDICTED BY IDOCK:   -5.06 KCAL/MOL
REMARK 922        TOTAL FREE ENERGY PREDICTED BY IDOCK:   -6.76 KCAL/MOL
REMARK 923 INTER-LIGAND FREE ENERGY PREDICTED BY IDOCK:   -6.31 KCAL/MOL
REMARK 924 INTRA-LIGAND FREE ENERGY PREDICTED BY IDOCK:   -0.45 KCAL/MOL
REMARK 927      BINDING AFFINITY PREDICTED BY RF-SCORE:    0.00 PKD
ROOT
HETATM    1  C   UNL     1     -12.668   7.385  71.634  1.00  0.00    -0.365 C  
HETATM    2  N   UNL     1     -12.327   8.588  70.923  1.00  0.00    -0.487 N  
HETATM    3  C   UNL     1     -11.025   9.034  70.836  1.00  0.00    -0.268 C  
HETATM    4  H   UNL     1     -13.067   9.125  70.472  1.00  0.00     0.000 HD 
HETATM    5  O   UNL     1     -10.075   8.454  71.347  1.00  0.00    -0.189 OA 
ENDROOT
BRANCH   3   6
HETATM    6  C   UNL     1     -10.856  10.259  70.066  1.00  0.00    -0.364 A  
HETATM    7  C   UNL     1      -9.719  10.739  69.450  1.00  0.00    -0.061 A  
HETATM    8  N   UNL     1     -10.030  11.952  68.866  1.00  0.00    -0.079 NA 
HETATM    9  N   UNL     1     -11.340  12.274  69.065  1.00  0.00    -0.261 NA 
HETATM   10  C   UNL     1     -11.824  11.249  69.774  1.00  0.00    -0.364 A  
BRANCH   8  11
HETATM   11  C   UNL     1      -9.082  12.809  68.198  1.00  0.00    -0.203 A  
HETATM   12  N   UNL     1      -9.431  14.101  67.970  1.00  0.00    -0.207 NA 
HETATM   13  C   UNL     1      -8.382  14.836  67.562  1.00  0.00    -0.183 A  
HETATM   14  C   UNL     1      -7.092  14.395  67.323  1.00  0.00     0.055 A  
HETATM   15  N   UNL     1      -6.270  15.436  66.958  1.00  0.00    -0.175 NA 
HETATM   16  C   UNL     1      -6.860  13.025  67.494  1.00  0.00    -0.151 A  
HETATM   17  N   UNL     1      -5.634  12.423  67.246  1.00  0.00    -0.240 NA 
HETATM   18  N   UNL     1      -7.870  12.248  67.938  1.00  0.00    -0.134 NA 
HETATM   19  C   UNL     1      -7.037  16.502  67.017  1.00  0.00    -0.212 A  
HETATM   20  H1  UNL     1      -5.465  11.425  67.371  1.00  0.00     0.000 HD 
HETATM   21  N   UNL     1      -8.337  16.186  67.333  1.00  0.00    -0.165 NA 
HETATM   22  H2  UNL     1      -4.934  12.920  67.796  1.00  0.00     0.000 HD 
BRANCH  21  23
HETATM   23  C1* UNL     1      -9.402  17.156  67.436  1.00  0.00    -0.234 C  
HETATM   24  O4* UNL     1      -8.962  18.382  66.825  1.00  0.00    -0.271 OA 
HETATM   25  C4* UNL     1      -8.695  19.352  67.859  1.00  0.00    -0.317 C  
HETATM   26  C3* UNL     1      -9.354  18.857  69.155  1.00  0.00    -0.108 C  
HETATM   27  H2* UNL     1     -11.683  17.617  69.701  1.00  0.00     0.000 HD 
HETATM   28  C2* UNL     1      -9.921  17.470  68.837  1.00  0.00    -0.313 C  
HETATM   29  O2* UNL     1     -11.360  17.421  68.829  1.00  0.00     0.208 OA 
HETATM   30  O3* UNL     1     -10.391  19.743  69.597  1.00  0.00    -0.620 OA 
HETATM   31  H3* UNL     1     -10.798  19.437  70.399  1.00  0.00     0.000 HD 
BRANCH  25  32
HETATM   32  C5* UNL     1      -7.177  19.558  67.969  1.00  0.00    -0.277 C  
HETATM   33  O5* UNL     1      -6.779  19.546  69.342  1.00  0.00    -0.322 OA 
HETATM   34  H5* UNL     1      -5.840  19.674  69.409  1.00  0.00     0.000 HD 
ENDBRANCH  25  32
ENDBRANCH  21  23
ENDBRANCH   8  11
ENDBRANCH   3   6
TORSDOF 4
ENDMDL
MODEL      143
REMARK 921   NORMALIZED FREE ENERGY PREDICTED BY IDOCK:   -5.02 KCAL/MOL
REMARK 922        TOTAL FREE ENERGY PREDICTED BY IDOCK:   -6.71 KCAL/MOL
REMARK 923 INTER-LIGAND FREE ENERGY PREDICTED BY IDOCK:   -6.15 KCAL/MOL
REMARK 924 INTRA-LIGAND FREE ENERGY PREDICTED BY IDOCK:   -0.55 KCAL/MOL
REMARK 927      BINDING AFFINITY PREDICTED BY RF-SCORE:    0.00 PKD
ROOT
HETATM    1  C   UNL     1      -8.271   3.601  67.013  1.00  0.00    -0.095 C  
HETATM    2  N   UNL     1      -8.914   4.583  67.844  1.00  0.00    -0.111 N  
HETATM    3  C   UNL     1     -10.100   5.181  67.475  1.00  0.00    -0.167 C  
HETATM    4  H   UNL     1      -8.482   4.843  68.731  1.00  0.00     0.000 HD 
HETATM    5  O   UNL     1     -10.687   4.931  66.429  1.00  0.00    -0.281 OA 
ENDROOT
BRANCH   3   6
HETATM    6  C   UNL     1     -10.620   6.140  68.440  1.00  0.00    -0.324 A  
HETATM    7  C   UNL     1     -10.677   7.515  68.344  1.00  0.00    -0.067 A  
HETATM    8  N   UNL     1     -11.223   8.002  69.515  1.00  0.00     0.048 NA 
HETATM    9  N   UNL     1     -11.541   6.990  70.371  1.00  0.00    -0.309 NA 
HETATM   10  C   UNL     1     -11.185   5.882  69.712  1.00  0.00    -0.261 A  
BRANCH   8  11
HETATM   11  C   UNL     1     -11.369   9.401  69.833  1.00  0.00    -0.093 A  
HETATM   12  N   UNL     1     -10.748  10.311  69.041  1.00  0.00    -0.214 NA 
HETATM   13  C   UNL     1     -11.156  11.565  69.305  1.00  0.00    -0.246 A  
HETATM   14  C   UNL     1     -12.046  11.966  70.285  1.00  0.00    -0.325 A  
HETATM   15  N   UNL     1     -12.261  13.324  70.236  1.00  0.00    -0.340 NA 
HETATM   16  C   UNL     1     -12.557  10.960  71.114  1.00  0.00    -0.428 A  
HETATM   17  N   UNL     1     -13.421  11.210  72.172  1.00  0.00    -0.526 NA 
HETATM   18  N   UNL     1     -12.208   9.681  70.868  1.00  0.00    -0.299 NA 
HETATM   19  C   UNL     1     -11.545  13.737  69.214  1.00  0.00    -0.312 A  
HETATM   20  H1  UNL     1     -13.792  10.477  72.776  1.00  0.00     0.000 HD 
HETATM   21  N   UNL     1     -10.820  12.717  68.644  1.00  0.00    -0.249 NA 
HETATM   22  H2  UNL     1     -14.216  11.728  71.800  1.00  0.00     0.000 HD 
BRANCH  21  23
HETATM   23  C1* UNL     1      -9.925  12.889  67.525  1.00  0.00    -0.215 C  
HETATM   24  O4* UNL     1      -8.935  11.845  67.571  1.00  0.00    -0.162 OA 
HETATM   25  C4* UNL     1      -7.675  12.412  67.986  1.00  0.00    -0.135 C  
HETATM   26  C3* UNL     1      -7.766  13.937  67.829  1.00  0.00    -0.172 C  
HETATM   27  H2* UNL     1      -8.886  15.552  65.986  1.00  0.00     0.000 HD 
HETATM   28  C2* UNL     1      -9.208  14.232  67.409  1.00  0.00    -0.200 C  
HETATM   29  O2* UNL     1      -9.331  14.716  66.059  1.00  0.00    -0.266 OA 
HETATM   30  O3* UNL     1      -6.839  14.427  66.850  1.00  0.00    -0.280 OA 
HETATM   31  H3* UNL     1      -6.896  15.370  66.753  1.00  0.00     0.000 HD 
BRANCH  25  32
HETATM   32  C5* UNL     1      -7.366  11.948  69.417  1.00  0.00     0.182 C  
HETATM   33  O5* UNL     1      -6.326  12.752  69.979  1.00  0.00    -0.307 OA 
HETATM   34  H5* UNL     1      -6.136  12.465  70.864  1.00  0.00     0.000 HD 
ENDBRANCH  25  32
ENDBRANCH  21  23
ENDBRANCH   8  11
ENDBRANCH   3   6
TORSDOF 4
ENDMDL
MODEL      144
REMARK 921   NORMALIZED FREE ENERGY PREDICTED BY IDOCK:   -5.02 KCAL/MOL
REMARK 922        TOTAL FREE ENERGY PREDICTED BY IDOCK:   -6.70 KCAL/MOL
REMARK 923 INTER-LIGAND FREE ENERGY PREDICTED BY IDOCK:   -6.29 KCAL/MOL
REMARK 924 INTRA-LIGAND FREE ENERGY PREDICTED BY IDOCK:   -0.42 KCAL/MOL
REMARK 927      BINDING AFFINITY PREDICTED BY RF-SCORE:    0.00 PKD
ROOT
HETATM    1  C   UNL     1     -12.759  16.083  72.566  1.00  0.00    -0.428 C  
HETATM    2  N   UNL     1     -12.300  14.914  71.864  1.00  0.00    -0.329 N  
HETATM    3  C   UNL     1     -13.155  13.883  71.538  1.00  0.00    -0.365 C  
HETATM    4  H   UNL     1     -11.317  14.846  71.601  1.00  0.00     0.000 HD 
HETATM    5  O   UNL     1     -14.349  13.879  71.815  1.00  0.00    -0.359 OA 
ENDROOT
BRANCH   3   6
HETATM    6  C   UNL     1     -12.529  12.784  70.815  1.00  0.00    -0.357 A  
HETATM    7  C   UNL     1     -12.427  11.458  71.182  1.00  0.00    -0.360 A  
HETATM    8  N   UNL     1     -11.723  10.795  70.196  1.00  0.00    -0.309 NA 
HETATM    9  N   UNL     1     -11.373  11.641  69.186  1.00  0.00    -0.259 NA 
HETATM   10  C   UNL     1     -11.870  12.824  69.563  1.00  0.00    -0.316 A  
BRANCH   8  11
HETATM   11  C   UNL     1     -11.335   9.408  70.255  1.00  0.00    -0.220 A  
HETATM   12  N   UNL     1     -10.918   8.806  69.112  1.00  0.00    -0.042 NA 
HETATM   13  C   UNL     1     -10.371   7.602  69.354  1.00  0.00    -0.214 A  
HETATM   14  C   UNL     1     -10.263   6.961  70.575  1.00  0.00    -0.192 A  
HETATM   15  N   UNL     1      -9.606   5.758  70.450  1.00  0.00    -0.165 NA 
HETATM   16  C   UNL     1     -10.813   7.624  71.679  1.00  0.00    -0.227 A  
HETATM   17  N   UNL     1     -10.828   7.090  72.960  1.00  0.00    -0.292 NA 
HETATM   18  N   UNL     1     -11.342   8.852  71.498  1.00  0.00    -0.298 NA 
HETATM   19  C   UNL     1      -9.279   5.689  69.179  1.00  0.00    -0.115 A  
HETATM   20  H1  UNL     1     -11.228   7.573  73.764  1.00  0.00     0.000 HD 
HETATM   21  N   UNL     1      -9.760   6.759  68.462  1.00  0.00    -0.132 NA 
HETATM   22  H2  UNL     1      -9.867   6.848  73.200  1.00  0.00     0.000 HD 
BRANCH  21  23
HETATM   23  C1* UNL     1      -9.578   6.928  67.040  1.00  0.00    -0.158 C  
HETATM   24  O4* UNL     1     -10.394   5.959  66.359  1.00  0.00    -0.177 OA 
HETATM   25  C4* UNL     1      -9.544   4.931  65.810  1.00  0.00    -0.170 C  
HETATM   26  C3* UNL     1      -8.102   5.459  65.808  1.00  0.00    -0.110 C  
HETATM   27  H2* UNL     1      -7.005   7.866  65.295  1.00  0.00     0.000 HD 
HETATM   28  C2* UNL     1      -8.151   6.821  66.506  1.00  0.00    -0.108 C  
HETATM   29  O2* UNL     1      -7.893   7.932  65.627  1.00  0.00    -0.097 OA 
HETATM   30  O3* UNL     1      -7.584   5.587  64.477  1.00  0.00    -0.071 OA 
HETATM   31  H3* UNL     1      -6.692   5.913  64.476  1.00  0.00     0.000 HD 
BRANCH  25  32
HETATM   32  C5* UNL     1      -9.736   3.640  66.621  1.00  0.00    -0.071 C  
HETATM   33  O5* UNL     1      -9.478   2.501  65.796  1.00  0.00    -0.348 OA 
HETATM   34  H5* UNL     1      -9.596   1.703  66.298  1.00  0.00     0.000 HD 
ENDBRANCH  25  32
ENDBRANCH  21  23
ENDBRANCH   8  11
ENDBRANCH   3   6
TORSDOF 4
ENDMDL
MODEL      145
REMARK 921   NORMALIZED FREE ENERGY PREDICTED BY IDOCK:   -5.00 KCAL/MOL
REMARK 922        TOTAL FREE ENERGY PREDICTED BY IDOCK:   -6.68 KCAL/MOL
REMARK 923 INTER-LIGAND FREE ENERGY PREDICTED BY IDOCK:   -5.93 KCAL/MOL
REMARK 924 INTRA-LIGAND FREE ENERGY PREDICTED BY IDOCK:   -0.75 KCAL/MOL
REMARK 927      BINDING AFFINITY PREDICTED BY RF-SCORE:    0.00 PKD
ROOT
HETATM    1  C   UNL     1     -14.350   6.132  72.248  1.00  0.00     0.680 C  
HETATM    2  N   UNL     1     -13.787   7.319  71.662  1.00  0.00    -0.448 N  
HETATM    3  C   UNL     1     -12.434   7.578  71.706  1.00  0.00    -0.330 C  
HETATM    4  H   UNL     1     -14.405   7.987  71.201  1.00  0.00     0.000 HD 
HETATM    5  O   UNL     1     -11.620   6.833  72.238  1.00  0.00    -0.271 OA 
ENDROOT
BRANCH   3   6
HETATM    6  C   UNL     1     -12.033   8.815  71.050  1.00  0.00    -0.291 A  
HETATM    7  C   UNL     1     -12.306  10.115  71.423  1.00  0.00    -0.416 A  
HETATM    8  N   UNL     1     -11.745  10.955  70.481  1.00  0.00    -0.337 NA 
HETATM    9  N   UNL     1     -11.099  10.248  69.511  1.00  0.00    -0.248 NA 
HETATM   10  C   UNL     1     -11.270   8.971  69.869  1.00  0.00    -0.079 A  
BRANCH   8  11
HETATM   11  C   UNL     1     -11.887  12.390  70.473  1.00  0.00    -0.062 A  
HETATM   12  N   UNL     1     -11.306  13.089  69.465  1.00  0.00    -0.200 NA 
HETATM   13  C   UNL     1     -11.710  14.372  69.449  1.00  0.00    -0.317 A  
HETATM   14  C   UNL     1     -12.560  14.992  70.347  1.00  0.00    -0.350 A  
HETATM   15  N   UNL     1     -12.785  16.303  69.995  1.00  0.00     0.365 NA 
HETATM   16  C   UNL     1     -13.028  14.207  71.408  1.00  0.00    -0.351 A  
HETATM   17  N   UNL     1     -13.847  14.699  72.416  1.00  0.00    -0.456 NA 
HETATM   18  N   UNL     1     -12.682  12.905  71.450  1.00  0.00    -0.330 NA 
HETATM   19  C   UNL     1     -12.117  16.466  68.874  1.00  0.00     0.450 A  
HETATM   20  H1  UNL     1     -14.188  14.127  73.189  1.00  0.00     0.000 HD 
HETATM   21  N   UNL     1     -11.411  15.339  68.526  1.00  0.00    -0.310 NA 
HETATM   22  H2  UNL     1     -14.661  15.120  71.969  1.00  0.00     0.000 HD 
BRANCH  21  23
HETATM   23  C1* UNL     1     -10.565  15.243  67.359  1.00  0.00    -0.282 C  
HETATM   24  O4* UNL     1      -9.271  14.771  67.774  1.00  0.00    -0.188 OA 
HETATM   25  C4* UNL     1      -8.331  15.863  67.712  1.00  0.00    -0.150 C  
HETATM   26  C3* UNL     1      -8.956  16.979  66.862  1.00  0.00    -0.229 C  
HETATM   27  H2* UNL     1     -10.459  16.993  64.627  1.00  0.00     0.000 HD 
HETATM   28  C2* UNL     1     -10.377  16.513  66.532  1.00  0.00    -0.305 C  
HETATM   29  O2* UNL     1     -10.576  16.203  65.141  1.00  0.00    -0.538 OA 
HETATM   30  O3* UNL     1      -8.207  17.218  65.663  1.00  0.00    -0.467 OA 
HETATM   31  H3* UNL     1      -8.593  17.909  65.138  1.00  0.00     0.000 HD 
BRANCH  25  32
HETATM   32  C5* UNL     1      -7.972  16.293  69.142  1.00  0.00    -0.221 C  
HETATM   33  O5* UNL     1      -7.081  17.411  69.108  1.00  0.00    -0.245 OA 
HETATM   34  H5* UNL     1      -6.859  17.677  69.993  1.00  0.00     0.000 HD 
ENDBRANCH  25  32
ENDBRANCH  21  23
ENDBRANCH   8  11
ENDBRANCH   3   6
TORSDOF 4
ENDMDL
MODEL      146
REMARK 921   NORMALIZED FREE ENERGY PREDICTED BY IDOCK:   -4.99 KCAL/MOL
REMARK 922        TOTAL FREE ENERGY PREDICTED BY IDOCK:   -6.67 KCAL/MOL
REMARK 923 INTER-LIGAND FREE ENERGY PREDICTED BY IDOCK:   -6.21 KCAL/MOL
REMARK 924 INTRA-LIGAND FREE ENERGY PREDICTED BY IDOCK:   -0.46 KCAL/MOL
REMARK 927      BINDING AFFINITY PREDICTED BY RF-SCORE:    0.00 PKD
ROOT
HETATM    1  C   UNL     1     -10.216  19.556  66.625  1.00  0.00    -0.449 C  
HETATM    2  N   UNL     1      -9.804  18.215  66.943  1.00  0.00    -0.314 N  
HETATM    3  C   UNL     1      -8.589  17.952  67.540  1.00  0.00    -0.239 C  
HETATM    4  H   UNL     1     -10.425  17.438  66.720  1.00  0.00     0.000 HD 
HETATM    5  O   UNL     1      -7.781  18.823  67.841  1.00  0.00    -0.248 OA 
ENDROOT
BRANCH   3   6
HETATM    6  C   UNL     1      -8.338  16.543  67.806  1.00  0.00    -0.176 A  
HETATM    7  C   UNL     1      -8.965  15.439  67.264  1.00  0.00    -0.198 A  
HETATM    8  N   UNL     1      -8.413  14.311  67.838  1.00  0.00    -0.157 NA 
HETATM    9  N   UNL     1      -7.433  14.638  68.727  1.00  0.00    -0.128 NA 
HETATM   10  C   UNL     1      -7.391  15.974  68.691  1.00  0.00    -0.159 A  
BRANCH   8  11
HETATM   11  C   UNL     1      -8.861  12.962  67.594  1.00  0.00    -0.187 A  
HETATM   12  N   UNL     1      -9.356  12.249  68.637  1.00  0.00    -0.079 NA 
HETATM   13  C   UNL     1      -9.947  11.112  68.229  1.00  0.00    -0.187 A  
HETATM   14  C   UNL     1     -10.030  10.630  66.935  1.00  0.00    -0.202 A  
HETATM   15  N   UNL     1     -10.746   9.456  66.886  1.00  0.00    -0.164 NA 
HETATM   16  C   UNL     1      -9.401  11.393  65.943  1.00  0.00    -0.228 A  
HETATM   17  N   UNL     1      -9.353  11.016  64.607  1.00  0.00    -0.237 NA 
HETATM   18  N   UNL     1      -8.825  12.560  66.294  1.00  0.00    -0.020 NA 
HETATM   19  C   UNL     1     -11.133   9.251  68.126  1.00  0.00     0.110 A  
HETATM   20  H1  UNL     1      -8.896  11.572  63.885  1.00  0.00     0.000 HD 
HETATM   21  N   UNL     1     -10.635  10.201  68.986  1.00  0.00    -0.210 NA 
HETATM   22  H2  UNL     1     -10.313  10.854  64.303  1.00  0.00     0.000 HD 
BRANCH  21  23
HETATM   23  C1* UNL     1     -10.873  10.206  70.410  1.00  0.00    -0.301 C  
HETATM   24  O4* UNL     1     -10.170   9.094  70.992  1.00  0.00    -0.251 OA 
HETATM   25  C4* UNL     1     -11.125   8.081  71.372  1.00  0.00    -0.241 C  
HETATM   26  C3* UNL     1     -12.519   8.725  71.386  1.00  0.00    -0.303 C  
HETATM   27  H2* UNL     1     -13.445  11.134  72.161  1.00  0.00     0.000 HD 
HETATM   28  C2* UNL     1     -12.328  10.155  70.871  1.00  0.00    -0.363 C  
HETATM   29  O2* UNL     1     -12.540  11.165  71.874  1.00  0.00    -0.266 OA 
HETATM   30  O3* UNL     1     -13.090   8.730  72.702  1.00  0.00    -0.574 OA 
HETATM   31  H3* UNL     1     -13.952   9.128  72.710  1.00  0.00     0.000 HD 
BRANCH  25  32
HETATM   32  C5* UNL     1     -10.997   6.890  70.410  1.00  0.00    -0.274 C  
HETATM   33  O5* UNL     1      -9.617   6.593  70.180  1.00  0.00    -0.161 OA 
HETATM   34  H5* UNL     1      -9.538   5.857  69.586  1.00  0.00     0.000 HD 
ENDBRANCH  25  32
ENDBRANCH  21  23
ENDBRANCH   8  11
ENDBRANCH   3   6
TORSDOF 4
ENDMDL
MODEL      147
REMARK 921   NORMALIZED FREE ENERGY PREDICTED BY IDOCK:   -4.95 KCAL/MOL
REMARK 922        TOTAL FREE ENERGY PREDICTED BY IDOCK:   -6.63 KCAL/MOL
REMARK 923 INTER-LIGAND FREE ENERGY PREDICTED BY IDOCK:   -6.04 KCAL/MOL
REMARK 924 INTRA-LIGAND FREE ENERGY PREDICTED BY IDOCK:   -0.59 KCAL/MOL
REMARK 927      BINDING AFFINITY PREDICTED BY RF-SCORE:    0.00 PKD
ROOT
HETATM    1  C   UNL     1     -14.101   8.797  71.828  1.00  0.00    -0.401 C  
HETATM    2  N   UNL     1     -13.036   9.013  70.885  1.00  0.00    -0.515 N  
HETATM    3  C   UNL     1     -12.429  10.243  70.747  1.00  0.00    -0.346 C  
HETATM    4  H   UNL     1     -12.721   8.236  70.304  1.00  0.00     0.000 HD 
HETATM    5  O   UNL     1     -12.744  11.230  71.401  1.00  0.00    -0.398 OA 
ENDROOT
BRANCH   3   6
HETATM    6  C   UNL     1     -11.360  10.282  69.759  1.00  0.00    -0.334 A  
HETATM    7  C   UNL     1     -11.456  10.425  68.390  1.00  0.00    -0.155 A  
HETATM    8  N   UNL     1     -10.179  10.374  67.865  1.00  0.00    -0.170 NA 
HETATM    9  N   UNL     1      -9.247  10.219  68.848  1.00  0.00    -0.165 NA 
HETATM   10  C   UNL     1      -9.965  10.176  69.975  1.00  0.00    -0.161 A  
BRANCH   8  11
HETATM   11  C   UNL     1      -9.869  10.402  66.458  1.00  0.00    -0.206 A  
HETATM   12  N   UNL     1      -8.858   9.617  66.006  1.00  0.00    -0.147 NA 
HETATM   13  C   UNL     1      -8.832   9.562  64.662  1.00  0.00    -0.213 A  
HETATM   14  C   UNL     1      -9.658  10.236  63.780  1.00  0.00    -0.284 A  
HETATM   15  N   UNL     1      -9.370   9.904  62.476  1.00  0.00    -0.280 NA 
HETATM   16  C   UNL     1     -10.605  11.097  64.347  1.00  0.00    -0.343 A  
HETATM   17  N   UNL     1     -11.471  11.880  63.594  1.00  0.00    -0.485 NA 
HETATM   18  N   UNL     1     -10.697  11.163  65.691  1.00  0.00    -0.224 NA 
HETATM   19  C   UNL     1      -8.414   9.007  62.565  1.00  0.00    -0.212 A  
HETATM   20  H1  UNL     1     -12.161  12.507  64.008  1.00  0.00     0.000 HD 
HETATM   21  N   UNL     1      -8.020   8.798  63.865  1.00  0.00    -0.149 NA 
HETATM   22  H2  UNL     1     -11.969  11.258  62.959  1.00  0.00     0.000 HD 
BRANCH  21  23
HETATM   23  C1* UNL     1      -6.967   7.890  64.256  1.00  0.00    -0.068 C  
HETATM   24  O4* UNL     1      -6.632   7.068  63.123  1.00  0.00    -0.046 OA 
HETATM   25  C4* UNL     1      -7.140   5.736  63.342  1.00  0.00    -0.047 C  
HETATM   26  C3* UNL     1      -7.476   5.597  64.835  1.00  0.00    -0.078 C  
HETATM   27  H2* UNL     1      -6.295   6.465  67.095  1.00  0.00     0.000 HD 
HETATM   28  C2* UNL     1      -7.244   6.980  65.450  1.00  0.00    -0.073 C  
HETATM   29  O2* UNL     1      -6.123   7.032  66.351  1.00  0.00    -0.033 OA 
HETATM   30  O3* UNL     1      -6.656   4.610  65.475  1.00  0.00    -0.039 OA 
HETATM   31  H3* UNL     1      -6.864   4.523  66.397  1.00  0.00     0.000 HD 
BRANCH  25  32
HETATM   32  C5* UNL     1      -8.335   5.498  62.408  1.00  0.00    -0.110 C  
HETATM   33  O5* UNL     1      -9.423   4.928  63.139  1.00  0.00    -0.355 OA 
HETATM   34  H5* UNL     1     -10.162   4.781  62.561  1.00  0.00     0.000 HD 
ENDBRANCH  25  32
ENDBRANCH  21  23
ENDBRANCH   8  11
ENDBRANCH   3   6
TORSDOF 4
ENDMDL
MODEL      148
REMARK 921   NORMALIZED FREE ENERGY PREDICTED BY IDOCK:   -4.94 KCAL/MOL
REMARK 922        TOTAL FREE ENERGY PREDICTED BY IDOCK:   -6.60 KCAL/MOL
REMARK 923 INTER-LIGAND FREE ENERGY PREDICTED BY IDOCK:   -5.69 KCAL/MOL
REMARK 924 INTRA-LIGAND FREE ENERGY PREDICTED BY IDOCK:   -0.91 KCAL/MOL
REMARK 927      BINDING AFFINITY PREDICTED BY RF-SCORE:    0.00 PKD
ROOT
HETATM    1  C   UNL     1     -12.448  12.829  64.471  1.00  0.00    -0.428 C  
HETATM    2  N   UNL     1     -12.325  12.160  65.737  1.00  0.00     0.046 N  
HETATM    3  C   UNL     1     -11.903  12.822  66.870  1.00  0.00    -0.371 C  
HETATM    4  H   UNL     1     -12.556  11.168  65.800  1.00  0.00     0.000 HD 
HETATM    5  O   UNL     1     -11.603  14.010  66.887  1.00  0.00    -0.346 OA 
ENDROOT
BRANCH   3   6
HETATM    6  C   UNL     1     -11.850  11.998  68.069  1.00  0.00    -0.338 A  
HETATM    7  C   UNL     1     -11.271  10.757  68.237  1.00  0.00    -0.297 A  
HETATM    8  N   UNL     1     -11.499  10.352  69.537  1.00  0.00    -0.253 NA 
HETATM    9  N   UNL     1     -12.196  11.294  70.233  1.00  0.00    -0.337 NA 
HETATM   10  C   UNL     1     -12.391  12.276  69.347  1.00  0.00     0.090 A  
BRANCH   8  11
HETATM   11  C   UNL     1     -11.122   9.068  70.076  1.00  0.00    -0.182 A  
HETATM   12  N   UNL     1     -10.536   8.168  69.246  1.00  0.00    -0.211 NA 
HETATM   13  C   UNL     1     -10.029   7.122  69.922  1.00  0.00    -0.182 A  
HETATM   14  C   UNL     1     -10.105   6.889  71.284  1.00  0.00    -0.190 A  
HETATM   15  N   UNL     1      -9.435   5.739  71.630  1.00  0.00    -0.152 NA 
HETATM   16  C   UNL     1     -10.817   7.830  72.039  1.00  0.00    -0.245 A  
HETATM   17  N   UNL     1     -11.025   7.709  73.406  1.00  0.00    -0.472 NA 
HETATM   18  N   UNL     1     -11.315   8.916  71.415  1.00  0.00    -0.284 NA 
HETATM   19  C   UNL     1      -8.919   5.302  70.503  1.00  0.00    -0.136 A  
HETATM   20  H1  UNL     1     -11.542   8.395  73.956  1.00  0.00     0.000 HD 
HETATM   21  N   UNL     1      -9.289   6.079  69.430  1.00  0.00    -0.131 NA 
HETATM   22  H2  UNL     1     -10.110   7.598  73.844  1.00  0.00     0.000 HD 
BRANCH  21  23
HETATM   23  C1* UNL     1      -8.894   5.816  68.067  1.00  0.00    -0.109 C  
HETATM   24  O4* UNL     1      -7.521   6.213  67.906  1.00  0.00    -0.082 OA 
HETATM   25  C4* UNL     1      -7.471   7.426  67.127  1.00  0.00    -0.106 C  
HETATM   26  C3* UNL     1      -8.832   7.604  66.438  1.00  0.00    -0.156 C  
HETATM   27  H2* UNL     1     -10.569   5.897  65.286  1.00  0.00     0.000 HD 
HETATM   28  C2* UNL     1      -9.722   6.474  66.965  1.00  0.00    -0.151 C  
HETATM   29  O2* UNL     1     -10.054   5.487  65.971  1.00  0.00    -0.119 OA 
HETATM   30  O3* UNL     1      -8.718   7.539  65.010  1.00  0.00    -0.358 OA 
HETATM   31  H3* UNL     1      -9.560   7.650  64.585  1.00  0.00     0.000 HD 
BRANCH  25  32
HETATM   32  C5* UNL     1      -7.079   8.592  68.046  1.00  0.00    -0.082 C  
HETATM   33  O5* UNL     1      -8.172   9.505  68.173  1.00  0.00    -0.112 OA 
HETATM   34  H5* UNL     1      -7.929  10.227  68.741  1.00  0.00     0.000 HD 
ENDBRANCH  25  32
ENDBRANCH  21  23
ENDBRANCH   8  11
ENDBRANCH   3   6
TORSDOF 4
ENDMDL
MODEL      149
REMARK 921   NORMALIZED FREE ENERGY PREDICTED BY IDOCK:   -4.90 KCAL/MOL
REMARK 922        TOTAL FREE ENERGY PREDICTED BY IDOCK:   -6.56 KCAL/MOL
REMARK 923 INTER-LIGAND FREE ENERGY PREDICTED BY IDOCK:   -6.48 KCAL/MOL
REMARK 924 INTRA-LIGAND FREE ENERGY PREDICTED BY IDOCK:   -0.08 KCAL/MOL
REMARK 927      BINDING AFFINITY PREDICTED BY RF-SCORE:    0.00 PKD
ROOT
HETATM    1  C   UNL     1      -5.413   8.171  62.615  1.00  0.00    -0.069 C  
HETATM    2  N   UNL     1      -5.570   9.237  63.568  1.00  0.00    -0.070 N  
HETATM    3  C   UNL     1      -6.462   9.148  64.615  1.00  0.00    -0.075 C  
HETATM    4  H   UNL     1      -5.008  10.082  63.465  1.00  0.00     0.000 HD 
HETATM    5  O   UNL     1      -7.177   8.173  64.813  1.00  0.00    -0.077 OA 
ENDROOT
BRANCH   3   6
HETATM    6  C   UNL     1      -6.483  10.310  65.493  1.00  0.00    -0.121 A  
HETATM    7  C   UNL     1      -7.564  11.065  65.897  1.00  0.00     0.007 A  
HETATM    8  N   UNL     1      -7.096  12.084  66.703  1.00  0.00     0.053 NA 
HETATM    9  N   UNL     1      -5.743  12.012  66.854  1.00  0.00    -0.256 NA 
HETATM   10  C   UNL     1      -5.391  10.942  66.134  1.00  0.00    -0.121 A  
BRANCH   8  11
HETATM   11  C   UNL     1      -7.912  13.137  67.254  1.00  0.00    -0.133 A  
HETATM   12  N   UNL     1      -9.121  13.379  66.685  1.00  0.00    -0.210 NA 
HETATM   13  C   UNL     1      -9.866  14.212  67.433  1.00  0.00    -0.239 A  
HETATM   14  C   UNL     1      -9.498  14.834  68.613  1.00  0.00    -0.213 A  
HETATM   15  N   UNL     1     -10.531  15.584  69.124  1.00  0.00    -0.218 NA 
HETATM   16  C   UNL     1      -8.194  14.595  69.064  1.00  0.00    -0.110 A  
HETATM   17  N   UNL     1      -7.660  15.184  70.202  1.00  0.00    -0.171 NA 
HETATM   18  N   UNL     1      -7.417  13.738  68.370  1.00  0.00    -0.110 NA 
HETATM   19  C   UNL     1     -11.529  15.386  68.292  1.00  0.00    -0.353 A  
HETATM   20  H1  UNL     1      -6.711  15.010  70.530  1.00  0.00     0.000 HD 
HETATM   21  N   UNL     1     -11.164  14.600  67.225  1.00  0.00    -0.325 NA 
HETATM   22  H2  UNL     1      -8.291  14.977  70.976  1.00  0.00     0.000 HD 
BRANCH  21  23
HETATM   23  C1* UNL     1     -12.049  14.245  66.141  1.00  0.00    -0.406 C  
HETATM   24  O4* UNL     1     -12.587  12.937  66.403  1.00  0.00    -0.343 OA 
HETATM   25  C4* UNL     1     -11.972  11.988  65.508  1.00  0.00    -0.095 C  
HETATM   26  C3* UNL     1     -11.298  12.774  64.373  1.00  0.00    -0.347 C  
HETATM   27  H2* UNL     1     -11.981  14.976  62.978  1.00  0.00     0.000 HD 
HETATM   28  C2* UNL     1     -11.459  14.254  64.732  1.00  0.00    -0.393 C  
HETATM   29  O2* UNL     1     -12.347  14.970  63.854  1.00  0.00    -0.695 OA 
HETATM   30  O3* UNL     1     -11.897  12.490  63.101  1.00  0.00    -0.697 OA 
HETATM   31  H3* UNL     1     -11.480  12.976  62.399  1.00  0.00     0.000 HD 
BRANCH  25  32
HETATM   32  C5* UNL     1     -11.009  11.099  66.309  1.00  0.00    -0.163 C  
HETATM   33  O5* UNL     1     -11.558  10.822  67.599  1.00  0.00    -0.532 OA 
HETATM   34  H5* UNL     1     -10.963  10.272  68.095  1.00  0.00     0.000 HD 
ENDBRANCH  25  32
ENDBRANCH  21  23
ENDBRANCH   8  11
ENDBRANCH   3   6
TORSDOF 4
ENDMDL
MODEL      150
REMARK 921   NORMALIZED FREE ENERGY PREDICTED BY IDOCK:   -4.88 KCAL/MOL
REMARK 922        TOTAL FREE ENERGY PREDICTED BY IDOCK:   -6.53 KCAL/MOL
REMARK 923 INTER-LIGAND FREE ENERGY PREDICTED BY IDOCK:   -6.16 KCAL/MOL
REMARK 924 INTRA-LIGAND FREE ENERGY PREDICTED BY IDOCK:   -0.37 KCAL/MOL
REMARK 927      BINDING AFFINITY PREDICTED BY RF-SCORE:    0.00 PKD
ROOT
HETATM    1  C   UNL     1      -9.617  18.793  68.170  1.00  0.00    -0.332 C  
HETATM    2  N   UNL     1      -9.675  17.412  67.773  1.00  0.00    -0.262 N  
HETATM    3  C   UNL     1     -10.490  16.506  68.418  1.00  0.00    -0.307 C  
HETATM    4  H   UNL     1      -9.099  17.094  66.995  1.00  0.00     0.000 HD 
HETATM    5  O   UNL     1     -11.213  16.799  69.363  1.00  0.00    -0.182 OA 
ENDROOT
BRANCH   3   6
HETATM    6  C   UNL     1     -10.437  15.154  67.878  1.00  0.00    -0.245 A  
HETATM    7  C   UNL     1      -9.754  14.058  68.364  1.00  0.00    -0.223 A  
HETATM    8  N   UNL     1      -9.978  13.001  67.504  1.00  0.00    -0.209 NA 
HETATM    9  N   UNL     1     -10.799  13.364  66.478  1.00  0.00    -0.281 NA 
HETATM   10  C   UNL     1     -11.074  14.650  66.719  1.00  0.00    -0.335 A  
BRANCH   8  11
HETATM   11  C   UNL     1      -9.365  11.701  67.623  1.00  0.00    -0.178 A  
HETATM   12  N   UNL     1      -9.621  10.968  68.736  1.00  0.00    -0.195 NA 
HETATM   13  C   UNL     1      -9.185   9.702  68.610  1.00  0.00    -0.136 A  
HETATM   14  C   UNL     1      -8.499   9.154  67.540  1.00  0.00    -0.116 A  
HETATM   15  N   UNL     1      -8.250   7.817  67.740  1.00  0.00    -0.124 NA 
HETATM   16  C   UNL     1      -8.198  10.022  66.483  1.00  0.00    -0.119 A  
HETATM   17  N   UNL     1      -7.474   9.636  65.363  1.00  0.00    -0.106 NA 
HETATM   18  N   UNL     1      -8.645  11.293  66.542  1.00  0.00    -0.166 NA 
HETATM   19  C   UNL     1      -8.815   7.542  68.895  1.00  0.00    -0.135 A  
HETATM   20  H1  UNL     1      -7.255  10.268  64.593  1.00  0.00     0.000 HD 
HETATM   21  N   UNL     1      -9.354   8.661  69.485  1.00  0.00    -0.153 NA 
HETATM   22  H2  UNL     1      -7.942   8.823  64.963  1.00  0.00     0.000 HD 
BRANCH  21  23
HETATM   23  C1* UNL     1     -10.009   8.660  70.772  1.00  0.00    -0.197 C  
HETATM   24  O4* UNL     1      -9.800   7.377  71.388  1.00  0.00    -0.184 OA 
HETATM   25  C4* UNL     1     -11.034   6.631  71.352  1.00  0.00    -0.250 C  
HETATM   26  C3* UNL     1     -12.174   7.615  71.048  1.00  0.00    -0.236 C  
HETATM   27  H2* UNL     1     -12.702  10.142  71.818  1.00  0.00     0.000 HD 
HETATM   28  C2* UNL     1     -11.505   8.968  70.789  1.00  0.00    -0.282 C  
HETATM   29  O2* UNL     1     -11.772   9.950  71.807  1.00  0.00    -0.336 OA 
HETATM   30  O3* UNL     1     -13.103   7.705  72.137  1.00  0.00    -0.482 OA 
HETATM   31  H3* UNL     1     -13.807   8.313  71.948  1.00  0.00     0.000 HD 
BRANCH  25  32
HETATM   32  C5* UNL     1     -10.899   5.495  70.327  1.00  0.00    -0.215 C  
HETATM   33  O5* UNL     1      -9.675   4.788  70.539  1.00  0.00    -0.176 OA 
HETATM   34  H5* UNL     1      -9.591   4.085  69.905  1.00  0.00     0.000 HD 
ENDBRANCH  25  32
ENDBRANCH  21  23
ENDBRANCH   8  11
ENDBRANCH   3   6
TORSDOF 4
ENDMDL
MODEL      151
REMARK 921   NORMALIZED FREE ENERGY PREDICTED BY IDOCK:   -4.87 KCAL/MOL
REMARK 922        TOTAL FREE ENERGY PREDICTED BY IDOCK:   -6.53 KCAL/MOL
REMARK 923 INTER-LIGAND FREE ENERGY PREDICTED BY IDOCK:   -5.56 KCAL/MOL
REMARK 924 INTRA-LIGAND FREE ENERGY PREDICTED BY IDOCK:   -0.96 KCAL/MOL
REMARK 927      BINDING AFFINITY PREDICTED BY RF-SCORE:    0.00 PKD
ROOT
HETATM    1  C   UNL     1     -12.985  14.244  72.040  1.00  0.00    -0.355 C  
HETATM    2  N   UNL     1     -12.452  13.362  71.037  1.00  0.00    -0.371 N  
HETATM    3  C   UNL     1     -12.593  11.993  71.125  1.00  0.00    -0.271 C  
HETATM    4  H   UNL     1     -11.955  13.759  70.239  1.00  0.00     0.000 HD 
HETATM    5  O   UNL     1     -13.172  11.431  72.047  1.00  0.00    -0.503 OA 
ENDROOT
BRANCH   3   6
HETATM    6  C   UNL     1     -12.007  11.252  70.017  1.00  0.00    -0.447 A  
HETATM    7  C   UNL     1     -11.622   9.928  69.974  1.00  0.00    -0.175 A  
HETATM    8  N   UNL     1     -11.090   9.679  68.724  1.00  0.00    -0.112 NA 
HETATM    9  N   UNL     1     -11.129  10.793  67.939  1.00  0.00    -0.287 NA 
HETATM   10  C   UNL     1     -11.688  11.723  68.721  1.00  0.00    -0.329 A  
BRANCH   8  11
HETATM   11  C   UNL     1     -10.498   8.428  68.318  1.00  0.00    -0.163 A  
HETATM   12  N   UNL     1      -9.691   8.422  67.226  1.00  0.00    -0.169 NA 
HETATM   13  C   UNL     1      -9.028   7.258  67.103  1.00  0.00    -0.126 A  
HETATM   14  C   UNL     1      -9.143   6.139  67.909  1.00  0.00    -0.117 A  
HETATM   15  N   UNL     1      -8.278   5.147  67.509  1.00  0.00    -0.103 NA 
HETATM   16  C   UNL     1     -10.076   6.214  68.950  1.00  0.00    -0.173 A  
HETATM   17  N   UNL     1     -10.342   5.158  69.812  1.00  0.00    -0.285 NA 
HETATM   18  N   UNL     1     -10.742   7.372  69.140  1.00  0.00    -0.200 NA 
HETATM   19  C   UNL     1      -7.614   5.670  66.502  1.00  0.00    -0.092 A  
HETATM   20  H1  UNL     1     -11.021   5.213  70.571  1.00  0.00     0.000 HD 
HETATM   21  N   UNL     1      -8.063   6.931  66.187  1.00  0.00    -0.110 NA 
HETATM   22  H2  UNL     1      -9.454   4.869  70.221  1.00  0.00     0.000 HD 
BRANCH  21  23
HETATM   23  C1* UNL     1      -7.537   7.729  65.105  1.00  0.00    -0.094 C  
HETATM   24  O4* UNL     1      -6.374   8.430  65.581  1.00  0.00    -0.051 OA 
HETATM   25  C4* UNL     1      -6.702   9.825  65.747  1.00  0.00    -0.093 C  
HETATM   26  C3* UNL     1      -8.007  10.099  64.986  1.00  0.00    -0.146 C  
HETATM   27  H2* UNL     1      -9.003   9.242  62.634  1.00  0.00     0.000 HD 
HETATM   28  C2* UNL     1      -8.485   8.741  64.464  1.00  0.00    -0.140 C  
HETATM   29  O2* UNL     1      -8.413   8.613  63.033  1.00  0.00    -0.182 OA 
HETATM   30  O3* UNL     1      -7.809  11.020  63.904  1.00  0.00    -0.290 OA 
HETATM   31  H3* UNL     1      -8.617  11.189  63.434  1.00  0.00     0.000 HD 
BRANCH  25  32
HETATM   32  C5* UNL     1      -6.774  10.145  67.247  1.00  0.00    -0.073 C  
HETATM   33  O5* UNL     1      -8.076  10.631  67.582  1.00  0.00    -0.106 OA 
HETATM   34  H5* UNL     1      -8.121  10.828  68.510  1.00  0.00     0.000 HD 
ENDBRANCH  25  32
ENDBRANCH  21  23
ENDBRANCH   8  11
ENDBRANCH   3   6
TORSDOF 4
ENDMDL
MODEL      152
REMARK 921   NORMALIZED FREE ENERGY PREDICTED BY IDOCK:   -4.87 KCAL/MOL
REMARK 922        TOTAL FREE ENERGY PREDICTED BY IDOCK:   -6.52 KCAL/MOL
REMARK 923 INTER-LIGAND FREE ENERGY PREDICTED BY IDOCK:   -6.25 KCAL/MOL
REMARK 924 INTRA-LIGAND FREE ENERGY PREDICTED BY IDOCK:   -0.26 KCAL/MOL
REMARK 927      BINDING AFFINITY PREDICTED BY RF-SCORE:    0.00 PKD
ROOT
HETATM    1  C   UNL     1      -8.002   6.818  71.830  1.00  0.00    -0.101 C  
HETATM    2  N   UNL     1      -7.944   7.984  70.989  1.00  0.00    -0.088 N  
HETATM    3  C   UNL     1      -8.370   7.955  69.678  1.00  0.00    -0.131 C  
HETATM    4  H   UNL     1      -7.578   8.855  71.373  1.00  0.00     0.000 HD 
HETATM    5  O   UNL     1      -8.821   6.953  69.136  1.00  0.00    -0.134 OA 
ENDROOT
BRANCH   3   6
HETATM    6  C   UNL     1      -8.255   9.226  68.977  1.00  0.00    -0.111 A  
HETATM    7  C   UNL     1      -9.258  10.096  68.603  1.00  0.00    -0.157 A  
HETATM    8  N   UNL     1      -8.676  11.156  67.935  1.00  0.00    -0.132 NA 
HETATM    9  N   UNL     1      -7.321  11.016  67.873  1.00  0.00    -0.090 NA 
HETATM   10  C   UNL     1      -7.083   9.864  68.508  1.00  0.00    -0.071 A  
BRANCH   8  11
HETATM   11  C   UNL     1      -9.403  12.234  67.312  1.00  0.00    -0.185 A  
HETATM   12  N   UNL     1      -9.330  13.468  67.872  1.00  0.00    -0.206 NA 
HETATM   13  C   UNL     1      -9.854  14.412  67.068  1.00  0.00    -0.252 A  
HETATM   14  C   UNL     1     -10.462  14.223  65.840  1.00  0.00    -0.307 A  
HETATM   15  N   UNL     1     -10.841  15.422  65.282  1.00  0.00    -0.384 NA 
HETATM   16  C   UNL     1     -10.575  12.899  65.397  1.00  0.00    -0.289 A  
HETATM   17  N   UNL     1     -11.203  12.543  64.211  1.00  0.00    -0.330 NA 
HETATM   18  N   UNL     1     -10.034  11.918  66.148  1.00  0.00    -0.222 NA 
HETATM   19  C   UNL     1     -10.428  16.331  66.137  1.00  0.00    -0.322 A  
HETATM   20  H1  UNL     1     -11.285  11.579  63.889  1.00  0.00     0.000 HD 
HETATM   21  N   UNL     1      -9.866  15.769  67.259  1.00  0.00    -0.228 NA 
HETATM   22  H2  UNL     1     -10.764  13.077  63.462  1.00  0.00     0.000 HD 
BRANCH  21  23
HETATM   23  C1* UNL     1      -9.356  16.529  68.375  1.00  0.00    -0.221 C  
HETATM   24  O4* UNL     1      -9.995  17.817  68.379  1.00  0.00    -0.320 OA 
HETATM   25  C4* UNL     1      -9.046  18.814  67.949  1.00  0.00    -0.291 C  
HETATM   26  C3* UNL     1      -7.640  18.202  68.042  1.00  0.00    -0.242 C  
HETATM   27  H2* UNL     1      -6.443  16.559  69.809  1.00  0.00     0.000 HD 
HETATM   28  C2* UNL     1      -7.844  16.737  68.440  1.00  0.00    -0.214 C  
HETATM   29  O2* UNL     1      -7.383  16.429  69.768  1.00  0.00    -0.026 OA 
HETATM   30  O3* UNL     1      -6.826  18.884  69.005  1.00  0.00    -0.289 OA 
HETATM   31  H3* UNL     1      -5.957  18.505  69.062  1.00  0.00     0.000 HD 
BRANCH  25  32
HETATM   32  C5* UNL     1      -9.428  19.291  66.540  1.00  0.00    -0.357 C  
HETATM   33  O5* UNL     1      -9.029  20.652  66.359  1.00  0.00    -0.554 OA 
HETATM   34  H5* UNL     1      -9.265  20.948  65.488  1.00  0.00     0.000 HD 
ENDBRANCH  25  32
ENDBRANCH  21  23
ENDBRANCH   8  11
ENDBRANCH   3   6
TORSDOF 4
ENDMDL
MODEL      153
REMARK 921   NORMALIZED FREE ENERGY PREDICTED BY IDOCK:   -4.85 KCAL/MOL
REMARK 922        TOTAL FREE ENERGY PREDICTED BY IDOCK:   -6.50 KCAL/MOL
REMARK 923 INTER-LIGAND FREE ENERGY PREDICTED BY IDOCK:   -6.01 KCAL/MOL
REMARK 924 INTRA-LIGAND FREE ENERGY PREDICTED BY IDOCK:   -0.50 KCAL/MOL
REMARK 927      BINDING AFFINITY PREDICTED BY RF-SCORE:    0.00 PKD
ROOT
HETATM    1  C   UNL     1     -10.292   4.661  66.040  1.00  0.00    -0.284 C  
HETATM    2  N   UNL     1      -9.704   5.967  66.175  1.00  0.00    -0.328 N  
HETATM    3  C   UNL     1      -9.017   6.339  67.311  1.00  0.00    -0.113 C  
HETATM    4  H   UNL     1      -9.797   6.635  65.410  1.00  0.00     0.000 HD 
HETATM    5  O   UNL     1      -8.858   5.603  68.278  1.00  0.00    -0.109 OA 
ENDROOT
BRANCH   3   6
HETATM    6  C   UNL     1      -8.474   7.690  67.274  1.00  0.00    -0.121 A  
HETATM    7  C   UNL     1      -9.095   8.878  67.600  1.00  0.00    -0.134 A  
HETATM    8  N   UNL     1      -8.197   9.904  67.379  1.00  0.00    -0.117 NA 
HETATM    9  N   UNL     1      -7.000   9.425  66.935  1.00  0.00    -0.081 NA 
HETATM   10  C   UNL     1      -7.176   8.101  66.886  1.00  0.00    -0.083 A  
BRANCH   8  11
HETATM   11  C   UNL     1      -8.500  11.306  67.523  1.00  0.00    -0.131 A  
HETATM   12  N   UNL     1      -9.716  11.655  68.015  1.00  0.00    -0.177 NA 
HETATM   13  C   UNL     1      -9.775  12.965  68.314  1.00  0.00    -0.217 A  
HETATM   14  C   UNL     1      -8.788  13.914  68.120  1.00  0.00    -0.184 A  
HETATM   15  N   UNL     1      -9.184  15.147  68.585  1.00  0.00    -0.188 NA 
HETATM   16  C   UNL     1      -7.606  13.469  67.515  1.00  0.00    -0.167 A  
HETATM   17  N   UNL     1      -6.543  14.310  67.209  1.00  0.00    -0.394 NA 
HETATM   18  N   UNL     1      -7.480  12.158  67.228  1.00  0.00    -0.151 NA 
HETATM   19  C   UNL     1     -10.378  14.942  69.096  1.00  0.00    -0.245 A  
HETATM   20  H1  UNL     1      -5.683  13.986  66.769  1.00  0.00     0.000 HD 
HETATM   21  N   UNL     1     -10.801  13.646  68.915  1.00  0.00    -0.248 NA 
HETATM   22  H2  UNL     1      -6.281  14.794  68.067  1.00  0.00     0.000 HD 
BRANCH  21  23
HETATM   23  C1* UNL     1     -12.085  13.148  69.348  1.00  0.00    -0.231 C  
HETATM   24  O4* UNL     1     -12.769  14.201  70.050  1.00  0.00    -0.292 OA 
HETATM   25  C4* UNL     1     -12.770  13.901  71.461  1.00  0.00    -0.357 C  
HETATM   26  C3* UNL     1     -12.414  12.416  71.630  1.00  0.00     0.074 C  
HETATM   27  H2* UNL     1     -13.049  10.185  70.261  1.00  0.00     0.000 HD 
HETATM   28  C2* UNL     1     -12.085  11.899  70.227  1.00  0.00    -0.325 C  
HETATM   29  O2* UNL     1     -13.049  10.962  69.714  1.00  0.00    -0.057 OA 
HETATM   30  O3* UNL     1     -13.496  11.672  72.207  1.00  0.00    -0.610 OA 
HETATM   31  H3* UNL     1     -13.275  10.754  72.312  1.00  0.00     0.000 HD 
BRANCH  25  32
HETATM   32  C5* UNL     1     -11.808  14.860  72.176  1.00  0.00    -0.310 C  
HETATM   33  O5* UNL     1     -12.206  15.028  73.539  1.00  0.00    -0.428 OA 
HETATM   34  H5* UNL     1     -11.611  15.622  73.981  1.00  0.00     0.000 HD 
ENDBRANCH  25  32
ENDBRANCH  21  23
ENDBRANCH   8  11
ENDBRANCH   3   6
TORSDOF 4
ENDMDL
MODEL      154
REMARK 921   NORMALIZED FREE ENERGY PREDICTED BY IDOCK:   -4.81 KCAL/MOL
REMARK 922        TOTAL FREE ENERGY PREDICTED BY IDOCK:   -6.45 KCAL/MOL
REMARK 923 INTER-LIGAND FREE ENERGY PREDICTED BY IDOCK:   -5.70 KCAL/MOL
REMARK 924 INTRA-LIGAND FREE ENERGY PREDICTED BY IDOCK:   -0.75 KCAL/MOL
REMARK 927      BINDING AFFINITY PREDICTED BY RF-SCORE:    0.00 PKD
ROOT
HETATM    1  C   UNL     1     -10.442   3.478  73.635  1.00  0.00    -0.179 C  
HETATM    2  N   UNL     1     -10.579   4.428  72.564  1.00  0.00    -0.167 N  
HETATM    3  C   UNL     1     -10.007   4.215  71.328  1.00  0.00    -0.146 C  
HETATM    4  H   UNL     1     -11.113   5.282  72.723  1.00  0.00     0.000 HD 
HETATM    5  O   UNL     1      -9.349   3.220  71.049  1.00  0.00    -0.117 OA 
ENDROOT
BRANCH   3   6
HETATM    6  C   UNL     1     -10.258   5.270  70.356  1.00  0.00    -0.338 A  
HETATM    7  C   UNL     1      -9.637   5.489  69.143  1.00  0.00    -0.143 A  
HETATM    8  N   UNL     1     -10.186   6.626  68.583  1.00  0.00    -0.161 NA 
HETATM    9  N   UNL     1     -11.158   7.151  69.382  1.00  0.00    -0.161 NA 
HETATM   10  C   UNL     1     -11.198   6.325  70.432  1.00  0.00    -0.373 A  
BRANCH   8  11
HETATM   11  C   UNL     1      -9.741   7.232  67.352  1.00  0.00    -0.150 A  
HETATM   12  N   UNL     1      -9.990   8.552  67.157  1.00  0.00    -0.213 NA 
HETATM   13  C   UNL     1      -9.323   9.033  66.092  1.00  0.00    -0.232 A  
HETATM   14  C   UNL     1      -8.515   8.325  65.220  1.00  0.00    -0.162 A  
HETATM   15  N   UNL     1      -7.962   9.153  64.271  1.00  0.00    -0.130 NA 
HETATM   16  C   UNL     1      -8.403   6.949  65.452  1.00  0.00    -0.119 A  
HETATM   17  N   UNL     1      -7.671   6.095  64.637  1.00  0.00    -0.094 NA 
HETATM   18  N   UNL     1      -9.022   6.421  66.528  1.00  0.00    -0.141 NA 
HETATM   19  C   UNL     1      -8.390  10.355  64.588  1.00  0.00    -0.155 A  
HETATM   20  H1  UNL     1      -7.589   5.093  64.806  1.00  0.00     0.000 HD 
HETATM   21  N   UNL     1      -9.256  10.330  65.655  1.00  0.00    -0.172 NA 
HETATM   22  H2  UNL     1      -6.725   6.471  64.576  1.00  0.00     0.000 HD 
BRANCH  21  23
HETATM   23  C1* UNL     1      -9.904  11.501  66.199  1.00  0.00    -0.221 C  
HETATM   24  O4* UNL     1      -8.889  12.398  66.683  1.00  0.00    -0.208 OA 
HETATM   25  C4* UNL     1      -8.893  12.377  68.125  1.00  0.00    -0.191 C  
HETATM   26  C3* UNL     1     -10.211  11.738  68.586  1.00  0.00    -0.201 C  
HETATM   27  H2* UNL     1     -12.754  11.880  67.706  1.00  0.00     0.000 HD 
HETATM   28  C2* UNL     1     -10.924  11.275  67.312  1.00  0.00    -0.286 C  
HETATM   29  O2* UNL     1     -12.119  12.020  67.014  1.00  0.00    -0.603 OA 
HETATM   30  O3* UNL     1     -11.025  12.665  69.318  1.00  0.00    -0.401 OA 
HETATM   31  H3* UNL     1     -11.840  12.269  69.603  1.00  0.00     0.000 HD 
BRANCH  25  32
HETATM   32  C5* UNL     1      -7.637  11.644  68.617  1.00  0.00    -0.133 C  
HETATM   33  O5* UNL     1      -7.917  10.252  68.786  1.00  0.00    -0.099 OA 
HETATM   34  H5* UNL     1      -7.140   9.799  69.090  1.00  0.00     0.000 HD 
ENDBRANCH  25  32
ENDBRANCH  21  23
ENDBRANCH   8  11
ENDBRANCH   3   6
TORSDOF 4
ENDMDL
MODEL      155
REMARK 921   NORMALIZED FREE ENERGY PREDICTED BY IDOCK:   -4.80 KCAL/MOL
REMARK 922        TOTAL FREE ENERGY PREDICTED BY IDOCK:   -6.44 KCAL/MOL
REMARK 923 INTER-LIGAND FREE ENERGY PREDICTED BY IDOCK:   -5.85 KCAL/MOL
REMARK 924 INTRA-LIGAND FREE ENERGY PREDICTED BY IDOCK:   -0.58 KCAL/MOL
REMARK 927      BINDING AFFINITY PREDICTED BY RF-SCORE:    0.00 PKD
ROOT
HETATM    1  C   UNL     1     -10.875  19.436  65.997  1.00  0.00    -0.309 C  
HETATM    2  N   UNL     1     -10.535  18.090  66.376  1.00  0.00    -0.367 N  
HETATM    3  C   UNL     1     -10.674  17.034  65.501  1.00  0.00    -0.138 C  
HETATM    4  H   UNL     1     -10.183  17.913  67.316  1.00  0.00     0.000 HD 
HETATM    5  O   UNL     1     -11.090  17.154  64.355  1.00  0.00    -1.100 OA 
ENDROOT
BRANCH   3   6
HETATM    6  C   UNL     1     -10.270  15.743  66.043  1.00  0.00    -0.352 A  
HETATM    7  C   UNL     1      -9.345  15.475  67.031  1.00  0.00    -0.224 A  
HETATM    8  N   UNL     1      -9.275  14.105  67.188  1.00  0.00    -0.221 NA 
HETATM    9  N   UNL     1     -10.136  13.466  66.346  1.00  0.00    -0.285 NA 
HETATM   10  C   UNL     1     -10.732  14.457  65.675  1.00  0.00    -0.320 A  
BRANCH   8  11
HETATM   11  C   UNL     1      -8.357  13.425  68.068  1.00  0.00    -0.165 A  
HETATM   12  N   UNL     1      -8.342  12.068  68.061  1.00  0.00    -0.153 NA 
HETATM   13  C   UNL     1      -7.292  11.577  68.743  1.00  0.00    -0.115 A  
HETATM   14  C   UNL     1      -6.337  12.295  69.442  1.00  0.00    -0.118 A  
HETATM   15  N   UNL     1      -5.385  11.462  69.982  1.00  0.00    -0.067 NA 
HETATM   16  C   UNL     1      -6.499  13.685  69.469  1.00  0.00    -0.099 A  
HETATM   17  N   UNL     1      -5.655  14.537  70.169  1.00  0.00    -0.110 NA 
HETATM   18  N   UNL     1      -7.516  14.232  68.771  1.00  0.00    -0.126 NA 
HETATM   19  C   UNL     1      -5.729  10.258  69.580  1.00  0.00    -0.038 A  
HETATM   20  H1  UNL     1      -5.773  15.550  70.189  1.00  0.00     0.000 HD 
HETATM   21  N   UNL     1      -6.904  10.269  68.865  1.00  0.00    -0.057 NA 
HETATM   22  H2  UNL     1      -4.704  14.349  69.853  1.00  0.00     0.000 HD 
BRANCH  21  23
HETATM   23  C1* UNL     1      -7.533   9.086  68.328  1.00  0.00    -0.083 C  
HETATM   24  O4* UNL     1      -6.986   8.832  67.022  1.00  0.00    -0.073 OA 
HETATM   25  C4* UNL     1      -7.974   9.167  66.025  1.00  0.00    -0.103 C  
HETATM   26  C3* UNL     1      -9.336   9.274  66.726  1.00  0.00    -0.156 C  
HETATM   27  H2* UNL     1     -10.525   7.880  68.701  1.00  0.00     0.000 HD 
HETATM   28  C2* UNL     1      -9.057   9.098  68.221  1.00  0.00    -0.132 C  
HETATM   29  O2* UNL     1      -9.577   7.873  68.768  1.00  0.00    -0.150 OA 
HETATM   30  O3* UNL     1     -10.254   8.276  66.258  1.00  0.00    -0.460 OA 
HETATM   31  H3* UNL     1     -11.097   8.343  66.691  1.00  0.00     0.000 HD 
BRANCH  25  32
HETATM   32  C5* UNL     1      -7.539  10.451  65.304  1.00  0.00    -0.118 C  
HETATM   33  O5* UNL     1      -6.305  10.925  65.849  1.00  0.00    -0.217 OA 
HETATM   34  H5* UNL     1      -6.036  11.719  65.403  1.00  0.00     0.000 HD 
ENDBRANCH  25  32
ENDBRANCH  21  23
ENDBRANCH   8  11
ENDBRANCH   3   6
TORSDOF 4
ENDMDL
MODEL      156
REMARK 921   NORMALIZED FREE ENERGY PREDICTED BY IDOCK:   -4.79 KCAL/MOL
REMARK 922        TOTAL FREE ENERGY PREDICTED BY IDOCK:   -6.43 KCAL/MOL
REMARK 923 INTER-LIGAND FREE ENERGY PREDICTED BY IDOCK:   -6.17 KCAL/MOL
REMARK 924 INTRA-LIGAND FREE ENERGY PREDICTED BY IDOCK:   -0.26 KCAL/MOL
REMARK 927      BINDING AFFINITY PREDICTED BY RF-SCORE:    0.00 PKD
ROOT
HETATM    1  C   UNL     1     -10.435  19.088  67.362  1.00  0.00    -0.457 C  
HETATM    2  N   UNL     1     -10.609  17.666  67.233  1.00  0.00    -0.330 N  
HETATM    3  C   UNL     1     -10.774  16.854  68.334  1.00  0.00    -0.368 C  
HETATM    4  H   UNL     1     -10.610  17.248  66.303  1.00  0.00     0.000 HD 
HETATM    5  O   UNL     1     -10.784  17.270  69.487  1.00  0.00    -0.214 OA 
ENDROOT
BRANCH   3   6
HETATM    6  C   UNL     1     -10.952  15.442  68.023  1.00  0.00    -0.307 A  
HETATM    7  C   UNL     1     -10.022  14.541  67.546  1.00  0.00    -0.224 A  
HETATM    8  N   UNL     1     -10.656  13.326  67.373  1.00  0.00    -0.245 NA 
HETATM    9  N   UNL     1     -11.968  13.397  67.736  1.00  0.00    -0.347 NA 
HETATM   10  C   UNL     1     -12.129  14.664  68.132  1.00  0.00    -0.164 A  
BRANCH   8  11
HETATM   11  C   UNL     1     -10.039  12.152  66.808  1.00  0.00    -0.200 A  
HETATM   12  N   UNL     1      -9.818  11.087  67.620  1.00  0.00    -0.171 NA 
HETATM   13  C   UNL     1      -9.462   9.993  66.923  1.00  0.00    -0.166 A  
HETATM   14  C   UNL     1      -9.266   9.898  65.556  1.00  0.00    -0.203 A  
HETATM   15  N   UNL     1      -8.949   8.612  65.187  1.00  0.00    -0.120 NA 
HETATM   16  C   UNL     1      -9.424  11.079  64.820  1.00  0.00    -0.230 A  
HETATM   17  N   UNL     1      -9.213  11.157  63.450  1.00  0.00    -0.376 NA 
HETATM   18  N   UNL     1      -9.816  12.196  65.466  1.00  0.00    -0.240 NA 
HETATM   19  C   UNL     1      -8.996   7.923  66.306  1.00  0.00    -0.171 A  
HETATM   20  H1  UNL     1      -9.329  12.017  62.914  1.00  0.00     0.000 HD 
HETATM   21  N   UNL     1      -9.257   8.723  67.394  1.00  0.00    -0.135 NA 
HETATM   22  H2  UNL     1      -9.798  10.446  63.011  1.00  0.00     0.000 HD 
BRANCH  21  23
HETATM   23  C1* UNL     1      -9.334   8.240  68.752  1.00  0.00    -0.143 C  
HETATM   24  O4* UNL     1      -8.155   7.463  69.027  1.00  0.00    -0.123 OA 
HETATM   25  C4* UNL     1      -8.512   6.066  69.070  1.00  0.00    -0.117 C  
HETATM   26  C3* UNL     1     -10.038   5.971  69.211  1.00  0.00    -0.185 C  
HETATM   27  H2* UNL     1     -11.869   7.384  70.592  1.00  0.00     0.000 HD 
HETATM   28  C2* UNL     1     -10.560   7.408  69.124  1.00  0.00    -0.204 C  
HETATM   29  O2* UNL     1     -11.107   7.901  70.360  1.00  0.00    -0.254 OA 
HETATM   30  O3* UNL     1     -10.421   5.364  70.452  1.00  0.00    -0.266 OA 
HETATM   31  H3* UNL     1     -11.365   5.304  70.538  1.00  0.00     0.000 HD 
BRANCH  25  32
HETATM   32  C5* UNL     1      -7.954   5.370  67.820  1.00  0.00    -0.100 C  
HETATM   33  O5* UNL     1      -8.994   4.645  67.159  1.00  0.00    -0.110 OA 
HETATM   34  H5* UNL     1      -8.649   4.215  66.385  1.00  0.00     0.000 HD 
ENDBRANCH  25  32
ENDBRANCH  21  23
ENDBRANCH   8  11
ENDBRANCH   3   6
TORSDOF 4
ENDMDL
MODEL      157
REMARK 921   NORMALIZED FREE ENERGY PREDICTED BY IDOCK:   -4.77 KCAL/MOL
REMARK 922        TOTAL FREE ENERGY PREDICTED BY IDOCK:   -6.40 KCAL/MOL
REMARK 923 INTER-LIGAND FREE ENERGY PREDICTED BY IDOCK:   -5.58 KCAL/MOL
REMARK 924 INTRA-LIGAND FREE ENERGY PREDICTED BY IDOCK:   -0.82 KCAL/MOL
REMARK 927      BINDING AFFINITY PREDICTED BY RF-SCORE:    0.00 PKD
ROOT
HETATM    1  C   UNL     1      -9.167   6.157  67.709  1.00  0.00    -0.111 C  
HETATM    2  N   UNL     1      -8.693   7.484  67.424  1.00  0.00    -0.124 N  
HETATM    3  C   UNL     1      -7.954   8.202  68.340  1.00  0.00    -0.123 C  
HETATM    4  H   UNL     1      -8.910   7.906  66.521  1.00  0.00     0.000 HD 
HETATM    5  O   UNL     1      -7.649   7.775  69.447  1.00  0.00    -0.095 OA 
ENDROOT
BRANCH   3   6
HETATM    6  C   UNL     1      -7.542   9.522  67.883  1.00  0.00    -0.087 A  
HETATM    7  C   UNL     1      -7.721  10.743  68.502  1.00  0.00    -0.118 A  
HETATM    8  N   UNL     1      -7.193  11.719  67.680  1.00  0.00    -0.102 NA 
HETATM    9  N   UNL     1      -6.658  11.177  66.549  1.00  0.00    -0.131 NA 
HETATM   10  C   UNL     1      -6.865   9.863  66.688  1.00  0.00    -0.084 A  
BRANCH   8  11
HETATM   11  C   UNL     1      -7.262  13.136  67.938  1.00  0.00    -0.133 A  
HETATM   12  N   UNL     1      -8.305  13.835  67.422  1.00  0.00    -0.185 NA 
HETATM   13  C   UNL     1      -8.372  15.078  67.930  1.00  0.00    -0.148 A  
HETATM   14  C   UNL     1      -7.495  15.667  68.823  1.00  0.00    -0.151 A  
HETATM   15  N   UNL     1      -7.902  16.938  69.157  1.00  0.00    -0.177 NA 
HETATM   16  C   UNL     1      -6.396  14.894  69.220  1.00  0.00    -0.115 A  
HETATM   17  N   UNL     1      -5.403  15.360  70.071  1.00  0.00    -0.113 NA 
HETATM   18  N   UNL     1      -6.301  13.627  68.768  1.00  0.00    -0.086 NA 
HETATM   19  C   UNL     1      -9.034  17.104  68.510  1.00  0.00    -0.265 A  
HETATM   20  H1  UNL     1      -4.604  14.797  70.359  1.00  0.00     0.000 HD 
HETATM   21  N   UNL     1      -9.340  16.025  67.716  1.00  0.00    -0.210 NA 
HETATM   22  H2  UNL     1      -5.862  15.693  70.919  1.00  0.00     0.000 HD 
BRANCH  21  23
HETATM   23  C1* UNL     1     -10.508  15.947  66.872  1.00  0.00    -0.309 C  
HETATM   24  O4* UNL     1     -11.625  15.531  67.678  1.00  0.00    -0.274 OA 
HETATM   25  C4* UNL     1     -11.953  14.164  67.356  1.00  0.00    -0.404 C  
HETATM   26  C3* UNL     1     -11.272  13.813  66.025  1.00  0.00    -0.304 C  
HETATM   27  H2* UNL     1     -10.853  15.172  63.737  1.00  0.00     0.000 HD 
HETATM   28  C2* UNL     1     -10.423  15.032  65.652  1.00  0.00    -0.350 C  
HETATM   29  O2* UNL     1     -10.906  15.741  64.496  1.00  0.00    -0.467 OA 
HETATM   30  O3* UNL     1     -12.230  13.525  64.997  1.00  0.00    -0.377 OA 
HETATM   31  H3* UNL     1     -11.809  13.308  64.174  1.00  0.00     0.000 HD 
BRANCH  25  32
HETATM   32  C5* UNL     1     -11.537  13.263  68.528  1.00  0.00    -0.333 C  
HETATM   33  O5* UNL     1     -10.843  12.113  68.039  1.00  0.00    -0.206 OA 
HETATM   34  H5* UNL     1     -10.585  11.556  68.763  1.00  0.00     0.000 HD 
ENDBRANCH  25  32
ENDBRANCH  21  23
ENDBRANCH   8  11
ENDBRANCH   3   6
TORSDOF 4
ENDMDL
MODEL      158
REMARK 921   NORMALIZED FREE ENERGY PREDICTED BY IDOCK:   -4.75 KCAL/MOL
REMARK 922        TOTAL FREE ENERGY PREDICTED BY IDOCK:   -6.37 KCAL/MOL
REMARK 923 INTER-LIGAND FREE ENERGY PREDICTED BY IDOCK:   -5.75 KCAL/MOL
REMARK 924 INTRA-LIGAND FREE ENERGY PREDICTED BY IDOCK:   -0.63 KCAL/MOL
REMARK 927      BINDING AFFINITY PREDICTED BY RF-SCORE:    0.00 PKD
ROOT
HETATM    1  C   UNL     1     -10.512  17.541  66.224  1.00  0.00    -0.283 C  
HETATM    2  N   UNL     1     -10.335  16.161  66.591  1.00  0.00    -0.291 N  
HETATM    3  C   UNL     1     -10.786  15.134  65.790  1.00  0.00    -0.351 C  
HETATM    4  H   UNL     1      -9.865  15.937  67.468  1.00  0.00     0.000 HD 
HETATM    5  O   UNL     1     -11.362  15.311  64.723  1.00  0.00    -0.409 OA 
ENDROOT
BRANCH   3   6
HETATM    6  C   UNL     1     -10.511  13.800  66.305  1.00  0.00    -0.291 A  
HETATM    7  C   UNL     1      -9.612  13.422  67.281  1.00  0.00    -0.234 A  
HETATM    8  N   UNL     1      -9.679  12.049  67.413  1.00  0.00    -0.181 NA 
HETATM    9  N   UNL     1     -10.604  11.515  66.566  1.00  0.00    -0.248 NA 
HETATM   10  C   UNL     1     -11.100  12.573  65.917  1.00  0.00    -0.299 A  
BRANCH   8  11
HETATM   11  C   UNL     1      -8.829  11.264  68.275  1.00  0.00    -0.158 A  
HETATM   12  N   UNL     1      -9.084   9.937  68.395  1.00  0.00    -0.123 NA 
HETATM   13  C   UNL     1      -8.088   9.294  69.031  1.00  0.00    -0.106 A  
HETATM   14  C   UNL     1      -6.945   9.851  69.577  1.00  0.00    -0.070 A  
HETATM   15  N   UNL     1      -6.127   8.884  70.113  1.00  0.00    -0.036 NA 
HETATM   16  C   UNL     1      -6.825  11.243  69.485  1.00  0.00    -0.115 A  
HETATM   17  N   UNL     1      -5.763  11.954  70.028  1.00  0.00    -0.122 NA 
HETATM   18  N   UNL     1      -7.779  11.932  68.825  1.00  0.00    -0.109 NA 
HETATM   19  C   UNL     1      -6.740   7.750  69.857  1.00  0.00    -0.042 A  
HETATM   20  H1  UNL     1      -5.676  12.968  69.961  1.00  0.00     0.000 HD 
HETATM   21  N   UNL     1      -7.956   7.947  69.245  1.00  0.00    -0.115 NA 
HETATM   22  H2  UNL     1      -4.905  11.551  69.653  1.00  0.00     0.000 HD 
BRANCH  21  23
HETATM   23  C1* UNL     1      -8.858   6.881  68.877  1.00  0.00    -0.129 C  
HETATM   24  O4* UNL     1      -8.339   6.231  67.703  1.00  0.00    -0.116 OA 
HETATM   25  C4* UNL     1      -9.151   6.596  66.568  1.00  0.00    -0.149 C  
HETATM   26  C3* UNL     1     -10.465   7.192  67.096  1.00  0.00    -0.319 C  
HETATM   27  H2* UNL     1     -12.078   6.589  69.167  1.00  0.00     0.000 HD 
HETATM   28  C2* UNL     1     -10.314   7.263  68.618  1.00  0.00    -0.193 C  
HETATM   29  O2* UNL     1     -11.173   6.352  69.328  1.00  0.00    -0.357 OA 
HETATM   30  O3* UNL     1     -11.597   6.390  66.733  1.00  0.00    -0.700 OA 
HETATM   31  H3* UNL     1     -12.409   6.759  67.059  1.00  0.00     0.000 HD 
BRANCH  25  32
HETATM   32  C5* UNL     1      -8.351   7.548  65.667  1.00  0.00    -0.140 C  
HETATM   33  O5* UNL     1      -7.094   7.855  66.275  1.00  0.00    -0.062 OA 
HETATM   34  H5* UNL     1      -6.598   8.444  65.718  1.00  0.00     0.000 HD 
ENDBRANCH  25  32
ENDBRANCH  21  23
ENDBRANCH   8  11
ENDBRANCH   3   6
TORSDOF 4
ENDMDL
MODEL      159
REMARK 921   NORMALIZED FREE ENERGY PREDICTED BY IDOCK:   -4.75 KCAL/MOL
REMARK 922        TOTAL FREE ENERGY PREDICTED BY IDOCK:   -6.37 KCAL/MOL
REMARK 923 INTER-LIGAND FREE ENERGY PREDICTED BY IDOCK:   -6.05 KCAL/MOL
REMARK 924 INTRA-LIGAND FREE ENERGY PREDICTED BY IDOCK:   -0.32 KCAL/MOL
REMARK 927      BINDING AFFINITY PREDICTED BY RF-SCORE:    0.00 PKD
ROOT
HETATM    1  C   UNL     1      -9.530   4.155  71.943  1.00  0.00    -0.140 C  
HETATM    2  N   UNL     1      -9.671   5.161  70.925  1.00  0.00    -0.177 N  
HETATM    3  C   UNL     1      -9.254   4.945  69.629  1.00  0.00    -0.118 C  
HETATM    4  H   UNL     1     -10.091   6.058  71.168  1.00  0.00     0.000 HD 
HETATM    5  O   UNL     1      -8.738   3.901  69.249  1.00  0.00    -0.075 OA 
ENDROOT
BRANCH   3   6
HETATM    6  C   UNL     1      -9.486   6.063  68.725  1.00  0.00    -0.137 A  
HETATM    7  C   UNL     1      -9.129   7.386  68.882  1.00  0.00    -0.136 A  
HETATM    8  N   UNL     1      -9.586   8.085  67.781  1.00  0.00    -0.148 NA 
HETATM    9  N   UNL     1     -10.218   7.258  66.899  1.00  0.00    -0.261 NA 
HETATM   10  C   UNL     1     -10.142   6.052  67.471  1.00  0.00    -0.159 A  
BRANCH   8  11
HETATM   11  C   UNL     1      -9.483   9.513  67.614  1.00  0.00    -0.131 A  
HETATM   12  N   UNL     1     -10.475  10.293  68.114  1.00  0.00    -0.177 NA 
HETATM   13  C   UNL     1     -10.140  11.596  68.098  1.00  0.00    -0.196 A  
HETATM   14  C   UNL     1      -8.979  12.156  67.598  1.00  0.00    -0.178 A  
HETATM   15  N   UNL     1      -8.960  13.518  67.790  1.00  0.00    -0.190 NA 
HETATM   16  C   UNL     1      -8.062  11.274  67.014  1.00  0.00    -0.149 A  
HETATM   17  N   UNL     1      -6.875  11.688  66.424  1.00  0.00    -0.371 NA 
HETATM   18  N   UNL     1      -8.332   9.952  67.036  1.00  0.00    -0.120 NA 
HETATM   19  C   UNL     1     -10.074  13.778  68.438  1.00  0.00    -0.241 A  
HETATM   20  H1  UNL     1      -6.207  11.045  65.999  1.00  0.00     0.000 HD 
HETATM   21  N   UNL     1     -10.847  12.654  68.608  1.00  0.00    -0.244 NA 
HETATM   22  H2  UNL     1      -6.367  12.238  67.116  1.00  0.00     0.000 HD 
BRANCH  21  23
HETATM   23  C1* UNL     1     -12.136  12.650  69.258  1.00  0.00    -0.166 C  
HETATM   24  O4* UNL     1     -12.659  13.989  69.239  1.00  0.00    -0.151 OA 
HETATM   25  C4* UNL     1     -12.582  14.543  70.569  1.00  0.00    -0.351 C  
HETATM   26  C3* UNL     1     -12.357  13.385  71.552  1.00  0.00    -0.038 C  
HETATM   27  H2* UNL     1     -13.307  10.869  71.708  1.00  0.00     0.000 HD 
HETATM   28  C2* UNL     1     -12.188  12.129  70.693  1.00  0.00    -0.300 C  
HETATM   29  O2* UNL     1     -13.274  11.193  70.815  1.00  0.00    -0.102 OA 
HETATM   30  O3* UNL     1     -13.458  13.237  72.460  1.00  0.00    -0.573 OA 
HETATM   31  H3* UNL     1     -13.319  12.521  73.068  1.00  0.00     0.000 HD 
BRANCH  25  32
HETATM   32  C5* UNL     1     -11.479  15.612  70.600  1.00  0.00    -0.375 C  
HETATM   33  O5* UNL     1     -11.697  16.509  71.692  1.00  0.00    -0.649 OA 
HETATM   34  H5* UNL     1     -11.015  17.170  71.711  1.00  0.00     0.000 HD 
ENDBRANCH  25  32
ENDBRANCH  21  23
ENDBRANCH   8  11
ENDBRANCH   3   6
TORSDOF 4
ENDMDL
MODEL      160
REMARK 921   NORMALIZED FREE ENERGY PREDICTED BY IDOCK:   -4.74 KCAL/MOL
REMARK 922        TOTAL FREE ENERGY PREDICTED BY IDOCK:   -6.37 KCAL/MOL
REMARK 923 INTER-LIGAND FREE ENERGY PREDICTED BY IDOCK:   -5.94 KCAL/MOL
REMARK 924 INTRA-LIGAND FREE ENERGY PREDICTED BY IDOCK:   -0.43 KCAL/MOL
REMARK 927      BINDING AFFINITY PREDICTED BY RF-SCORE:    0.00 PKD
ROOT
HETATM    1  C   UNL     1      -5.874  16.294  67.515  1.00  0.00    -0.155 C  
HETATM    2  N   UNL     1      -7.099  15.559  67.681  1.00  0.00    -0.157 N  
HETATM    3  C   UNL     1      -7.165  14.200  67.456  1.00  0.00    -0.169 C  
HETATM    4  H   UNL     1      -7.941  16.055  67.972  1.00  0.00     0.000 HD 
HETATM    5  O   UNL     1      -6.206  13.525  67.103  1.00  0.00    -0.244 OA 
ENDROOT
BRANCH   3   6
HETATM    6  C   UNL     1      -8.478  13.613  67.685  1.00  0.00    -0.183 A  
HETATM    7  C   UNL     1      -8.880  12.773  68.704  1.00  0.00     0.060 A  
HETATM    8  N   UNL     1     -10.206  12.450  68.491  1.00  0.00    -0.225 NA 
HETATM    9  N   UNL     1     -10.692  13.063  67.375  1.00  0.00    -0.243 NA 
HETATM   10  C   UNL     1      -9.652  13.763  66.909  1.00  0.00    -0.262 A  
BRANCH   8  11
HETATM   11  C   UNL     1     -10.964  11.523  69.295  1.00  0.00    -0.208 A  
HETATM   12  N   UNL     1     -10.678  10.200  69.195  1.00  0.00    -0.214 NA 
HETATM   13  C   UNL     1     -11.286   9.484  70.158  1.00  0.00    -0.199 A  
HETATM   14  C   UNL     1     -12.156   9.953  71.127  1.00  0.00    -0.374 A  
HETATM   15  N   UNL     1     -12.550   8.942  71.972  1.00  0.00    -0.366 NA 
HETATM   16  C   UNL     1     -12.462  11.318  71.082  1.00  0.00    -0.373 A  
HETATM   17  N   UNL     1     -13.355  11.928  71.954  1.00  0.00    -0.405 NA 
HETATM   18  N   UNL     1     -11.851  12.088  70.159  1.00  0.00    -0.330 NA 
HETATM   19  C   UNL     1     -11.896   7.882  71.551  1.00  0.00    -0.289 A  
HETATM   20  H1  UNL     1     -13.578  12.922  71.921  1.00  0.00     0.000 HD 
HETATM   21  N   UNL     1     -11.152   8.147  70.426  1.00  0.00    -0.253 NA 
HETATM   22  H2  UNL     1     -13.046  11.718  72.902  1.00  0.00     0.000 HD 
BRANCH  21  23
HETATM   23  C1* UNL     1     -10.358   7.162  69.731  1.00  0.00    -0.214 C  
HETATM   24  O4* UNL     1     -10.567   5.884  70.359  1.00  0.00    -0.242 OA 
HETATM   25  C4* UNL     1      -9.387   5.532  71.110  1.00  0.00    -0.150 C  
HETATM   26  C3* UNL     1      -8.236   6.433  70.635  1.00  0.00    -0.125 C  
HETATM   27  H2* UNL     1      -7.489   7.379  68.226  1.00  0.00     0.000 HD 
HETATM   28  C2* UNL     1      -8.856   7.419  69.641  1.00  0.00    -0.141 C  
HETATM   29  O2* UNL     1      -8.424   7.219  68.283  1.00  0.00    -0.124 OA 
HETATM   30  O3* UNL     1      -7.188   5.675  70.016  1.00  0.00    -0.064 OA 
HETATM   31  H3* UNL     1      -6.477   6.232  69.724  1.00  0.00     0.000 HD 
BRANCH  25  32
HETATM   32  C5* UNL     1      -9.696   5.651  72.609  1.00  0.00    -0.153 C  
HETATM   33  O5* UNL     1     -10.115   4.385  73.125  1.00  0.00    -0.139 OA 
HETATM   34  H5* UNL     1     -10.306   4.458  74.052  1.00  0.00     0.000 HD 
ENDBRANCH  25  32
ENDBRANCH  21  23
ENDBRANCH   8  11
ENDBRANCH   3   6
TORSDOF 4
ENDMDL
MODEL      161
REMARK 921   NORMALIZED FREE ENERGY PREDICTED BY IDOCK:   -4.69 KCAL/MOL
REMARK 922        TOTAL FREE ENERGY PREDICTED BY IDOCK:   -6.30 KCAL/MOL
REMARK 923 INTER-LIGAND FREE ENERGY PREDICTED BY IDOCK:   -5.75 KCAL/MOL
REMARK 924 INTRA-LIGAND FREE ENERGY PREDICTED BY IDOCK:   -0.55 KCAL/MOL
REMARK 927      BINDING AFFINITY PREDICTED BY RF-SCORE:    0.00 PKD
ROOT
HETATM    1  C   UNL     1      -7.387  15.402  68.632  1.00  0.00    -0.127 C  
HETATM    2  N   UNL     1      -8.449  14.495  68.973  1.00  0.00    -0.319 N  
HETATM    3  C   UNL     1      -9.231  13.897  68.008  1.00  0.00    -0.193 C  
HETATM    4  H   UNL     1      -8.629  14.287  69.956  1.00  0.00     0.000 HD 
HETATM    5  O   UNL     1      -9.087  14.090  66.806  1.00  0.00    -0.248 OA 
ENDROOT
BRANCH   3   6
HETATM    6  C   UNL     1     -10.249  12.995  68.527  1.00  0.00    -0.218 A  
HETATM    7  C   UNL     1     -10.082  11.828  69.245  1.00  0.00     0.247 A  
HETATM    8  N   UNL     1     -11.332  11.298  69.494  1.00  0.00    -0.273 NA 
HETATM    9  N   UNL     1     -12.316  12.087  68.977  1.00  0.00    -0.077 NA 
HETATM   10  C   UNL     1     -11.656  13.103  68.411  1.00  0.00    -0.337 A  
BRANCH   8  11
HETATM   11  C   UNL     1     -11.573  10.034  70.146  1.00  0.00    -0.252 A  
HETATM   12  N   UNL     1     -10.726   9.005  69.890  1.00  0.00    -0.227 NA 
HETATM   13  C   UNL     1     -10.923   7.975  70.732  1.00  0.00    -0.248 A  
HETATM   14  C   UNL     1     -11.886   7.874  71.721  1.00  0.00    -0.293 A  
HETATM   15  N   UNL     1     -11.763   6.694  72.416  1.00  0.00    -0.258 NA 
HETATM   16  C   UNL     1     -12.774   8.951  71.838  1.00  0.00    -0.376 A  
HETATM   17  N   UNL     1     -13.824   8.977  72.747  1.00  0.00    -0.913 NA 
HETATM   18  N   UNL     1     -12.597  10.025  71.042  1.00  0.00    -0.347 NA 
HETATM   19  C   UNL     1     -10.714   6.104  71.889  1.00  0.00    -0.232 A  
HETATM   20  H1  UNL     1     -14.470   9.761  72.833  1.00  0.00     0.000 HD 
HETATM   21  N   UNL     1     -10.196   6.818  70.833  1.00  0.00    -0.195 NA 
HETATM   22  H2  UNL     1     -13.429   8.807  73.672  1.00  0.00     0.000 HD 
BRANCH  21  23
HETATM   23  C1* UNL     1      -9.062   6.392  70.048  1.00  0.00    -0.150 C  
HETATM   24  O4* UNL     1      -7.916   6.308  70.913  1.00  0.00    -0.108 OA 
HETATM   25  C4* UNL     1      -7.029   7.409  70.626  1.00  0.00    -0.052 C  
HETATM   26  C3* UNL     1      -7.434   8.002  69.268  1.00  0.00    -0.094 C  
HETATM   27  H2* UNL     1      -8.269   6.926  66.945  1.00  0.00     0.000 HD 
HETATM   28  C2* UNL     1      -8.695   7.249  68.838  1.00  0.00    -0.128 C  
HETATM   29  O2* UNL     1      -8.498   6.393  67.698  1.00  0.00    -0.117 OA 
HETATM   30  O3* UNL     1      -6.393   7.855  68.292  1.00  0.00    -0.047 OA 
HETATM   31  H3* UNL     1      -6.644   8.222  67.453  1.00  0.00     0.000 HD 
BRANCH  25  32
HETATM   32  C5* UNL     1      -7.087   8.412  71.789  1.00  0.00    -0.091 C  
HETATM   33  O5* UNL     1      -7.271   7.717  73.025  1.00  0.00    -0.076 OA 
HETATM   34  H5* UNL     1      -7.306   8.337  73.744  1.00  0.00     0.000 HD 
ENDBRANCH  25  32
ENDBRANCH  21  23
ENDBRANCH   8  11
ENDBRANCH   3   6
TORSDOF 4
ENDMDL
MODEL      162
REMARK 921   NORMALIZED FREE ENERGY PREDICTED BY IDOCK:   -4.68 KCAL/MOL
REMARK 922        TOTAL FREE ENERGY PREDICTED BY IDOCK:   -6.29 KCAL/MOL
REMARK 923 INTER-LIGAND FREE ENERGY PREDICTED BY IDOCK:   -5.69 KCAL/MOL
REMARK 924 INTRA-LIGAND FREE ENERGY PREDICTED BY IDOCK:   -0.60 KCAL/MOL
REMARK 927      BINDING AFFINITY PREDICTED BY RF-SCORE:    0.00 PKD
ROOT
HETATM    1  C   UNL     1      -6.917  10.234  62.554  1.00  0.00    -0.133 C  
HETATM    2  N   UNL     1      -7.687  10.441  63.751  1.00  0.00    -0.304 N  
HETATM    3  C   UNL     1      -9.058  10.580  63.717  1.00  0.00    -0.236 C  
HETATM    4  H   UNL     1      -7.205  10.487  64.649  1.00  0.00     0.000 HD 
HETATM    5  O   UNL     1      -9.717  10.539  62.685  1.00  0.00    -0.293 OA 
ENDROOT
BRANCH   3   6
HETATM    6  C   UNL     1      -9.679  10.767  65.021  1.00  0.00    -0.323 A  
HETATM    7  C   UNL     1      -9.884   9.837  66.019  1.00  0.00    -0.274 A  
HETATM    8  N   UNL     1     -10.536  10.467  67.061  1.00  0.00    -0.251 NA 
HETATM    9  N   UNL     1     -10.752  11.784  66.785  1.00  0.00    -0.241 NA 
HETATM   10  C   UNL     1     -10.226  11.953  65.568  1.00  0.00    -0.254 A  
BRANCH   8  11
HETATM   11  C   UNL     1     -11.003   9.808  68.256  1.00  0.00    -0.164 A  
HETATM   12  N   UNL     1     -10.754   8.481  68.399  1.00  0.00    -0.098 NA 
HETATM   13  C   UNL     1     -11.030   8.053  69.644  1.00  0.00    -0.101 A  
HETATM   14  C   UNL     1     -11.559   8.794  70.686  1.00  0.00    -0.205 A  
HETATM   15  N   UNL     1     -11.666   8.037  71.830  1.00  0.00    -0.276 NA 
HETATM   16  C   UNL     1     -11.872  10.130  70.406  1.00  0.00    -0.288 A  
HETATM   17  N   UNL     1     -12.454  10.986  71.331  1.00  0.00    -0.354 NA 
HETATM   18  N   UNL     1     -11.582  10.619  69.183  1.00  0.00    -0.280 NA 
HETATM   19  C   UNL     1     -11.169   6.866  71.502  1.00  0.00    -0.256 A  
HETATM   20  H1  UNL     1     -12.682  11.959  71.127  1.00  0.00     0.000 HD 
HETATM   21  N   UNL     1     -10.812   6.809  70.175  1.00  0.00    -0.249 NA 
HETATM   22  H2  UNL     1     -11.865  10.981  72.163  1.00  0.00     0.000 HD 
BRANCH  21  23
HETATM   23  C1* UNL     1     -10.267   5.636  69.534  1.00  0.00    -0.250 C  
HETATM   24  O4* UNL     1     -10.259   4.559  70.487  1.00  0.00    -0.204 OA 
HETATM   25  C4* UNL     1      -8.901   4.311  70.906  1.00  0.00    -0.098 C  
HETATM   26  C3* UNL     1      -7.963   4.994  69.900  1.00  0.00    -0.074 C  
HETATM   27  H2* UNL     1      -8.011   5.297  67.223  1.00  0.00     0.000 HD 
HETATM   28  C2* UNL     1      -8.869   5.761  68.932  1.00  0.00    -0.110 C  
HETATM   29  O2* UNL     1      -8.880   5.219  67.598  1.00  0.00    -0.107 OA 
HETATM   30  O3* UNL     1      -7.154   4.042  69.196  1.00  0.00    -0.046 OA 
HETATM   31  H3* UNL     1      -6.574   4.465  68.574  1.00  0.00     0.000 HD 
BRANCH  25  32
HETATM   32  C5* UNL     1      -8.729   4.799  72.352  1.00  0.00    -0.119 C  
HETATM   33  O5* UNL     1      -7.860   5.934  72.386  1.00  0.00    -0.101 OA 
HETATM   34  H5* UNL     1      -7.753   6.235  73.280  1.00  0.00     0.000 HD 
ENDBRANCH  25  32
ENDBRANCH  21  23
ENDBRANCH   8  11
ENDBRANCH   3   6
TORSDOF 4
ENDMDL
MODEL      163
REMARK 921   NORMALIZED FREE ENERGY PREDICTED BY IDOCK:   -4.65 KCAL/MOL
REMARK 922        TOTAL FREE ENERGY PREDICTED BY IDOCK:   -6.25 KCAL/MOL
REMARK 923 INTER-LIGAND FREE ENERGY PREDICTED BY IDOCK:   -5.18 KCAL/MOL
REMARK 924 INTRA-LIGAND FREE ENERGY PREDICTED BY IDOCK:   -1.08 KCAL/MOL
REMARK 927      BINDING AFFINITY PREDICTED BY RF-SCORE:    0.00 PKD
ROOT
HETATM    1  C   UNL     1      -7.420  15.043  69.452  1.00  0.00    -0.196 C  
HETATM    2  N   UNL     1      -8.177  13.886  69.055  1.00  0.00    -0.342 N  
HETATM    3  C   UNL     1      -8.758  13.792  67.808  1.00  0.00    -0.182 C  
HETATM    4  H   UNL     1      -8.288  13.115  69.714  1.00  0.00     0.000 HD 
HETATM    5  O   UNL     1      -8.677  14.669  66.956  1.00  0.00    -0.215 OA 
ENDROOT
BRANCH   3   6
HETATM    6  C   UNL     1      -9.474  12.547  67.567  1.00  0.00    -0.185 A  
HETATM    7  C   UNL     1      -9.318  11.328  68.194  1.00  0.00    -0.181 A  
HETATM    8  N   UNL     1     -10.195  10.434  67.612  1.00  0.00    -0.190 NA 
HETATM    9  N   UNL     1     -10.932  11.031  66.633  1.00  0.00    -0.233 NA 
HETATM   10  C   UNL     1     -10.499  12.296  66.624  1.00  0.00    -0.222 A  
BRANCH   8  11
HETATM   11  C   UNL     1     -10.272   9.031  67.935  1.00  0.00    -0.221 A  
HETATM   12  N   UNL     1      -9.614   8.149  67.140  1.00  0.00    -0.162 NA 
HETATM   13  C   UNL     1      -9.575   6.920  67.684  1.00  0.00    -0.126 A  
HETATM   14  C   UNL     1     -10.158   6.510  68.870  1.00  0.00    -0.164 A  
HETATM   15  N   UNL     1      -9.874   5.190  69.134  1.00  0.00    -0.170 NA 
HETATM   16  C   UNL     1     -10.898   7.473  69.567  1.00  0.00    -0.175 A  
HETATM   17  N   UNL     1     -11.582   7.203  70.744  1.00  0.00    -0.307 NA 
HETATM   18  N   UNL     1     -10.939   8.731  69.083  1.00  0.00    -0.042 NA 
HETATM   19  C   UNL     1      -9.093   4.814  68.146  1.00  0.00    -0.117 A  
HETATM   20  H1  UNL     1     -12.121   7.905  71.252  1.00  0.00     0.000 HD 
HETATM   21  N   UNL     1      -8.919   5.811  67.216  1.00  0.00    -0.113 NA 
HETATM   22  H2  UNL     1     -10.912   6.802  71.400  1.00  0.00     0.000 HD 
BRANCH  21  23
HETATM   23  C1* UNL     1      -8.135   5.667  66.012  1.00  0.00    -0.109 C  
HETATM   24  O4* UNL     1      -9.030   5.654  64.885  1.00  0.00    -0.046 OA 
HETATM   25  C4* UNL     1      -9.107   4.312  64.363  1.00  0.00    -0.150 C  
HETATM   26  C3* UNL     1      -7.926   3.512  64.932  1.00  0.00    -0.090 C  
HETATM   27  H2* UNL     1      -5.347   4.108  65.431  1.00  0.00     0.000 HD 
HETATM   28  C2* UNL     1      -7.222   4.447  65.920  1.00  0.00    -0.075 C  
HETATM   29  O2* UNL     1      -5.915   4.867  65.488  1.00  0.00    -0.021 OA 
HETATM   30  O3* UNL     1      -7.025   3.088  63.901  1.00  0.00    -0.042 OA 
HETATM   31  H3* UNL     1      -6.295   2.593  64.254  1.00  0.00     0.000 HD 
BRANCH  25  32
HETATM   32  C5* UNL     1     -10.484   3.723  64.704  1.00  0.00    -0.140 C  
HETATM   33  O5* UNL     1     -11.286   4.704  65.366  1.00  0.00    -0.960 OA 
HETATM   34  H5* UNL     1     -12.137   4.340  65.577  1.00  0.00     0.000 HD 
ENDBRANCH  25  32
ENDBRANCH  21  23
ENDBRANCH   8  11
ENDBRANCH   3   6
TORSDOF 4
ENDMDL
MODEL      164
REMARK 921   NORMALIZED FREE ENERGY PREDICTED BY IDOCK:   -4.64 KCAL/MOL
REMARK 922        TOTAL FREE ENERGY PREDICTED BY IDOCK:   -6.23 KCAL/MOL
REMARK 923 INTER-LIGAND FREE ENERGY PREDICTED BY IDOCK:   -5.28 KCAL/MOL
REMARK 924 INTRA-LIGAND FREE ENERGY PREDICTED BY IDOCK:   -0.95 KCAL/MOL
REMARK 927      BINDING AFFINITY PREDICTED BY RF-SCORE:    0.00 PKD
ROOT
HETATM    1  C   UNL     1     -13.506  14.508  72.128  1.00  0.00    -0.400 C  
HETATM    2  N   UNL     1     -12.829  13.634  71.208  1.00  0.00    -0.348 N  
HETATM    3  C   UNL     1     -12.891  12.262  71.331  1.00  0.00    -0.271 C  
HETATM    4  H   UNL     1     -12.288  14.040  70.444  1.00  0.00     0.000 HD 
HETATM    5  O   UNL     1     -13.514  11.690  72.218  1.00  0.00    -0.397 OA 
ENDROOT
BRANCH   3   6
HETATM    6  C   UNL     1     -12.160  11.530  70.306  1.00  0.00    -0.444 A  
HETATM    7  C   UNL     1     -11.703  10.228  70.339  1.00  0.00    -0.319 A  
HETATM    8  N   UNL     1     -11.039   9.980  69.153  1.00  0.00    -0.215 NA 
HETATM    9  N   UNL     1     -11.061  11.071  68.337  1.00  0.00    -0.228 NA 
HETATM   10  C   UNL     1     -11.742  11.987  69.034  1.00  0.00    -0.325 A  
BRANCH   8  11
HETATM   11  C   UNL     1     -10.344   8.756  68.842  1.00  0.00    -0.212 A  
HETATM   12  N   UNL     1      -9.575   8.718  67.724  1.00  0.00    -0.145 NA 
HETATM   13  C   UNL     1      -8.808   7.613  67.684  1.00  0.00    -0.125 A  
HETATM   14  C   UNL     1      -8.790   6.572  68.595  1.00  0.00    -0.121 A  
HETATM   15  N   UNL     1      -7.848   5.629  68.255  1.00  0.00    -0.095 NA 
HETATM   16  C   UNL     1      -9.693   6.662  69.662  1.00  0.00    -0.154 A  
HETATM   17  N   UNL     1      -9.829   5.675  70.629  1.00  0.00    -0.179 NA 
HETATM   18  N   UNL     1     -10.459   7.766  69.770  1.00  0.00    -0.229 NA 
HETATM   19  C   UNL     1      -7.269   6.111  67.177  1.00  0.00    -0.075 A  
HETATM   20  H1  UNL     1     -10.486   5.740  71.406  1.00  0.00     0.000 HD 
HETATM   21  N   UNL     1      -7.846   7.288  66.763  1.00  0.00    -0.111 NA 
HETATM   22  H2  UNL     1      -8.905   5.508  71.027  1.00  0.00     0.000 HD 
BRANCH  21  23
HETATM   23  C1* UNL     1      -7.433   8.023  65.591  1.00  0.00    -0.081 C  
HETATM   24  O4* UNL     1      -8.361   7.742  64.528  1.00  0.00    -0.104 OA 
HETATM   25  C4* UNL     1      -7.723   6.880  63.563  1.00  0.00    -0.107 C  
HETATM   26  C3* UNL     1      -6.209   6.921  63.819  1.00  0.00    -0.043 C  
HETATM   27  H2* UNL     1      -4.494   8.880  64.511  1.00  0.00     0.000 HD 
HETATM   28  C2* UNL     1      -6.017   7.772  65.078  1.00  0.00    -0.038 C  
HETATM   29  O2* UNL     1      -5.375   9.036  64.830  1.00  0.00    -0.041 OA 
HETATM   30  O3* UNL     1      -5.497   7.486  62.709  1.00  0.00    -0.044 OA 
HETATM   31  H3* UNL     1      -4.561   7.511  62.868  1.00  0.00     0.000 HD 
BRANCH  25  32
HETATM   32  C5* UNL     1      -8.336   5.476  63.666  1.00  0.00    -0.073 C  
HETATM   33  O5* UNL     1      -9.298   5.438  64.724  1.00  0.00    -0.360 OA 
HETATM   34  H5* UNL     1      -9.677   4.570  64.787  1.00  0.00     0.000 HD 
ENDBRANCH  25  32
ENDBRANCH  21  23
ENDBRANCH   8  11
ENDBRANCH   3   6
TORSDOF 4
ENDMDL
MODEL      165
REMARK 921   NORMALIZED FREE ENERGY PREDICTED BY IDOCK:   -4.62 KCAL/MOL
REMARK 922        TOTAL FREE ENERGY PREDICTED BY IDOCK:   -6.22 KCAL/MOL
REMARK 923 INTER-LIGAND FREE ENERGY PREDICTED BY IDOCK:   -5.50 KCAL/MOL
REMARK 924 INTRA-LIGAND FREE ENERGY PREDICTED BY IDOCK:   -0.72 KCAL/MOL
REMARK 927      BINDING AFFINITY PREDICTED BY RF-SCORE:    0.00 PKD
ROOT
HETATM    1  C   UNL     1      -8.602  10.959  62.345  1.00  0.00    -0.297 C  
HETATM    2  N   UNL     1      -8.786  10.141  63.513  1.00  0.00    -0.208 N  
HETATM    3  C   UNL     1      -9.472  10.599  64.618  1.00  0.00    -0.258 C  
HETATM    4  H   UNL     1      -8.400   9.197  63.525  1.00  0.00     0.000 HD 
HETATM    5  O   UNL     1      -9.967  11.717  64.691  1.00  0.00    -0.249 OA 
ENDROOT
BRANCH   3   6
HETATM    6  C   UNL     1      -9.579   9.636  65.705  1.00  0.00    -0.329 A  
HETATM    7  C   UNL     1     -10.265   9.755  66.897  1.00  0.00    -0.245 A  
HETATM    8  N   UNL     1     -10.053   8.601  67.627  1.00  0.00    -0.198 NA 
HETATM    9  N   UNL     1      -9.264   7.723  66.946  1.00  0.00    -0.144 NA 
HETATM   10  C   UNL     1      -8.996   8.349  65.796  1.00  0.00    -0.159 A  
BRANCH   8  11
HETATM   11  C   UNL     1     -10.535   8.379  68.968  1.00  0.00    -0.201 A  
HETATM   12  N   UNL     1     -10.213   7.212  69.582  1.00  0.00    -0.202 NA 
HETATM   13  C   UNL     1     -10.521   7.236  70.891  1.00  0.00    -0.213 A  
HETATM   14  C   UNL     1     -11.143   8.258  71.587  1.00  0.00    -0.265 A  
HETATM   15  N   UNL     1     -11.258   7.953  72.923  1.00  0.00    -0.409 NA 
HETATM   16  C   UNL     1     -11.522   9.380  70.839  1.00  0.00    -0.316 A  
HETATM   17  N   UNL     1     -12.199  10.465  71.382  1.00  0.00    -0.372 NA 
HETATM   18  N   UNL     1     -11.205   9.422  69.529  1.00  0.00    -0.106 NA 
HETATM   19  C   UNL     1     -10.676   6.781  73.048  1.00  0.00    -0.285 A  
HETATM   20  H1  UNL     1     -12.475  11.281  70.838  1.00  0.00     0.000 HD 
HETATM   21  N   UNL     1     -10.254   6.282  71.838  1.00  0.00    -0.199 NA 
HETATM   22  H2  UNL     1     -11.650  10.799  72.174  1.00  0.00     0.000 HD 
BRANCH  21  23
HETATM   23  C1* UNL     1      -9.609   5.001  71.672  1.00  0.00    -0.156 C  
HETATM   24  O4* UNL     1      -8.319   5.056  72.307  1.00  0.00    -0.117 OA 
HETATM   25  C4* UNL     1      -7.297   5.107  71.291  1.00  0.00    -0.078 C  
HETATM   26  C3* UNL     1      -7.932   4.683  69.958  1.00  0.00    -0.064 C  
HETATM   27  H2* UNL     1      -9.749   2.814  69.277  1.00  0.00     0.000 HD 
HETATM   28  C2* UNL     1      -9.425   4.497  70.243  1.00  0.00    -0.171 C  
HETATM   29  O2* UNL     1      -9.863   3.128  70.166  1.00  0.00    -0.076 OA 
HETATM   30  O3* UNL     1      -7.354   3.470  69.456  1.00  0.00    -0.048 OA 
HETATM   31  H3* UNL     1      -7.746   3.208  68.632  1.00  0.00     0.000 HD 
BRANCH  25  32
HETATM   32  C5* UNL     1      -6.684   6.515  71.271  1.00  0.00    -0.058 C  
HETATM   33  O5* UNL     1      -7.399   7.347  70.355  1.00  0.00    -0.074 OA 
HETATM   34  H5* UNL     1      -7.020   8.218  70.342  1.00  0.00     0.000 HD 
ENDBRANCH  25  32
ENDBRANCH  21  23
ENDBRANCH   8  11
ENDBRANCH   3   6
TORSDOF 4
ENDMDL
MODEL      166
REMARK 921   NORMALIZED FREE ENERGY PREDICTED BY IDOCK:   -4.57 KCAL/MOL
REMARK 922        TOTAL FREE ENERGY PREDICTED BY IDOCK:   -6.15 KCAL/MOL
REMARK 923 INTER-LIGAND FREE ENERGY PREDICTED BY IDOCK:   -5.57 KCAL/MOL
REMARK 924 INTRA-LIGAND FREE ENERGY PREDICTED BY IDOCK:   -0.58 KCAL/MOL
REMARK 927      BINDING AFFINITY PREDICTED BY RF-SCORE:    0.00 PKD
ROOT
HETATM    1  C   UNL     1      -8.664   3.979  69.284  1.00  0.00    -0.082 C  
HETATM    2  N   UNL     1      -8.449   5.268  68.683  1.00  0.00    -0.089 N  
HETATM    3  C   UNL     1      -8.563   5.462  67.323  1.00  0.00    -0.108 C  
HETATM    4  H   UNL     1      -8.207   6.060  69.279  1.00  0.00     0.000 HD 
HETATM    5  O   UNL     1      -8.848   4.569  66.534  1.00  0.00    -0.112 OA 
ENDROOT
BRANCH   3   6
HETATM    6  C   UNL     1      -8.328   6.831  66.885  1.00  0.00    -0.114 A  
HETATM    7  C   UNL     1      -7.956   7.924  67.640  1.00  0.00    -0.124 A  
HETATM    8  N   UNL     1      -7.883   9.018  66.799  1.00  0.00    -0.103 NA 
HETATM    9  N   UNL     1      -8.179   8.673  65.513  1.00  0.00    -0.126 NA 
HETATM   10  C   UNL     1      -8.433   7.362  65.578  1.00  0.00    -0.118 A  
BRANCH   8  11
HETATM   11  C   UNL     1      -7.607  10.366  67.227  1.00  0.00    -0.095 A  
HETATM   12  N   UNL     1      -8.299  11.380  66.649  1.00  0.00    -0.169 NA 
HETATM   13  C   UNL     1      -8.117  12.543  67.299  1.00  0.00    -0.179 A  
HETATM   14  C   UNL     1      -7.297  12.774  68.390  1.00  0.00    -0.118 A  
HETATM   15  N   UNL     1      -7.394  14.077  68.819  1.00  0.00    -0.125 NA 
HETATM   16  C   UNL     1      -6.550  11.682  68.850  1.00  0.00    -0.079 A  
HETATM   17  N   UNL     1      -5.647  11.766  69.901  1.00  0.00    -0.092 NA 
HETATM   18  N   UNL     1      -6.723  10.484  68.256  1.00  0.00    -0.060 NA 
HETATM   19  C   UNL     1      -8.293  14.621  68.029  1.00  0.00    -0.146 A  
HETATM   20  H1  UNL     1      -5.103  10.971  70.236  1.00  0.00     0.000 HD 
HETATM   21  N   UNL     1      -8.727  13.747  67.061  1.00  0.00    -0.221 NA 
HETATM   22  H2  UNL     1      -6.148  12.149  70.702  1.00  0.00     0.000 HD 
BRANCH  21  23
HETATM   23  C1* UNL     1      -9.690  14.085  66.039  1.00  0.00    -0.258 C  
HETATM   24  O4* UNL     1     -10.330  15.319  66.408  1.00  0.00    -0.271 OA 
HETATM   25  C4* UNL     1     -11.678  15.039  66.840  1.00  0.00    -0.172 C  
HETATM   26  C3* UNL     1     -12.042  13.623  66.367  1.00  0.00    -0.433 C  
HETATM   27  H2* UNL     1     -11.535  12.227  64.119  1.00  0.00     0.000 HD 
HETATM   28  C2* UNL     1     -10.771  13.050  65.734  1.00  0.00    -0.274 C  
HETATM   29  O2* UNL     1     -10.863  12.871  64.309  1.00  0.00    -0.350 OA 
HETATM   30  O3* UNL     1     -13.119  13.639  65.420  1.00  0.00    -0.704 OA 
HETATM   31  H3* UNL     1     -13.345  12.764  65.128  1.00  0.00     0.000 HD 
BRANCH  25  32
HETATM   32  C5* UNL     1     -11.765  15.231  68.361  1.00  0.00    -0.321 C  
HETATM   33  O5* UNL     1     -12.654  14.266  68.926  1.00  0.00    -0.526 OA 
HETATM   34  H5* UNL     1     -12.708  14.385  69.867  1.00  0.00     0.000 HD 
ENDBRANCH  25  32
ENDBRANCH  21  23
ENDBRANCH   8  11
ENDBRANCH   3   6
TORSDOF 4
ENDMDL
MODEL      167
REMARK 921   NORMALIZED FREE ENERGY PREDICTED BY IDOCK:   -4.51 KCAL/MOL
REMARK 922        TOTAL FREE ENERGY PREDICTED BY IDOCK:   -6.08 KCAL/MOL
REMARK 923 INTER-LIGAND FREE ENERGY PREDICTED BY IDOCK:   -5.68 KCAL/MOL
REMARK 924 INTRA-LIGAND FREE ENERGY PREDICTED BY IDOCK:   -0.40 KCAL/MOL
REMARK 927      BINDING AFFINITY PREDICTED BY RF-SCORE:    0.00 PKD
ROOT
HETATM    1  C   UNL     1     -13.187  13.054  72.028  1.00  0.00    -0.444 C  
HETATM    2  N   UNL     1     -12.433  11.898  71.625  1.00  0.00    -0.096 N  
HETATM    3  C   UNL     1     -12.907  10.618  71.821  1.00  0.00    -0.444 C  
HETATM    4  H   UNL     1     -11.523  12.027  71.183  1.00  0.00     0.000 HD 
HETATM    5  O   UNL     1     -13.987  10.370  72.345  1.00  0.00     0.047 OA 
ENDROOT
BRANCH   3   6
HETATM    6  C   UNL     1     -12.024   9.566  71.340  1.00  0.00    -0.464 A  
HETATM    7  C   UNL     1     -11.448   9.427  70.094  1.00  0.00    -0.138 A  
HETATM    8  N   UNL     1     -10.712   8.258  70.092  1.00  0.00    -0.238 NA 
HETATM    9  N   UNL     1     -10.774   7.633  71.302  1.00  0.00    -0.227 NA 
HETATM   10  C   UNL     1     -11.553   8.430  72.041  1.00  0.00    -0.351 A  
BRANCH   8  11
HETATM   11  C   UNL     1     -10.029   7.719  68.942  1.00  0.00    -0.182 A  
HETATM   12  N   UNL     1      -9.854   8.522  67.862  1.00  0.00    -0.162 NA 
HETATM   13  C   UNL     1      -9.008   7.979  66.968  1.00  0.00    -0.138 A  
HETATM   14  C   UNL     1      -8.399   6.739  67.038  1.00  0.00    -0.114 A  
HETATM   15  N   UNL     1      -7.563   6.534  65.965  1.00  0.00    -0.084 NA 
HETATM   16  C   UNL     1      -8.723   5.947  68.146  1.00  0.00    -0.111 A  
HETATM   17  N   UNL     1      -8.233   4.661  68.333  1.00  0.00    -0.083 NA 
HETATM   18  N   UNL     1      -9.539   6.458  69.091  1.00  0.00    -0.136 NA 
HETATM   19  C   UNL     1      -7.627   7.651  65.275  1.00  0.00    -0.089 A  
HETATM   20  H1  UNL     1      -8.469   4.084  69.140  1.00  0.00     0.000 HD 
HETATM   21  N   UNL     1      -8.525   8.541  65.816  1.00  0.00    -0.145 NA 
HETATM   22  H2  UNL     1      -7.216   4.713  68.284  1.00  0.00     0.000 HD 
BRANCH  21  23
HETATM   23  C1* UNL     1      -8.822   9.836  65.249  1.00  0.00    -0.175 C  
HETATM   24  O4* UNL     1      -7.898  10.794  65.796  1.00  0.00    -0.156 OA 
HETATM   25  C4* UNL     1      -8.597  11.635  66.737  1.00  0.00    -0.180 C  
HETATM   26  C3* UNL     1     -10.104  11.461  66.500  1.00  0.00    -0.215 C  
HETATM   27  H2* UNL     1     -11.619  11.178  64.290  1.00  0.00     0.000 HD 
HETATM   28  C2* UNL     1     -10.241  10.367  65.437  1.00  0.00    -0.259 C  
HETATM   29  O2* UNL     1     -10.736  10.847  64.173  1.00  0.00    -0.362 OA 
HETATM   30  O3* UNL     1     -10.718  12.680  66.060  1.00  0.00    -0.262 OA 
HETATM   31  H3* UNL     1     -11.651  12.571  65.914  1.00  0.00     0.000 HD 
BRANCH  25  32
HETATM   32  C5* UNL     1      -8.141  11.276  68.159  1.00  0.00    -0.134 C  
HETATM   33  O5* UNL     1      -8.040  12.460  68.954  1.00  0.00    -0.336 OA 
HETATM   34  H5* UNL     1      -7.759  12.239  69.833  1.00  0.00     0.000 HD 
ENDBRANCH  25  32
ENDBRANCH  21  23
ENDBRANCH   8  11
ENDBRANCH   3   6
TORSDOF 4
ENDMDL
MODEL      168
REMARK 921   NORMALIZED FREE ENERGY PREDICTED BY IDOCK:   -4.51 KCAL/MOL
REMARK 922        TOTAL FREE ENERGY PREDICTED BY IDOCK:   -6.07 KCAL/MOL
REMARK 923 INTER-LIGAND FREE ENERGY PREDICTED BY IDOCK:   -5.41 KCAL/MOL
REMARK 924 INTRA-LIGAND FREE ENERGY PREDICTED BY IDOCK:   -0.66 KCAL/MOL
REMARK 927      BINDING AFFINITY PREDICTED BY RF-SCORE:    0.00 PKD
ROOT
HETATM    1  C   UNL     1     -11.508  15.713  64.357  1.00  0.00    -0.262 C  
HETATM    2  N   UNL     1     -11.542  14.477  65.093  1.00  0.00    -0.359 N  
HETATM    3  C   UNL     1     -10.639  14.207  66.099  1.00  0.00    -0.293 C  
HETATM    4  H   UNL     1     -12.253  13.782  64.864  1.00  0.00     0.000 HD 
HETATM    5  O   UNL     1      -9.752  14.982  66.439  1.00  0.00    -0.251 OA 
ENDROOT
BRANCH   3   6
HETATM    6  C   UNL     1     -10.826  12.917  66.749  1.00  0.00    -0.288 A  
HETATM    7  C   UNL     1      -9.944  11.860  66.837  1.00  0.00    -0.200 A  
HETATM    8  N   UNL     1     -10.571  10.837  67.522  1.00  0.00    -0.220 NA 
HETATM    9  N   UNL     1     -11.830  11.196  67.901  1.00  0.00    -0.630 NA 
HETATM   10  C   UNL     1     -11.966  12.444  67.442  1.00  0.00    -0.175 A  
BRANCH   8  11
HETATM   11  C   UNL     1     -10.004   9.530  67.744  1.00  0.00    -0.174 A  
HETATM   12  N   UNL     1      -9.850   9.104  69.023  1.00  0.00    -0.170 NA 
HETATM   13  C   UNL     1      -9.538   7.797  69.079  1.00  0.00    -0.155 A  
HETATM   14  C   UNL     1      -9.324   6.940  68.014  1.00  0.00    -0.123 A  
HETATM   15  N   UNL     1      -9.067   5.661  68.447  1.00  0.00    -0.117 NA 
HETATM   16  C   UNL     1      -9.411   7.503  66.734  1.00  0.00    -0.179 A  
HETATM   17  N   UNL     1      -9.174   6.787  65.569  1.00  0.00    -0.360 NA 
HETATM   18  N   UNL     1      -9.757   8.802  66.621  1.00  0.00    -0.219 NA 
HETATM   19  C   UNL     1      -9.166   5.727  69.756  1.00  0.00    -0.140 A  
HETATM   20  H1  UNL     1      -9.237   7.196  64.637  1.00  0.00     0.000 HD 
HETATM   21  N   UNL     1      -9.404   7.009  70.192  1.00  0.00    -0.162 NA 
HETATM   22  H2  UNL     1      -9.786   5.971  65.583  1.00  0.00     0.000 HD 
BRANCH  21  23
HETATM   23  C1* UNL     1      -9.529   7.380  71.582  1.00  0.00    -0.150 C  
HETATM   24  O4* UNL     1      -9.061   8.732  71.735  1.00  0.00    -0.234 OA 
HETATM   25  C4* UNL     1      -7.782   8.714  72.402  1.00  0.00     0.030 C  
HETATM   26  C3* UNL     1      -7.602   7.330  73.044  1.00  0.00    -0.078 C  
HETATM   27  H2* UNL     1      -9.272   5.637  74.309  1.00  0.00     0.000 HD 
HETATM   28  C2* UNL     1      -8.811   6.500  72.603  1.00  0.00    -0.124 C  
HETATM   29  O2* UNL     1      -9.719   6.184  73.674  1.00  0.00    -0.152 OA 
HETATM   30  O3* UNL     1      -7.535   7.412  74.474  1.00  0.00    -0.117 OA 
HETATM   31  H3* UNL     1      -7.423   6.556  74.871  1.00  0.00     0.000 HD 
BRANCH  25  32
HETATM   32  C5* UNL     1      -6.687   9.081  71.391  1.00  0.00    -0.074 C  
HETATM   33  O5* UNL     1      -6.075   7.895  70.879  1.00  0.00    -0.034 OA 
HETATM   34  H5* UNL     1      -5.398   8.122  70.253  1.00  0.00     0.000 HD 
ENDBRANCH  25  32
ENDBRANCH  21  23
ENDBRANCH   8  11
ENDBRANCH   3   6
TORSDOF 4
ENDMDL
MODEL      169
REMARK 921   NORMALIZED FREE ENERGY PREDICTED BY IDOCK:   -4.49 KCAL/MOL
REMARK 922        TOTAL FREE ENERGY PREDICTED BY IDOCK:   -6.05 KCAL/MOL
REMARK 923 INTER-LIGAND FREE ENERGY PREDICTED BY IDOCK:   -5.66 KCAL/MOL
REMARK 924 INTRA-LIGAND FREE ENERGY PREDICTED BY IDOCK:   -0.39 KCAL/MOL
REMARK 927      BINDING AFFINITY PREDICTED BY RF-SCORE:    0.00 PKD
ROOT
HETATM    1  C   UNL     1     -10.595  16.915  65.381  1.00  0.00    -0.162 C  
HETATM    2  N   UNL     1     -10.965  15.592  65.808  1.00  0.00    -0.288 N  
HETATM    3  C   UNL     1     -10.042  14.718  66.343  1.00  0.00    -0.280 C  
HETATM    4  H   UNL     1     -11.935  15.292  65.713  1.00  0.00     0.000 HD 
HETATM    5  O   UNL     1      -8.857  14.993  66.493  1.00  0.00    -0.273 OA 
ENDROOT
BRANCH   3   6
HETATM    6  C   UNL     1     -10.589  13.428  66.737  1.00  0.00    -0.277 A  
HETATM    7  C   UNL     1     -10.013  12.451  67.523  1.00  0.00    -0.196 A  
HETATM    8  N   UNL     1     -10.893  11.389  67.597  1.00  0.00    -0.222 NA 
HETATM    9  N   UNL     1     -12.035  11.644  66.898  1.00  0.00    -0.500 NA 
HETATM   10  C   UNL     1     -11.845  12.869  66.397  1.00  0.00    -0.415 A  
BRANCH   8  11
HETATM   11  C   UNL     1     -10.617  10.138  68.259  1.00  0.00    -0.226 A  
HETATM   12  N   UNL     1     -10.455   9.027  67.497  1.00  0.00    -0.266 NA 
HETATM   13  C   UNL     1      -9.974   7.996  68.214  1.00  0.00    -0.185 A  
HETATM   14  C   UNL     1      -9.710   7.971  69.572  1.00  0.00    -0.170 A  
HETATM   15  N   UNL     1      -9.187   6.758  69.954  1.00  0.00    -0.147 NA 
HETATM   16  C   UNL     1     -10.005   9.139  70.286  1.00  0.00    -0.208 A  
HETATM   17  N   UNL     1      -9.842   9.253  71.660  1.00  0.00    -0.245 NA 
HETATM   18  N   UNL     1     -10.454  10.215  69.609  1.00  0.00    -0.236 NA 
HETATM   19  C   UNL     1      -9.091   6.069  68.838  1.00  0.00    -0.121 A  
HETATM   20  H1  UNL     1     -10.056  10.103  72.180  1.00  0.00     0.000 HD 
HETATM   21  N   UNL     1      -9.599   6.758  67.762  1.00  0.00    -0.124 NA 
HETATM   22  H2  UNL     1      -8.877   9.001  71.874  1.00  0.00     0.000 HD 
BRANCH  21  23
HETATM   23  C1* UNL     1      -9.652   6.232  66.418  1.00  0.00    -0.119 C  
HETATM   24  O4* UNL     1     -10.496   5.067  66.418  1.00  0.00    -0.276 OA 
HETATM   25  C4* UNL     1      -9.672   3.891  66.279  1.00  0.00    -0.160 C  
HETATM   26  C3* UNL     1      -8.288   4.337  65.785  1.00  0.00    -0.109 C  
HETATM   27  H2* UNL     1      -7.453   6.202  64.030  1.00  0.00     0.000 HD 
HETATM   28  C2* UNL     1      -8.322   5.868  65.763  1.00  0.00    -0.140 C  
HETATM   29  O2* UNL     1      -8.280   6.428  64.438  1.00  0.00    -0.106 OA 
HETATM   30  O3* UNL     1      -7.994   3.814  64.483  1.00  0.00    -0.085 OA 
HETATM   31  H3* UNL     1      -7.137   4.090  64.178  1.00  0.00     0.000 HD 
BRANCH  25  32
HETATM   32  C5* UNL     1      -9.646   3.139  67.618  1.00  0.00    -0.051 C  
HETATM   33  O5* UNL     1      -8.325   2.667  67.888  1.00  0.00    -0.072 OA 
HETATM   34  H5* UNL     1      -8.308   2.202  68.717  1.00  0.00     0.000 HD 
ENDBRANCH  25  32
ENDBRANCH  21  23
ENDBRANCH   8  11
ENDBRANCH   3   6
TORSDOF 4
ENDMDL
MODEL      170
REMARK 921   NORMALIZED FREE ENERGY PREDICTED BY IDOCK:   -4.46 KCAL/MOL
REMARK 922        TOTAL FREE ENERGY PREDICTED BY IDOCK:   -6.02 KCAL/MOL
REMARK 923 INTER-LIGAND FREE ENERGY PREDICTED BY IDOCK:   -5.47 KCAL/MOL
REMARK 924 INTRA-LIGAND FREE ENERGY PREDICTED BY IDOCK:   -0.55 KCAL/MOL
REMARK 927      BINDING AFFINITY PREDICTED BY RF-SCORE:    0.00 PKD
ROOT
HETATM    1  C   UNL     1     -10.759  19.996  66.722  1.00  0.00    -0.241 C  
HETATM    2  N   UNL     1      -9.951  18.819  66.896  1.00  0.00    -0.326 N  
HETATM    3  C   UNL     1      -8.603  18.814  66.604  1.00  0.00    -0.302 C  
HETATM    4  H   UNL     1     -10.385  17.965  67.245  1.00  0.00     0.000 HD 
HETATM    5  O   UNL     1      -8.000  19.793  66.180  1.00  0.00    -0.322 OA 
ENDROOT
BRANCH   3   6
HETATM    6  C   UNL     1      -7.935  17.545  66.853  1.00  0.00    -0.254 A  
HETATM    7  C   UNL     1      -8.440  16.407  67.448  1.00  0.00    -0.178 A  
HETATM    8  N   UNL     1      -7.430  15.466  67.495  1.00  0.00    -0.170 NA 
HETATM    9  N   UNL     1      -6.283  15.944  66.935  1.00  0.00    -0.253 NA 
HETATM   10  C   UNL     1      -6.601  17.183  66.546  1.00  0.00    -0.242 A  
BRANCH   8  11
HETATM   11  C   UNL     1      -7.541  14.173  68.122  1.00  0.00    -0.136 A  
HETATM   12  N   UNL     1      -8.347  13.244  67.546  1.00  0.00    -0.174 NA 
HETATM   13  C   UNL     1      -8.175  12.027  68.092  1.00  0.00    -0.163 A  
HETATM   14  C   UNL     1      -7.348  11.693  69.150  1.00  0.00    -0.032 A  
HETATM   15  N   UNL     1      -7.395  10.343  69.411  1.00  0.00    -0.108 NA 
HETATM   16  C   UNL     1      -6.632  12.743  69.738  1.00  0.00     0.071 A  
HETATM   17  N   UNL     1      -5.801  12.577  70.837  1.00  0.00    -0.499 NA 
HETATM   18  N   UNL     1      -6.740  13.977  69.205  1.00  0.00    -0.119 NA 
HETATM   19  C   UNL     1      -8.206   9.856  68.498  1.00  0.00    -0.106 A  
HETATM   20  H1  UNL     1      -5.280  13.342  71.266  1.00  0.00     0.000 HD 
HETATM   21  N   UNL     1      -8.741  10.841  67.703  1.00  0.00    -0.126 NA 
HETATM   22  H2  UNL     1      -5.129  11.846  70.603  1.00  0.00     0.000 HD 
BRANCH  21  23
HETATM   23  C1* UNL     1      -9.686  10.598  66.639  1.00  0.00    -0.184 C  
HETATM   24  O4* UNL     1     -10.010   9.196  66.630  1.00  0.00    -0.228 OA 
HETATM   25  C4* UNL     1      -9.375   8.574  65.494  1.00  0.00     0.032 C  
HETATM   26  C3* UNL     1      -8.945   9.685  64.524  1.00  0.00    -0.235 C  
HETATM   27  H2* UNL     1     -10.070  12.003  63.737  1.00  0.00     0.000 HD 
HETATM   28  C2* UNL     1      -9.264  11.007  65.230  1.00  0.00    -0.207 C  
HETATM   29  O2* UNL     1     -10.333  11.748  64.614  1.00  0.00    -0.262 OA 
HETATM   30  O3* UNL     1      -9.638   9.596  63.272  1.00  0.00    -0.512 OA 
HETATM   31  H3* UNL     1      -9.372  10.283  62.673  1.00  0.00     0.000 HD 
BRANCH  25  32
HETATM   32  C5* UNL     1      -8.218   7.694  65.989  1.00  0.00    -0.128 C  
HETATM   33  O5* UNL     1      -6.966   8.311  65.677  1.00  0.00    -0.065 OA 
HETATM   34  H5* UNL     1      -6.250   7.766  65.984  1.00  0.00     0.000 HD 
ENDBRANCH  25  32
ENDBRANCH  21  23
ENDBRANCH   8  11
ENDBRANCH   3   6
TORSDOF 4
ENDMDL
MODEL      171
REMARK 921   NORMALIZED FREE ENERGY PREDICTED BY IDOCK:   -4.39 KCAL/MOL
REMARK 922        TOTAL FREE ENERGY PREDICTED BY IDOCK:   -5.93 KCAL/MOL
REMARK 923 INTER-LIGAND FREE ENERGY PREDICTED BY IDOCK:   -5.21 KCAL/MOL
REMARK 924 INTRA-LIGAND FREE ENERGY PREDICTED BY IDOCK:   -0.72 KCAL/MOL
REMARK 927      BINDING AFFINITY PREDICTED BY RF-SCORE:    0.00 PKD
ROOT
HETATM    1  C   UNL     1      -6.971  15.995  67.154  1.00  0.00    -0.207 C  
HETATM    2  N   UNL     1      -7.682  14.802  67.529  1.00  0.00    -0.179 N  
HETATM    3  C   UNL     1      -7.068  13.568  67.550  1.00  0.00    -0.148 C  
HETATM    4  H   UNL     1      -8.667  14.871  67.786  1.00  0.00     0.000 HD 
HETATM    5  O   UNL     1      -5.892  13.392  67.256  1.00  0.00    -0.350 OA 
ENDROOT
BRANCH   3   6
HETATM    6  C   UNL     1      -7.930  12.471  67.967  1.00  0.00    -0.153 A  
HETATM    7  C   UNL     1      -7.635  11.415  68.805  1.00  0.00    -0.132 A  
HETATM    8  N   UNL     1      -8.754  10.608  68.884  1.00  0.00    -0.157 NA 
HETATM    9  N   UNL     1      -9.778  11.110  68.138  1.00  0.00    -0.175 NA 
HETATM   10  C   UNL     1      -9.276  12.228  67.604  1.00  0.00    -0.183 A  
BRANCH   8  11
HETATM   11  C   UNL     1      -8.815   9.357  69.597  1.00  0.00    -0.172 A  
HETATM   12  N   UNL     1      -8.636   8.207  68.898  1.00  0.00    -0.130 NA 
HETATM   13  C   UNL     1      -8.483   7.147  69.711  1.00  0.00    -0.137 A  
HETATM   14  C   UNL     1      -8.548   7.135  71.093  1.00  0.00    -0.129 A  
HETATM   15  N   UNL     1      -8.300   5.878  71.592  1.00  0.00    -0.126 NA 
HETATM   16  C   UNL     1      -8.835   8.357  71.714  1.00  0.00    -0.195 A  
HETATM   17  N   UNL     1      -8.981   8.498  73.088  1.00  0.00    -0.304 NA 
HETATM   18  N   UNL     1      -8.961   9.459  70.947  1.00  0.00    -0.243 NA 
HETATM   19  C   UNL     1      -8.045   5.143  70.532  1.00  0.00    -0.095 A  
HETATM   20  H1  UNL     1      -9.190   9.387  73.540  1.00  0.00     0.000 HD 
HETATM   21  N   UNL     1      -8.188   5.854  69.364  1.00  0.00    -0.112 NA 
HETATM   22  H2  UNL     1      -8.137   8.127  73.523  1.00  0.00     0.000 HD 
BRANCH  21  23
HETATM   23  C1* UNL     1      -8.001   5.293  68.048  1.00  0.00    -0.091 C  
HETATM   24  O4* UNL     1      -8.648   6.151  67.091  1.00  0.00    -0.105 OA 
HETATM   25  C4* UNL     1      -9.847   5.504  66.617  1.00  0.00    -0.170 C  
HETATM   26  C3* UNL     1      -9.765   4.017  66.992  1.00  0.00    -0.178 C  
HETATM   27  H2* UNL     1      -7.759   2.219  67.031  1.00  0.00     0.000 HD 
HETATM   28  C2* UNL     1      -8.489   3.863  67.826  1.00  0.00    -0.095 C  
HETATM   29  O2* UNL     1      -7.455   3.108  67.169  1.00  0.00    -0.068 OA 
HETATM   30  O3* UNL     1      -9.719   3.177  65.831  1.00  0.00    -0.385 OA 
HETATM   31  H3* UNL     1      -9.668   2.258  66.064  1.00  0.00     0.000 HD 
BRANCH  25  32
HETATM   32  C5* UNL     1     -11.068   6.230  67.200  1.00  0.00    -0.303 C  
HETATM   33  O5* UNL     1     -10.965   7.635  66.958  1.00  0.00    -0.489 OA 
HETATM   34  H5* UNL     1     -11.721   8.084  67.319  1.00  0.00     0.000 HD 
ENDBRANCH  25  32
ENDBRANCH  21  23
ENDBRANCH   8  11
ENDBRANCH   3   6
TORSDOF 4
ENDMDL
MODEL      172
REMARK 921   NORMALIZED FREE ENERGY PREDICTED BY IDOCK:   -4.38 KCAL/MOL
REMARK 922        TOTAL FREE ENERGY PREDICTED BY IDOCK:   -5.92 KCAL/MOL
REMARK 923 INTER-LIGAND FREE ENERGY PREDICTED BY IDOCK:   -5.38 KCAL/MOL
REMARK 924 INTRA-LIGAND FREE ENERGY PREDICTED BY IDOCK:   -0.54 KCAL/MOL
REMARK 927      BINDING AFFINITY PREDICTED BY RF-SCORE:    0.00 PKD
ROOT
HETATM    1  C   UNL     1      -8.231  16.770  67.052  1.00  0.00    -0.194 C  
HETATM    2  N   UNL     1      -8.915  15.571  67.457  1.00  0.00    -0.186 N  
HETATM    3  C   UNL     1     -10.145  15.227  66.937  1.00  0.00    -0.256 C  
HETATM    4  H   UNL     1      -8.479  14.959  68.146  1.00  0.00     0.000 HD 
HETATM    5  O   UNL     1     -10.742  15.903  66.107  1.00  0.00    -0.314 OA 
ENDROOT
BRANCH   3   6
HETATM    6  C   UNL     1     -10.687  13.974  67.444  1.00  0.00    -0.285 A  
HETATM    7  C   UNL     1     -10.189  13.162  68.442  1.00  0.00    -0.247 A  
HETATM    8  N   UNL     1     -11.023  12.066  68.555  1.00  0.00    -0.226 NA 
HETATM    9  N   UNL     1     -12.061  12.143  67.675  1.00  0.00    -0.488 NA 
HETATM   10  C   UNL     1     -11.854  13.292  67.025  1.00  0.00    -0.390 A  
BRANCH   8  11
HETATM   11  C   UNL     1     -10.792  10.945  69.432  1.00  0.00    -0.240 A  
HETATM   12  N   UNL     1      -9.626  10.262  69.310  1.00  0.00    -0.216 NA 
HETATM   13  C   UNL     1      -9.441   9.405  70.330  1.00  0.00    -0.268 A  
HETATM   14  C   UNL     1     -10.308   9.150  71.378  1.00  0.00    -0.338 A  
HETATM   15  N   UNL     1      -9.769   8.244  72.261  1.00  0.00    -0.261 NA 
HETATM   16  C   UNL     1     -11.528   9.836  71.358  1.00  0.00    -0.365 A  
HETATM   17  N   UNL     1     -12.522   9.651  72.310  1.00  0.00    -0.259 NA 
HETATM   18  N   UNL     1     -11.749  10.734  70.377  1.00  0.00    -0.328 NA 
HETATM   19  C   UNL     1      -8.572   7.984  71.782  1.00  0.00    -0.133 A  
HETATM   20  H1  UNL     1     -13.411  10.151  72.295  1.00  0.00     0.000 HD 
HETATM   21  N   UNL     1      -8.343   8.627  70.589  1.00  0.00    -0.129 NA 
HETATM   22  H2  UNL     1     -12.100   9.809  73.225  1.00  0.00     0.000 HD 
BRANCH  21  23
HETATM   23  C1* UNL     1      -7.125   8.500  69.823  1.00  0.00    -0.051 C  
HETATM   24  O4* UNL     1      -6.071   9.176  70.531  1.00  0.00    -0.035 OA 
HETATM   25  C4* UNL     1      -5.752  10.402  69.839  1.00  0.00    -0.050 C  
HETATM   26  C3* UNL     1      -6.355  10.321  68.429  1.00  0.00    -0.048 C  
HETATM   27  H2* UNL     1      -6.600   8.337  66.623  1.00  0.00     0.000 HD 
HETATM   28  C2* UNL     1      -7.153   9.014  68.386  1.00  0.00    -0.076 C  
HETATM   29  O2* UNL     1      -6.583   8.017  67.518  1.00  0.00    -0.055 OA 
HETATM   30  O3* UNL     1      -5.341  10.333  67.415  1.00  0.00    -0.041 OA 
HETATM   31  H3* UNL     1      -5.714  10.284  66.543  1.00  0.00     0.000 HD 
BRANCH  25  32
HETATM   32  C5* UNL     1      -6.260  11.589  70.670  1.00  0.00     0.222 C  
HETATM   33  O5* UNL     1      -5.578  12.785  70.284  1.00  0.00    -0.122 OA 
HETATM   34  H5* UNL     1      -5.892  13.519  70.797  1.00  0.00     0.000 HD 
ENDBRANCH  25  32
ENDBRANCH  21  23
ENDBRANCH   8  11
ENDBRANCH   3   6
TORSDOF 4
ENDMDL
MODEL      173
REMARK 921   NORMALIZED FREE ENERGY PREDICTED BY IDOCK:   -4.36 KCAL/MOL
REMARK 922        TOTAL FREE ENERGY PREDICTED BY IDOCK:   -5.90 KCAL/MOL
REMARK 923 INTER-LIGAND FREE ENERGY PREDICTED BY IDOCK:   -5.26 KCAL/MOL
REMARK 924 INTRA-LIGAND FREE ENERGY PREDICTED BY IDOCK:   -0.64 KCAL/MOL
REMARK 927      BINDING AFFINITY PREDICTED BY RF-SCORE:    0.00 PKD
ROOT
HETATM    1  C   UNL     1     -14.409   6.093  72.481  1.00  0.00     0.900 C  
HETATM    2  N   UNL     1     -13.733   7.192  71.847  1.00  0.00    -0.549 N  
HETATM    3  C   UNL     1     -12.358   7.285  71.830  1.00  0.00    -0.341 C  
HETATM    4  H   UNL     1     -14.285   7.922  71.397  1.00  0.00     0.000 HD 
HETATM    5  O   UNL     1     -11.617   6.455  72.345  1.00  0.00    -0.284 OA 
ENDROOT
BRANCH   3   6
HETATM    6  C   UNL     1     -11.839   8.452  71.131  1.00  0.00    -0.314 A  
HETATM    7  C   UNL     1     -10.808   8.522  70.216  1.00  0.00    -0.238 A  
HETATM    8  N   UNL     1     -10.655   9.844  69.846  1.00  0.00    -0.252 NA 
HETATM    9  N   UNL     1     -11.562  10.642  70.477  1.00  0.00    -0.336 NA 
HETATM   10  C   UNL     1     -12.270   9.796  71.234  1.00  0.00    -0.374 A  
BRANCH   8  11
HETATM   11  C   UNL     1      -9.622  10.336  68.969  1.00  0.00    -0.203 A  
HETATM   12  N   UNL     1      -9.511  11.677  68.793  1.00  0.00    -0.117 NA 
HETATM   13  C   UNL     1      -8.377  12.004  68.149  1.00  0.00    -0.165 A  
HETATM   14  C   UNL     1      -7.422  11.140  67.644  1.00  0.00    -0.100 A  
HETATM   15  N   UNL     1      -6.371  11.830  67.085  1.00  0.00    -0.131 NA 
HETATM   16  C   UNL     1      -7.679   9.771  67.791  1.00  0.00    -0.091 A  
HETATM   17  N   UNL     1      -6.842   8.780  67.294  1.00  0.00    -0.066 NA 
HETATM   18  N   UNL     1      -8.785   9.390  68.462  1.00  0.00    -0.127 NA 
HETATM   19  C   UNL     1      -6.661  13.096  67.286  1.00  0.00     0.057 A  
HETATM   20  H1  UNL     1      -7.030   7.784  67.402  1.00  0.00     0.000 HD 
HETATM   21  N   UNL     1      -7.888  13.257  67.886  1.00  0.00    -0.136 NA 
HETATM   22  H2  UNL     1      -5.909   8.955  67.667  1.00  0.00     0.000 HD 
BRANCH  21  23
HETATM   23  C1* UNL     1      -8.474  14.539  68.197  1.00  0.00    -0.157 C  
HETATM   24  O4* UNL     1      -9.878  14.484  67.888  1.00  0.00    -0.217 OA 
HETATM   25  C4* UNL     1     -10.126  15.255  66.694  1.00  0.00    -0.261 C  
HETATM   26  C3* UNL     1      -8.903  16.152  66.446  1.00  0.00    -0.320 C  
HETATM   27  H2* UNL     1      -7.265  17.549  68.065  1.00  0.00     0.000 HD 
HETATM   28  C2* UNL     1      -7.872  15.763  67.510  1.00  0.00    -0.159 C  
HETATM   29  O2* UNL     1      -7.639  16.788  68.492  1.00  0.00    -0.194 OA 
HETATM   30  O3* UNL     1      -9.236  17.544  66.544  1.00  0.00    -0.258 OA 
HETATM   31  H3* UNL     1      -8.480  18.097  66.390  1.00  0.00     0.000 HD 
BRANCH  25  32
HETATM   32  C5* UNL     1     -10.442  14.296  65.537  1.00  0.00    -0.346 C  
HETATM   33  O5* UNL     1      -9.432  13.289  65.447  1.00  0.00    -0.484 OA 
HETATM   34  H5* UNL     1      -9.627  12.695  64.732  1.00  0.00     0.000 HD 
ENDBRANCH  25  32
ENDBRANCH  21  23
ENDBRANCH   8  11
ENDBRANCH   3   6
TORSDOF 4
ENDMDL
MODEL      174
REMARK 921   NORMALIZED FREE ENERGY PREDICTED BY IDOCK:   -4.35 KCAL/MOL
REMARK 922        TOTAL FREE ENERGY PREDICTED BY IDOCK:   -5.88 KCAL/MOL
REMARK 923 INTER-LIGAND FREE ENERGY PREDICTED BY IDOCK:   -5.55 KCAL/MOL
REMARK 924 INTRA-LIGAND FREE ENERGY PREDICTED BY IDOCK:   -0.34 KCAL/MOL
REMARK 927      BINDING AFFINITY PREDICTED BY RF-SCORE:    0.00 PKD
ROOT
HETATM    1  C   UNL     1     -10.901  20.216  65.380  1.00  0.00     0.080 C  
HETATM    2  N   UNL     1     -10.658  18.899  65.904  1.00  0.00    -0.459 N  
HETATM    3  C   UNL     1     -10.433  18.683  67.247  1.00  0.00    -0.423 C  
HETATM    4  H   UNL     1     -10.653  18.103  65.266  1.00  0.00     0.000 HD 
HETATM    5  O   UNL     1     -10.420  19.578  68.083  1.00  0.00    -0.422 OA 
ENDROOT
BRANCH   3   6
HETATM    6  C   UNL     1     -10.221  17.288  67.608  1.00  0.00    -0.333 A  
HETATM    7  C   UNL     1      -9.033  16.638  67.873  1.00  0.00    -0.217 A  
HETATM    8  N   UNL     1      -9.322  15.314  68.140  1.00  0.00    -0.196 NA 
HETATM    9  N   UNL     1     -10.663  15.078  68.075  1.00  0.00    -0.256 NA 
HETATM   10  C   UNL     1     -11.189  16.268  67.766  1.00  0.00    -0.163 A  
BRANCH   8  11
HETATM   11  C   UNL     1      -8.336  14.290  68.380  1.00  0.00    -0.164 A  
HETATM   12  N   UNL     1      -8.319  13.207  67.562  1.00  0.00    -0.173 NA 
HETATM   13  C   UNL     1      -7.216  12.459  67.748  1.00  0.00    -0.119 A  
HETATM   14  C   UNL     1      -6.211  12.666  68.675  1.00  0.00    -0.070 A  
HETATM   15  N   UNL     1      -5.216  11.724  68.549  1.00  0.00    -0.046 NA 
HETATM   16  C   UNL     1      -6.372  13.757  69.538  1.00  0.00    -0.118 A  
HETATM   17  N   UNL     1      -5.476  14.065  70.553  1.00  0.00    -0.116 NA 
HETATM   18  N   UNL     1      -7.442  14.560  69.371  1.00  0.00    -0.109 NA 
HETATM   19  C   UNL     1      -5.589  10.981  67.531  1.00  0.00    -0.045 A  
HETATM   20  H1  UNL     1      -5.594  14.860  71.181  1.00  0.00     0.000 HD 
HETATM   21  N   UNL     1      -6.817  11.356  67.040  1.00  0.00    -0.126 NA 
HETATM   22  H2  UNL     1      -4.553  14.149  70.128  1.00  0.00     0.000 HD 
BRANCH  21  23
HETATM   23  C1* UNL     1      -7.486  10.696  65.943  1.00  0.00    -0.131 C  
HETATM   24  O4* UNL     1      -8.871  11.085  65.955  1.00  0.00    -0.188 OA 
HETATM   25  C4* UNL     1      -9.667   9.974  66.414  1.00  0.00    -0.210 C  
HETATM   26  C3* UNL     1      -8.805   8.706  66.328  1.00  0.00    -0.157 C  
HETATM   27  H2* UNL     1      -6.995   7.806  64.547  1.00  0.00     0.000 HD 
HETATM   28  C2* UNL     1      -7.410   9.172  65.901  1.00  0.00    -0.094 C  
HETATM   29  O2* UNL     1      -7.042   8.755  64.574  1.00  0.00    -0.083 OA 
HETATM   30  O3* UNL     1      -9.338   7.763  65.387  1.00  0.00    -0.364 OA 
HETATM   31  H3* UNL     1      -8.805   6.979  65.335  1.00  0.00     0.000 HD 
BRANCH  25  32
HETATM   32  C5* UNL     1     -10.186  10.283  67.827  1.00  0.00    -0.187 C  
HETATM   33  O5* UNL     1     -11.611  10.178  67.859  1.00  0.00    -0.658 OA 
HETATM   34  H5* UNL     1     -11.932  10.369  68.732  1.00  0.00     0.000 HD 
ENDBRANCH  25  32
ENDBRANCH  21  23
ENDBRANCH   8  11
ENDBRANCH   3   6
TORSDOF 4
ENDMDL
MODEL      175
REMARK 921   NORMALIZED FREE ENERGY PREDICTED BY IDOCK:   -4.35 KCAL/MOL
REMARK 922        TOTAL FREE ENERGY PREDICTED BY IDOCK:   -5.87 KCAL/MOL
REMARK 923 INTER-LIGAND FREE ENERGY PREDICTED BY IDOCK:   -5.06 KCAL/MOL
REMARK 924 INTRA-LIGAND FREE ENERGY PREDICTED BY IDOCK:   -0.81 KCAL/MOL
REMARK 927      BINDING AFFINITY PREDICTED BY RF-SCORE:    0.00 PKD
ROOT
HETATM    1  C   UNL     1     -12.514  15.254  63.922  1.00  0.00     0.352 C  
HETATM    2  N   UNL     1     -11.760  14.661  64.994  1.00  0.00    -0.376 N  
HETATM    3  C   UNL     1     -10.606  15.241  65.477  1.00  0.00    -0.373 C  
HETATM    4  H   UNL     1     -12.087  13.788  65.407  1.00  0.00     0.000 HD 
HETATM    5  O   UNL     1     -10.140  16.287  65.040  1.00  0.00    -0.484 OA 
ENDROOT
BRANCH   3   6
HETATM    6  C   UNL     1      -9.978  14.516  66.572  1.00  0.00    -0.290 A  
HETATM    7  C   UNL     1      -9.431  13.249  66.565  1.00  0.00    -0.245 A  
HETATM    8  N   UNL     1      -8.980  12.972  67.841  1.00  0.00    -0.191 NA 
HETATM    9  N   UNL     1      -9.199  14.023  68.681  1.00  0.00    -0.163 NA 
HETATM   10  C   UNL     1      -9.786  14.943  67.908  1.00  0.00    -0.206 A  
BRANCH   8  11
HETATM   11  C   UNL     1      -8.422  11.710  68.259  1.00  0.00    -0.160 A  
HETATM   12  N   UNL     1      -8.750  10.596  67.557  1.00  0.00    -0.125 NA 
HETATM   13  C   UNL     1      -7.985   9.545  67.902  1.00  0.00    -0.098 A  
HETATM   14  C   UNL     1      -7.008   9.506  68.881  1.00  0.00    -0.063 A  
HETATM   15  N   UNL     1      -6.399   8.274  68.928  1.00  0.00    -0.044 NA 
HETATM   16  C   UNL     1      -6.814  10.683  69.616  1.00  0.00    -0.124 A  
HETATM   17  N   UNL     1      -5.908  10.787  70.663  1.00  0.00    -0.184 NA 
HETATM   18  N   UNL     1      -7.530  11.777  69.286  1.00  0.00     0.034 NA 
HETATM   19  C   UNL     1      -6.966   7.586  67.962  1.00  0.00    -0.072 A  
HETATM   20  H1  UNL     1      -5.767  11.643  71.198  1.00  0.00     0.000 HD 
HETATM   21  N   UNL     1      -7.966   8.295  67.341  1.00  0.00    -0.105 NA 
HETATM   22  H2  UNL     1      -4.997  10.499  70.306  1.00  0.00     0.000 HD 
BRANCH  21  23
HETATM   23  C1* UNL     1      -8.778   7.776  66.266  1.00  0.00    -0.155 C  
HETATM   24  O4* UNL     1     -10.148   7.746  66.704  1.00  0.00    -0.253 OA 
HETATM   25  C4* UNL     1     -10.533   6.377  66.948  1.00  0.00    -0.272 C  
HETATM   26  C3* UNL     1      -9.497   5.466  66.274  1.00  0.00    -0.157 C  
HETATM   27  H2* UNL     1      -8.144   5.593  63.948  1.00  0.00     0.000 HD 
HETATM   28  C2* UNL     1      -8.412   6.396  65.723  1.00  0.00    -0.148 C  
HETATM   29  O2* UNL     1      -8.371   6.451  64.286  1.00  0.00    -0.057 OA 
HETATM   30  O3* UNL     1     -10.079   4.684  65.223  1.00  0.00    -0.316 OA 
HETATM   31  H3* UNL     1      -9.438   4.120  64.807  1.00  0.00     0.000 HD 
BRANCH  25  32
HETATM   32  C5* UNL     1     -10.668   6.159  68.462  1.00  0.00    -0.300 C  
HETATM   33  O5* UNL     1     -11.779   6.903  68.967  1.00  0.00    -0.484 OA 
HETATM   34  H5* UNL     1     -11.862   6.768  69.904  1.00  0.00     0.000 HD 
ENDBRANCH  25  32
ENDBRANCH  21  23
ENDBRANCH   8  11
ENDBRANCH   3   6
TORSDOF 4
ENDMDL
MODEL      176
REMARK 921   NORMALIZED FREE ENERGY PREDICTED BY IDOCK:   -4.35 KCAL/MOL
REMARK 922        TOTAL FREE ENERGY PREDICTED BY IDOCK:   -5.87 KCAL/MOL
REMARK 923 INTER-LIGAND FREE ENERGY PREDICTED BY IDOCK:   -5.06 KCAL/MOL
REMARK 924 INTRA-LIGAND FREE ENERGY PREDICTED BY IDOCK:   -0.81 KCAL/MOL
REMARK 927      BINDING AFFINITY PREDICTED BY RF-SCORE:    0.00 PKD
ROOT
HETATM    1  C   UNL     1      -9.453   2.153  64.543  1.00  0.00    -0.112 C  
HETATM    2  N   UNL     1      -9.148   3.428  65.135  1.00  0.00    -0.138 N  
HETATM    3  C   UNL     1      -8.142   4.233  64.645  1.00  0.00    -0.091 C  
HETATM    4  H   UNL     1      -9.689   3.744  65.940  1.00  0.00     0.000 HD 
HETATM    5  O   UNL     1      -7.442   3.933  63.686  1.00  0.00    -0.054 OA 
ENDROOT
BRANCH   3   6
HETATM    6  C   UNL     1      -7.979   5.495  65.353  1.00  0.00    -0.109 A  
HETATM    7  C   UNL     1      -8.013   5.731  66.712  1.00  0.00    -0.102 A  
HETATM    8  N   UNL     1      -7.840   7.087  66.914  1.00  0.00    -0.105 NA 
HETATM    9  N   UNL     1      -7.677   7.746  65.732  1.00  0.00    -0.094 NA 
HETATM   10  C   UNL     1      -7.752   6.782  64.808  1.00  0.00    -0.111 A  
BRANCH   8  11
HETATM   11  C   UNL     1      -7.901   7.740  68.198  1.00  0.00    -0.121 A  
HETATM   12  N   UNL     1      -9.093   7.781  68.845  1.00  0.00    -0.141 NA 
HETATM   13  C   UNL     1      -8.958   8.202  70.115  1.00  0.00    -0.146 A  
HETATM   14  C   UNL     1      -7.796   8.617  70.740  1.00  0.00    -0.107 A  
HETATM   15  N   UNL     1      -8.026   8.938  72.058  1.00  0.00    -0.364 NA 
HETATM   16  C   UNL     1      -6.636   8.630  69.955  1.00  0.00    -0.038 A  
HETATM   17  N   UNL     1      -5.404   9.067  70.424  1.00  0.00    -0.026 NA 
HETATM   18  N   UNL     1      -6.709   8.183  68.685  1.00  0.00    -0.057 NA 
HETATM   19  C   UNL     1      -9.302   8.679  72.245  1.00  0.00    -0.252 A  
HETATM   20  H1  UNL     1      -4.559   9.077  69.852  1.00  0.00     0.000 HD 
HETATM   21  N   UNL     1      -9.922   8.275  71.086  1.00  0.00    -0.180 NA 
HETATM   22  H2  UNL     1      -5.193   8.535  71.267  1.00  0.00     0.000 HD 
BRANCH  21  23
HETATM   23  C1* UNL     1     -11.327   7.955  70.990  1.00  0.00    -0.274 C  
HETATM   24  O4* UNL     1     -11.985   9.008  70.264  1.00  0.00    -0.019 OA 
HETATM   25  C4* UNL     1     -12.769   9.794  71.184  1.00  0.00    -0.340 C  
HETATM   26  C3* UNL     1     -12.927   8.987  72.482  1.00  0.00    -0.361 C  
HETATM   27  H2* UNL     1     -13.318   6.374  73.009  1.00  0.00     0.000 HD 
HETATM   28  C2* UNL     1     -12.077   7.726  72.300  1.00  0.00    -0.287 C  
HETATM   29  O2* UNL     1     -12.851   6.517  72.194  1.00  0.00    -0.218 OA 
HETATM   30  O3* UNL     1     -14.297   8.647  72.733  1.00  0.00    -0.866 OA 
HETATM   31  H3* UNL     1     -14.394   8.148  73.536  1.00  0.00     0.000 HD 
BRANCH  25  32
HETATM   32  C5* UNL     1     -12.093  11.160  71.376  1.00  0.00     0.011 C  
HETATM   33  O5* UNL     1     -12.949  12.029  72.121  1.00  0.00    -0.358 OA 
HETATM   34  H5* UNL     1     -12.530  12.874  72.240  1.00  0.00     0.000 HD 
ENDBRANCH  25  32
ENDBRANCH  21  23
ENDBRANCH   8  11
ENDBRANCH   3   6
TORSDOF 4
ENDMDL
MODEL      177
REMARK 921   NORMALIZED FREE ENERGY PREDICTED BY IDOCK:   -4.34 KCAL/MOL
REMARK 922        TOTAL FREE ENERGY PREDICTED BY IDOCK:   -5.87 KCAL/MOL
REMARK 923 INTER-LIGAND FREE ENERGY PREDICTED BY IDOCK:   -5.25 KCAL/MOL
REMARK 924 INTRA-LIGAND FREE ENERGY PREDICTED BY IDOCK:   -0.62 KCAL/MOL
REMARK 927      BINDING AFFINITY PREDICTED BY RF-SCORE:    0.00 PKD
ROOT
HETATM    1  C   UNL     1     -11.654  13.570  64.173  1.00  0.00    -0.376 C  
HETATM    2  N   UNL     1     -11.325  12.816  65.353  1.00  0.00    -0.294 N  
HETATM    3  C   UNL     1     -11.773  13.191  66.602  1.00  0.00    -0.375 C  
HETATM    4  H   UNL     1     -10.746  11.982  65.263  1.00  0.00     0.000 HD 
HETATM    5  O   UNL     1     -12.471  14.178  66.802  1.00  0.00    -0.396 OA 
ENDROOT
BRANCH   3   6
HETATM    6  C   UNL     1     -11.360  12.307  67.683  1.00  0.00    -0.374 A  
HETATM    7  C   UNL     1     -10.228  11.523  67.769  1.00  0.00    -0.182 A  
HETATM    8  N   UNL     1     -10.278  10.833  68.965  1.00  0.00    -0.206 NA 
HETATM    9  N   UNL     1     -11.399  11.152  69.673  1.00  0.00    -0.275 NA 
HETATM   10  C   UNL     1     -12.031  12.042  68.900  1.00  0.00    -0.246 A  
BRANCH   8  11
HETATM   11  C   UNL     1      -9.316   9.844  69.383  1.00  0.00    -0.214 A  
HETATM   12  N   UNL     1      -9.481   8.565  68.957  1.00  0.00    -0.150 NA 
HETATM   13  C   UNL     1      -8.400   7.809  69.221  1.00  0.00    -0.136 A  
HETATM   14  C   UNL     1      -7.252   8.194  69.890  1.00  0.00    -0.060 A  
HETATM   15  N   UNL     1      -6.336   7.169  69.938  1.00  0.00    -0.034 NA 
HETATM   16  C   UNL     1      -7.223   9.507  70.375  1.00  0.00    -0.127 A  
HETATM   17  N   UNL     1      -6.164  10.026  71.108  1.00  0.00    -0.294 NA 
HETATM   18  N   UNL     1      -8.266  10.319  70.107  1.00  0.00    -0.011 NA 
HETATM   19  C   UNL     1      -6.900   6.188  69.268  1.00  0.00    -0.062 A  
HETATM   20  H1  UNL     1      -6.143  10.982  71.461  1.00  0.00     0.000 HD 
HETATM   21  N   UNL     1      -8.171   6.509  68.853  1.00  0.00    -0.118 NA 
HETATM   22  H2  UNL     1      -5.316   9.887  70.558  1.00  0.00     0.000 HD 
BRANCH  21  23
HETATM   23  C1* UNL     1      -9.035   5.611  68.124  1.00  0.00    -0.111 C  
HETATM   24  O4* UNL     1      -8.322   4.383  67.892  1.00  0.00    -0.094 OA 
HETATM   25  C4* UNL     1      -7.953   4.311  66.499  1.00  0.00    -0.098 C  
HETATM   26  C3* UNL     1      -8.792   5.344  65.732  1.00  0.00    -0.151 C  
HETATM   27  H2* UNL     1     -11.350   6.168  65.917  1.00  0.00     0.000 HD 
HETATM   28  C2* UNL     1      -9.589   6.110  66.792  1.00  0.00    -0.148 C  
HETATM   29  O2* UNL     1     -11.005   5.857  66.746  1.00  0.00    -0.299 OA 
HETATM   30  O3* UNL     1      -9.670   4.720  64.786  1.00  0.00    -0.345 OA 
HETATM   31  H3* UNL     1     -10.188   5.359  64.312  1.00  0.00     0.000 HD 
BRANCH  25  32
HETATM   32  C5* UNL     1      -6.437   4.519  66.373  1.00  0.00    -0.041 C  
HETATM   33  O5* UNL     1      -6.166   5.741  65.682  1.00  0.00    -0.034 OA 
HETATM   34  H5* UNL     1      -5.228   5.869  65.605  1.00  0.00     0.000 HD 
ENDBRANCH  25  32
ENDBRANCH  21  23
ENDBRANCH   8  11
ENDBRANCH   3   6
TORSDOF 4
ENDMDL
MODEL      178
REMARK 921   NORMALIZED FREE ENERGY PREDICTED BY IDOCK:   -4.31 KCAL/MOL
REMARK 922        TOTAL FREE ENERGY PREDICTED BY IDOCK:   -5.83 KCAL/MOL
REMARK 923 INTER-LIGAND FREE ENERGY PREDICTED BY IDOCK:   -4.80 KCAL/MOL
REMARK 924 INTRA-LIGAND FREE ENERGY PREDICTED BY IDOCK:   -1.03 KCAL/MOL
REMARK 927      BINDING AFFINITY PREDICTED BY RF-SCORE:    0.00 PKD
ROOT
HETATM    1  C   UNL     1     -10.135  14.811  65.785  1.00  0.00    -0.339 C  
HETATM    2  N   UNL     1      -9.769  13.424  65.885  1.00  0.00    -0.451 N  
HETATM    3  C   UNL     1     -10.172  12.498  64.947  1.00  0.00    -0.278 C  
HETATM    4  H   UNL     1      -9.196  13.118  66.671  1.00  0.00     0.000 HD 
HETATM    5  O   UNL     1     -10.862  12.777  63.974  1.00  0.00    -0.376 OA 
ENDROOT
BRANCH   3   6
HETATM    6  C   UNL     1      -9.699  11.143  65.194  1.00  0.00    -0.296 A  
HETATM    7  C   UNL     1     -10.365  10.094  65.794  1.00  0.00    -0.146 A  
HETATM    8  N   UNL     1      -9.507   9.012  65.835  1.00  0.00    -0.248 NA 
HETATM    9  N   UNL     1      -8.306   9.312  65.266  1.00  0.00    -0.137 NA 
HETATM   10  C   UNL     1      -8.437  10.585  64.878  1.00  0.00    -0.158 A  
BRANCH   8  11
HETATM   11  C   UNL     1      -9.807   7.750  66.466  1.00  0.00    -0.185 A  
HETATM   12  N   UNL     1      -9.192   6.634  65.997  1.00  0.00    -0.090 NA 
HETATM   13  C   UNL     1      -9.377   5.583  66.815  1.00  0.00    -0.132 A  
HETATM   14  C   UNL     1     -10.133   5.545  67.973  1.00  0.00    -0.175 A  
HETATM   15  N   UNL     1     -10.059   4.311  68.576  1.00  0.00     0.054 NA 
HETATM   16  C   UNL     1     -10.807   6.723  68.316  1.00  0.00    -0.226 A  
HETATM   17  N   UNL     1     -11.644   6.829  69.420  1.00  0.00    -0.624 NA 
HETATM   18  N   UNL     1     -10.627   7.818  67.550  1.00  0.00    -0.262 NA 
HETATM   19  C   UNL     1      -9.234   3.620  67.820  1.00  0.00    -0.184 A  
HETATM   20  H1  UNL     1     -12.134   7.687  69.670  1.00  0.00     0.000 HD 
HETATM   21  N   UNL     1      -8.829   4.330  66.715  1.00  0.00    -0.113 NA 
HETATM   22  H2  UNL     1     -11.108   6.537  70.237  1.00  0.00     0.000 HD 
BRANCH  21  23
HETATM   23  C1* UNL     1      -7.947   3.809  65.697  1.00  0.00    -0.093 C  
HETATM   24  O4* UNL     1      -6.606   3.804  66.217  1.00  0.00    -0.036 OA 
HETATM   25  C4* UNL     1      -5.852   4.857  65.582  1.00  0.00    -0.018 C  
HETATM   26  C3* UNL     1      -6.625   5.306  64.333  1.00  0.00    -0.042 C  
HETATM   27  H2* UNL     1      -8.049   3.997  62.458  1.00  0.00     0.000 HD 
HETATM   28  C2* UNL     1      -7.943   4.526  64.349  1.00  0.00    -0.095 C  
HETATM   29  O2* UNL     1      -8.051   3.551  63.296  1.00  0.00    -0.078 OA 
HETATM   30  O3* UNL     1      -5.891   5.042  63.130  1.00  0.00    -0.016 OA 
HETATM   31  H3* UNL     1      -6.369   5.320  62.357  1.00  0.00     0.000 HD 
BRANCH  25  32
HETATM   32  C5* UNL     1      -5.606   5.979  66.602  1.00  0.00    -0.013 C  
HETATM   33  O5* UNL     1      -6.196   7.197  66.142  1.00  0.00    -0.038 OA 
HETATM   34  H5* UNL     1      -6.044   7.891  66.772  1.00  0.00     0.000 HD 
ENDBRANCH  25  32
ENDBRANCH  21  23
ENDBRANCH   8  11
ENDBRANCH   3   6
TORSDOF 4
ENDMDL
MODEL      179
REMARK 921   NORMALIZED FREE ENERGY PREDICTED BY IDOCK:   -4.30 KCAL/MOL
REMARK 922        TOTAL FREE ENERGY PREDICTED BY IDOCK:   -5.81 KCAL/MOL
REMARK 923 INTER-LIGAND FREE ENERGY PREDICTED BY IDOCK:   -5.10 KCAL/MOL
REMARK 924 INTRA-LIGAND FREE ENERGY PREDICTED BY IDOCK:   -0.71 KCAL/MOL
REMARK 927      BINDING AFFINITY PREDICTED BY RF-SCORE:    0.00 PKD
ROOT
HETATM    1  C   UNL     1     -11.076  17.032  65.079  1.00  0.00     0.098 C  
HETATM    2  N   UNL     1     -10.834  15.667  64.694  1.00  0.00    -0.639 N  
HETATM    3  C   UNL     1     -10.990  14.624  65.582  1.00  0.00    -0.335 C  
HETATM    4  H   UNL     1     -10.538  15.466  63.739  1.00  0.00     0.000 HD 
HETATM    5  O   UNL     1     -11.341  14.774  66.747  1.00  0.00    -0.340 OA 
ENDROOT
BRANCH   3   6
HETATM    6  C   UNL     1     -10.718  13.308  65.023  1.00  0.00    -0.346 A  
HETATM    7  C   UNL     1      -9.772  12.384  65.415  1.00  0.00    -0.113 A  
HETATM    8  N   UNL     1      -9.865  11.294  64.572  1.00  0.00    -0.255 NA 
HETATM    9  N   UNL     1     -10.854  11.466  63.649  1.00  0.00    -0.395 NA 
HETATM   10  C   UNL     1     -11.362  12.668  63.936  1.00  0.00    -0.441 A  
BRANCH   8  11
HETATM   11  C   UNL     1      -8.985  10.152  64.605  1.00  0.00    -0.209 A  
HETATM   12  N   UNL     1      -8.277   9.917  65.739  1.00  0.00    -0.122 NA 
HETATM   13  C   UNL     1      -7.688   8.708  65.718  1.00  0.00    -0.090 A  
HETATM   14  C   UNL     1      -7.703   7.787  64.686  1.00  0.00    -0.121 A  
HETATM   15  N   UNL     1      -7.029   6.639  65.033  1.00  0.00    -0.056 NA 
HETATM   16  C   UNL     1      -8.381   8.167  63.521  1.00  0.00     0.018 A  
HETATM   17  N   UNL     1      -8.443   7.374  62.382  1.00  0.00    -0.372 NA 
HETATM   18  N   UNL     1      -9.019   9.355  63.503  1.00  0.00    -0.185 NA 
HETATM   19  C   UNL     1      -6.646   6.841  66.275  1.00  0.00    -0.048 A  
HETATM   20  H1  UNL     1      -8.936   7.651  61.534  1.00  0.00     0.000 HD 
HETATM   21  N   UNL     1      -6.980   8.098  66.721  1.00  0.00    -0.072 NA 
HETATM   22  H2  UNL     1      -8.810   6.466  62.664  1.00  0.00     0.000 HD 
BRANCH  21  23
HETATM   23  C1* UNL     1      -6.658   8.602  68.034  1.00  0.00    -0.058 C  
HETATM   24  O4* UNL     1      -7.189   7.692  69.014  1.00  0.00    -0.076 OA 
HETATM   25  C4* UNL     1      -8.337   8.298  69.644  1.00  0.00    -0.123 C  
HETATM   26  C3* UNL     1      -8.311   9.801  69.331  1.00  0.00    -0.152 C  
HETATM   27  H2* UNL     1      -6.341  11.631  69.161  1.00  0.00     0.000 HD 
HETATM   28  C2* UNL     1      -7.135  10.013  68.373  1.00  0.00    -0.072 C  
HETATM   29  O2* UNL     1      -6.044  10.753  68.950  1.00  0.00    -0.040 OA 
HETATM   30  O3* UNL     1      -8.149  10.589  70.518  1.00  0.00    -0.249 OA 
HETATM   31  H3* UNL     1      -8.134  11.518  70.324  1.00  0.00     0.000 HD 
BRANCH  25  32
HETATM   32  C5* UNL     1      -9.606   7.580  69.161  1.00  0.00    -0.157 C  
HETATM   33  O5* UNL     1      -9.874   7.922  67.799  1.00  0.00    -0.150 OA 
HETATM   34  H5* UNL     1     -10.659   7.478  67.501  1.00  0.00     0.000 HD 
ENDBRANCH  25  32
ENDBRANCH  21  23
ENDBRANCH   8  11
ENDBRANCH   3   6
TORSDOF 4
ENDMDL
MODEL      180
REMARK 921   NORMALIZED FREE ENERGY PREDICTED BY IDOCK:   -4.28 KCAL/MOL
REMARK 922        TOTAL FREE ENERGY PREDICTED BY IDOCK:   -5.80 KCAL/MOL
REMARK 923 INTER-LIGAND FREE ENERGY PREDICTED BY IDOCK:   -4.99 KCAL/MOL
REMARK 924 INTRA-LIGAND FREE ENERGY PREDICTED BY IDOCK:   -0.80 KCAL/MOL
REMARK 927      BINDING AFFINITY PREDICTED BY RF-SCORE:    0.00 PKD
ROOT
HETATM    1  C   UNL     1     -10.846  19.638  65.868  1.00  0.00    -0.317 C  
HETATM    2  N   UNL     1     -10.946  18.204  65.876  1.00  0.00     0.063 N  
HETATM    3  C   UNL     1      -9.826  17.399  65.867  1.00  0.00    -0.103 C  
HETATM    4  H   UNL     1     -11.868  17.770  65.890  1.00  0.00     0.000 HD 
HETATM    5  O   UNL     1      -8.681  17.834  65.850  1.00  0.00    -0.514 OA 
ENDROOT
BRANCH   3   6
HETATM    6  C   UNL     1     -10.108  15.971  65.894  1.00  0.00    -0.378 A  
HETATM    7  C   UNL     1      -9.336  14.931  65.417  1.00  0.00     0.326 A  
HETATM    8  N   UNL     1     -10.024  13.754  65.636  1.00  0.00    -0.283 NA 
HETATM    9  N   UNL     1     -11.216  13.986  66.255  1.00  0.00    -0.315 NA 
HETATM   10  C   UNL     1     -11.249  15.313  66.413  1.00  0.00    -0.224 A  
BRANCH   8  11
HETATM   11  C   UNL     1      -9.584  12.452  65.199  1.00  0.00     0.046 A  
HETATM   12  N   UNL     1      -8.802  11.722  66.035  1.00  0.00    -0.118 NA 
HETATM   13  C   UNL     1      -8.664  10.454  65.608  1.00  0.00    -0.171 A  
HETATM   14  C   UNL     1      -9.172   9.901  64.446  1.00  0.00    -0.264 A  
HETATM   15  N   UNL     1      -8.867   8.563  64.357  1.00  0.00     0.085 NA 
HETATM   16  C   UNL     1      -9.882  10.765  63.603  1.00  0.00    -0.350 A  
HETATM   17  N   UNL     1     -10.409  10.374  62.379  1.00  0.00    -0.504 NA 
HETATM   18  N   UNL     1     -10.081  12.039  64.001  1.00  0.00    -0.331 NA 
HETATM   19  C   UNL     1      -8.222   8.294  65.470  1.00  0.00    -0.138 A  
HETATM   20  H1  UNL     1     -10.926  11.003  61.766  1.00  0.00     0.000 HD 
HETATM   21  N   UNL     1      -8.032   9.416  66.241  1.00  0.00    -0.110 NA 
HETATM   22  H2  UNL     1     -11.001   9.561  62.549  1.00  0.00     0.000 HD 
BRANCH  21  23
HETATM   23  C1* UNL     1      -7.328   9.421  67.502  1.00  0.00    -0.084 C  
HETATM   24  O4* UNL     1      -8.212   8.914  68.518  1.00  0.00    -0.114 OA 
HETATM   25  C4* UNL     1      -8.639  10.007  69.357  1.00  0.00    -0.175 C  
HETATM   26  C3* UNL     1      -7.696  11.193  69.107  1.00  0.00    -0.076 C  
HETATM   27  H2* UNL     1      -5.044  11.402  68.685  1.00  0.00     0.000 HD 
HETATM   28  C2* UNL     1      -6.762  10.758  67.975  1.00  0.00    -0.064 C  
HETATM   29  O2* UNL     1      -5.397  10.570  68.391  1.00  0.00    -0.035 OA 
HETATM   30  O3* UNL     1      -6.949  11.535  70.282  1.00  0.00    -0.439 OA 
HETATM   31  H3* UNL     1      -6.366  12.268  70.128  1.00  0.00     0.000 HD 
BRANCH  25  32
HETATM   32  C5* UNL     1     -10.116  10.310  69.065  1.00  0.00    -0.213 C  
HETATM   33  O5* UNL     1     -10.235  11.572  68.403  1.00  0.00    -0.191 OA 
HETATM   34  H5* UNL     1     -11.149  11.759  68.222  1.00  0.00     0.000 HD 
ENDBRANCH  25  32
ENDBRANCH  21  23
ENDBRANCH   8  11
ENDBRANCH   3   6
TORSDOF 4
ENDMDL
MODEL      181
REMARK 921   NORMALIZED FREE ENERGY PREDICTED BY IDOCK:   -4.27 KCAL/MOL
REMARK 922        TOTAL FREE ENERGY PREDICTED BY IDOCK:   -5.78 KCAL/MOL
REMARK 923 INTER-LIGAND FREE ENERGY PREDICTED BY IDOCK:   -5.03 KCAL/MOL
REMARK 924 INTRA-LIGAND FREE ENERGY PREDICTED BY IDOCK:   -0.75 KCAL/MOL
REMARK 927      BINDING AFFINITY PREDICTED BY RF-SCORE:    0.00 PKD
ROOT
HETATM    1  C   UNL     1      -8.810   2.056  72.805  1.00  0.00    -0.063 C  
HETATM    2  N   UNL     1      -9.573   3.237  72.501  1.00  0.00    -0.121 N  
HETATM    3  C   UNL     1      -9.668   4.288  73.389  1.00  0.00    -0.121 C  
HETATM    4  H   UNL     1     -10.057   3.299  71.606  1.00  0.00     0.000 HD 
HETATM    5  O   UNL     1      -9.122   4.298  74.486  1.00  0.00    -0.099 OA 
ENDROOT
BRANCH   3   6
HETATM    6  C   UNL     1     -10.467   5.409  72.915  1.00  0.00    -0.250 A  
HETATM    7  C   UNL     1     -10.041   6.583  72.329  1.00  0.00    -0.175 A  
HETATM    8  N   UNL     1     -11.154   7.361  72.075  1.00  0.00    -0.235 NA 
HETATM    9  N   UNL     1     -12.298   6.727  72.459  1.00  0.00     0.050 NA 
HETATM   10  C   UNL     1     -11.874   5.558  72.950  1.00  0.00    -0.067 A  
BRANCH   8  11
HETATM   11  C   UNL     1     -11.116   8.701  71.544  1.00  0.00    -0.288 A  
HETATM   12  N   UNL     1     -10.146   9.011  70.646  1.00  0.00    -0.211 NA 
HETATM   13  C   UNL     1     -10.368  10.203  70.064  1.00  0.00    -0.250 A  
HETATM   14  C   UNL     1     -11.397  11.088  70.333  1.00  0.00    -0.132 A  
HETATM   15  N   UNL     1     -11.332  12.191  69.513  1.00  0.00    -0.240 NA 
HETATM   16  C   UNL     1     -12.289  10.717  71.347  1.00  0.00    -0.328 A  
HETATM   17  N   UNL     1     -13.341  11.520  71.767  1.00  0.00    -0.350 NA 
HETATM   18  N   UNL     1     -12.133   9.515  71.938  1.00  0.00    -0.365 NA 
HETATM   19  C   UNL     1     -10.306  11.960  68.725  1.00  0.00    -0.165 A  
HETATM   20  H1  UNL     1     -13.991  11.250  72.505  1.00  0.00     0.000 HD 
HETATM   21  N   UNL     1      -9.659  10.790  69.049  1.00  0.00    -0.198 NA 
HETATM   22  H2  UNL     1     -13.897  11.749  70.943  1.00  0.00     0.000 HD 
BRANCH  21  23
HETATM   23  C1* UNL     1      -8.482  10.303  68.370  1.00  0.00    -0.124 C  
HETATM   24  O4* UNL     1      -8.822  10.048  66.996  1.00  0.00    -0.137 OA 
HETATM   25  C4* UNL     1      -8.886   8.622  66.785  1.00  0.00    -0.134 C  
HETATM   26  C3* UNL     1      -8.187   7.936  67.967  1.00  0.00    -0.127 C  
HETATM   27  H2* UNL     1      -5.985   8.507  69.410  1.00  0.00     0.000 HD 
HETATM   28  C2* UNL     1      -7.816   9.055  68.945  1.00  0.00    -0.095 C  
HETATM   29  O2* UNL     1      -6.399   9.284  69.053  1.00  0.00    -0.043 OA 
HETATM   30  O3* UNL     1      -7.019   7.216  67.550  1.00  0.00    -0.074 OA 
HETATM   31  H3* UNL     1      -6.587   6.791  68.281  1.00  0.00     0.000 HD 
BRANCH  25  32
HETATM   32  C5* UNL     1     -10.354   8.211  66.602  1.00  0.00    -0.213 C  
HETATM   33  O5* UNL     1     -10.993   8.098  67.877  1.00  0.00    -0.480 OA 
HETATM   34  H5* UNL     1     -11.901   7.844  67.764  1.00  0.00     0.000 HD 
ENDBRANCH  25  32
ENDBRANCH  21  23
ENDBRANCH   8  11
ENDBRANCH   3   6
TORSDOF 4
ENDMDL
MODEL      182
REMARK 921   NORMALIZED FREE ENERGY PREDICTED BY IDOCK:   -4.27 KCAL/MOL
REMARK 922        TOTAL FREE ENERGY PREDICTED BY IDOCK:   -5.78 KCAL/MOL
REMARK 923 INTER-LIGAND FREE ENERGY PREDICTED BY IDOCK:   -5.61 KCAL/MOL
REMARK 924 INTRA-LIGAND FREE ENERGY PREDICTED BY IDOCK:   -0.17 KCAL/MOL
REMARK 927      BINDING AFFINITY PREDICTED BY RF-SCORE:    0.00 PKD
ROOT
HETATM    1  C   UNL     1     -13.622   8.530  71.999  1.00  0.00    -0.392 C  
HETATM    2  N   UNL     1     -12.451   8.642  71.172  1.00  0.00    -0.448 N  
HETATM    3  C   UNL     1     -11.550   7.606  71.045  1.00  0.00    -0.282 C  
HETATM    4  H   UNL     1     -12.282   9.512  70.667  1.00  0.00     0.000 HD 
HETATM    5  O   UNL     1     -11.673   6.529  71.617  1.00  0.00    -0.296 OA 
ENDROOT
BRANCH   3   6
HETATM    6  C   UNL     1     -10.430   7.884  70.157  1.00  0.00    -0.231 A  
HETATM    7  C   UNL     1     -10.456   8.250  68.827  1.00  0.00    -0.177 A  
HETATM    8  N   UNL     1      -9.150   8.376  68.395  1.00  0.00    -0.136 NA 
HETATM    9  N   UNL     1      -8.269   8.119  69.403  1.00  0.00    -0.120 NA 
HETATM   10  C   UNL     1      -9.047   7.837  70.452  1.00  0.00    -0.155 A  
BRANCH   8  11
HETATM   11  C   UNL     1      -8.759   8.663  67.037  1.00  0.00    -0.127 A  
HETATM   12  N   UNL     1      -8.341   7.634  66.255  1.00  0.00    -0.126 NA 
HETATM   13  C   UNL     1      -8.236   7.999  64.965  1.00  0.00    -0.141 A  
HETATM   14  C   UNL     1      -8.449   9.257  64.430  1.00  0.00    -0.188 A  
HETATM   15  N   UNL     1      -8.292   9.251  63.064  1.00  0.00    -0.182 NA 
HETATM   16  C   UNL     1      -8.781  10.272  65.337  1.00  0.00    -0.169 A  
HETATM   17  N   UNL     1      -8.977  11.595  64.962  1.00  0.00    -0.396 NA 
HETATM   18  N   UNL     1      -8.935   9.952  66.638  1.00  0.00    -0.138 NA 
HETATM   19  C   UNL     1      -8.030   7.998  62.765  1.00  0.00    -0.151 A  
HETATM   20  H1  UNL     1      -9.219  12.333  65.622  1.00  0.00     0.000 HD 
HETATM   21  N   UNL     1      -7.939   7.208  63.887  1.00  0.00    -0.111 NA 
HETATM   22  H2  UNL     1      -9.684  11.601  64.227  1.00  0.00     0.000 HD 
BRANCH  21  23
HETATM   23  C1* UNL     1      -7.631   5.797  63.859  1.00  0.00    -0.083 C  
HETATM   24  O4* UNL     1      -8.868   5.063  63.824  1.00  0.00    -0.124 OA 
HETATM   25  C4* UNL     1      -9.087   4.450  65.111  1.00  0.00    -0.148 C  
HETATM   26  C3* UNL     1      -7.758   4.473  65.880  1.00  0.00    -0.094 C  
HETATM   27  H2* UNL     1      -5.188   4.100  65.161  1.00  0.00     0.000 HD 
HETATM   28  C2* UNL     1      -6.775   5.252  65.000  1.00  0.00    -0.048 C  
HETATM   29  O2* UNL     1      -5.721   4.440  64.452  1.00  0.00    -0.013 OA 
HETATM   30  O3* UNL     1      -7.271   3.149  66.140  1.00  0.00    -0.067 OA 
HETATM   31  H3* UNL     1      -6.449   3.164  66.616  1.00  0.00     0.000 HD 
BRANCH  25  32
HETATM   32  C5* UNL     1     -10.234   5.182  65.822  1.00  0.00    -0.053 C  
HETATM   33  O5* UNL     1     -11.484   4.837  65.220  1.00  0.00    -1.008 OA 
HETATM   34  H5* UNL     1     -12.193   5.290  65.660  1.00  0.00     0.000 HD 
ENDBRANCH  25  32
ENDBRANCH  21  23
ENDBRANCH   8  11
ENDBRANCH   3   6
TORSDOF 4
ENDMDL
MODEL      183
REMARK 921   NORMALIZED FREE ENERGY PREDICTED BY IDOCK:   -4.25 KCAL/MOL
REMARK 922        TOTAL FREE ENERGY PREDICTED BY IDOCK:   -5.75 KCAL/MOL
REMARK 923 INTER-LIGAND FREE ENERGY PREDICTED BY IDOCK:   -5.50 KCAL/MOL
REMARK 924 INTRA-LIGAND FREE ENERGY PREDICTED BY IDOCK:   -0.26 KCAL/MOL
REMARK 927      BINDING AFFINITY PREDICTED BY RF-SCORE:    0.00 PKD
ROOT
HETATM    1  C   UNL     1      -8.991   5.990  70.128  1.00  0.00    -0.147 C  
HETATM    2  N   UNL     1      -8.476   7.209  69.565  1.00  0.00    -0.133 N  
HETATM    3  C   UNL     1      -8.405   7.405  68.202  1.00  0.00    -0.124 C  
HETATM    4  H   UNL     1      -8.156   7.949  70.190  1.00  0.00     0.000 HD 
HETATM    5  O   UNL     1      -8.766   6.572  67.379  1.00  0.00    -0.117 OA 
ENDROOT
BRANCH   3   6
HETATM    6  C   UNL     1      -7.874   8.701  67.804  1.00  0.00    -0.103 A  
HETATM    7  C   UNL     1      -7.712   9.838  68.569  1.00  0.00    -0.081 A  
HETATM    8  N   UNL     1      -7.200  10.830  67.756  1.00  0.00    -0.086 NA 
HETATM    9  N   UNL     1      -7.007  10.376  66.485  1.00  0.00    -0.105 NA 
HETATM   10  C   UNL     1      -7.403   9.100  66.530  1.00  0.00    -0.089 A  
BRANCH   8  11
HETATM   11  C   UNL     1      -6.972  12.193  68.168  1.00  0.00    -0.082 A  
HETATM   12  N   UNL     1      -7.359  13.191  67.335  1.00  0.00    -0.141 NA 
HETATM   13  C   UNL     1      -7.305  14.393  67.937  1.00  0.00    -0.154 A  
HETATM   14  C   UNL     1      -6.864  14.668  69.219  1.00  0.00    -0.143 A  
HETATM   15  N   UNL     1      -6.990  16.006  69.513  1.00  0.00    -0.209 NA 
HETATM   16  C   UNL     1      -6.392  13.579  69.964  1.00  0.00    -0.045 A  
HETATM   17  N   UNL     1      -5.872  13.700  71.245  1.00  0.00    -0.438 NA 
HETATM   18  N   UNL     1      -6.459  12.347  69.420  1.00  0.00    -0.113 NA 
HETATM   19  C   UNL     1      -7.542  16.531  68.442  1.00  0.00    -0.189 A  
HETATM   20  H1  UNL     1      -5.529  12.908  71.787  1.00  0.00     0.000 HD 
HETATM   21  N   UNL     1      -7.709  15.604  67.440  1.00  0.00    -0.168 NA 
HETATM   22  H2  UNL     1      -6.572  14.176  71.814  1.00  0.00     0.000 HD 
BRANCH  21  23
HETATM   23  C1* UNL     1      -8.263  15.908  66.141  1.00  0.00     0.072 C  
HETATM   24  O4* UNL     1      -8.009  17.294  65.852  1.00  0.00    -0.518 OA 
HETATM   25  C4* UNL     1      -9.245  18.031  65.964  1.00  0.00     0.003 C  
HETATM   26  C3* UNL     1     -10.402  17.021  65.947  1.00  0.00    -0.298 C  
HETATM   27  H2* UNL     1     -10.862  14.745  64.582  1.00  0.00     0.000 HD 
HETATM   28  C2* UNL     1      -9.752  15.634  65.940  1.00  0.00    -0.353 C  
HETATM   29  O2* UNL     1      -9.936  14.915  64.708  1.00  0.00    -0.215 OA 
HETATM   30  O3* UNL     1     -11.243  17.195  64.799  1.00  0.00    -0.860 OA 
HETATM   31  H3* UNL     1     -11.959  16.571  64.789  1.00  0.00     0.000 HD 
BRANCH  25  32
HETATM   32  C5* UNL     1      -9.193  18.901  67.228  1.00  0.00    -0.283 C  
HETATM   33  O5* UNL     1      -9.533  20.252  66.907  1.00  0.00    -0.377 OA 
HETATM   34  H5* UNL     1      -9.502  20.791  67.689  1.00  0.00     0.000 HD 
ENDBRANCH  25  32
ENDBRANCH  21  23
ENDBRANCH   8  11
ENDBRANCH   3   6
TORSDOF 4
ENDMDL
MODEL      184
REMARK 921   NORMALIZED FREE ENERGY PREDICTED BY IDOCK:   -4.24 KCAL/MOL
REMARK 922        TOTAL FREE ENERGY PREDICTED BY IDOCK:   -5.74 KCAL/MOL
REMARK 923 INTER-LIGAND FREE ENERGY PREDICTED BY IDOCK:   -5.14 KCAL/MOL
REMARK 924 INTRA-LIGAND FREE ENERGY PREDICTED BY IDOCK:   -0.60 KCAL/MOL
REMARK 927      BINDING AFFINITY PREDICTED BY RF-SCORE:    0.00 PKD
ROOT
HETATM    1  C   UNL     1     -11.841   1.622  73.779  1.00  0.00    -0.137 C  
HETATM    2  N   UNL     1     -11.653   2.879  73.106  1.00  0.00     0.092 N  
HETATM    3  C   UNL     1     -10.404   3.444  72.960  1.00  0.00    -0.165 C  
HETATM    4  H   UNL     1     -12.465   3.366  72.727  1.00  0.00     0.000 HD 
HETATM    5  O   UNL     1      -9.375   2.931  73.384  1.00  0.00    -0.087 OA 
ENDROOT
BRANCH   3   6
HETATM    6  C   UNL     1     -10.393   4.710  72.240  1.00  0.00    -0.251 A  
HETATM    7  C   UNL     1     -10.272   4.928  70.883  1.00  0.00    -0.202 A  
HETATM    8  N   UNL     1     -10.284   6.293  70.668  1.00  0.00    -0.189 NA 
HETATM    9  N   UNL     1     -10.425   6.976  71.839  1.00  0.00    -0.200 NA 
HETATM   10  C   UNL     1     -10.499   6.018  72.769  1.00  0.00    -0.216 A  
BRANCH   8  11
HETATM   11  C   UNL     1     -10.093   6.924  69.386  1.00  0.00    -0.167 A  
HETATM   12  N   UNL     1     -10.758   8.079  69.131  1.00  0.00    -0.161 NA 
HETATM   13  C   UNL     1     -10.312   8.674  68.010  1.00  0.00    -0.223 A  
HETATM   14  C   UNL     1      -9.345   8.204  67.140  1.00  0.00    -0.145 A  
HETATM   15  N   UNL     1      -9.115   9.099  66.121  1.00  0.00    -0.173 NA 
HETATM   16  C   UNL     1      -8.790   6.954  67.441  1.00  0.00    -0.118 A  
HETATM   17  N   UNL     1      -7.846   6.326  66.639  1.00  0.00    -0.103 NA 
HETATM   18  N   UNL     1      -9.176   6.331  68.573  1.00  0.00    -0.124 NA 
HETATM   19  C   UNL     1      -9.898  10.120  66.391  1.00  0.00    -0.222 A  
HETATM   20  H1  UNL     1      -7.442   5.416  66.858  1.00  0.00     0.000 HD 
HETATM   21  N   UNL     1     -10.679   9.893  67.500  1.00  0.00    -0.274 NA 
HETATM   22  H2  UNL     1      -7.073   6.979  66.511  1.00  0.00     0.000 HD 
BRANCH  21  23
HETATM   23  C1* UNL     1     -11.652  10.829  68.009  1.00  0.00    -0.163 C  
HETATM   24  O4* UNL     1     -11.527  12.060  67.274  1.00  0.00    -0.311 OA 
HETATM   25  C4* UNL     1     -10.912  13.052  68.122  1.00  0.00    -0.244 C  
HETATM   26  C3* UNL     1     -10.997  12.555  69.572  1.00  0.00     0.093 C  
HETATM   27  H2* UNL     1     -12.885  11.251  70.983  1.00  0.00     0.000 HD 
HETATM   28  C2* UNL     1     -11.595  11.147  69.502  1.00  0.00    -0.321 C  
HETATM   29  O2* UNL     1     -12.920  11.053  70.054  1.00  0.00    -0.105 OA 
HETATM   30  O3* UNL     1     -11.810  13.414  70.383  1.00  0.00    -0.477 OA 
HETATM   31  H3* UNL     1     -11.862  13.107  71.280  1.00  0.00     0.000 HD 
BRANCH  25  32
HETATM   32  C5* UNL     1      -9.479  13.308  67.631  1.00  0.00    -0.211 C  
HETATM   33  O5* UNL     1      -8.542  12.959  68.653  1.00  0.00    -0.342 OA 
HETATM   34  H5* UNL     1      -7.656  13.117  68.349  1.00  0.00     0.000 HD 
ENDBRANCH  25  32
ENDBRANCH  21  23
ENDBRANCH   8  11
ENDBRANCH   3   6
TORSDOF 4
ENDMDL
MODEL      185
REMARK 921   NORMALIZED FREE ENERGY PREDICTED BY IDOCK:   -4.24 KCAL/MOL
REMARK 922        TOTAL FREE ENERGY PREDICTED BY IDOCK:   -5.74 KCAL/MOL
REMARK 923 INTER-LIGAND FREE ENERGY PREDICTED BY IDOCK:   -4.99 KCAL/MOL
REMARK 924 INTRA-LIGAND FREE ENERGY PREDICTED BY IDOCK:   -0.75 KCAL/MOL
REMARK 927      BINDING AFFINITY PREDICTED BY RF-SCORE:    0.00 PKD
ROOT
HETATM    1  C   UNL     1     -10.697  17.287  68.916  1.00  0.00    -0.197 C  
HETATM    2  N   UNL     1     -10.783  15.947  68.400  1.00  0.00    -0.268 N  
HETATM    3  C   UNL     1     -10.969  15.698  67.057  1.00  0.00    -0.261 C  
HETATM    4  H   UNL     1     -10.704  15.161  69.044  1.00  0.00     0.000 HD 
HETATM    5  O   UNL     1     -11.075  16.580  66.213  1.00  0.00     0.009 OA 
ENDROOT
BRANCH   3   6
HETATM    6  C   UNL     1     -11.018  14.286  66.705  1.00  0.00    -0.310 A  
HETATM    7  C   UNL     1      -9.969  13.421  66.466  1.00  0.00    -0.286 A  
HETATM    8  N   UNL     1     -10.500  12.189  66.137  1.00  0.00    -0.242 NA 
HETATM    9  N   UNL     1     -11.863  12.213  66.169  1.00  0.00    -0.582 NA 
HETATM   10  C   UNL     1     -12.158  13.469  66.520  1.00  0.00    -0.408 A  
BRANCH   8  11
HETATM   11  C   UNL     1      -9.724  11.041  65.735  1.00  0.00    -0.224 A  
HETATM   12  N   UNL     1      -9.159  10.275  66.702  1.00  0.00    -0.143 NA 
HETATM   13  C   UNL     1      -8.672   9.124  66.205  1.00  0.00    -0.140 A  
HETATM   14  C   UNL     1      -8.656   8.724  64.881  1.00  0.00    -0.150 A  
HETATM   15  N   UNL     1      -8.118   7.465  64.748  1.00  0.00    -0.127 NA 
HETATM   16  C   UNL     1      -9.176   9.631  63.949  1.00  0.00    -0.132 A  
HETATM   17  N   UNL     1      -9.185   9.397  62.581  1.00  0.00    -0.537 NA 
HETATM   18  N   UNL     1      -9.710  10.785  64.399  1.00  0.00    -0.272 NA 
HETATM   19  C   UNL     1      -7.851   7.085  65.978  1.00  0.00    -0.104 A  
HETATM   20  H1  UNL     1      -9.563  10.057  61.902  1.00  0.00     0.000 HD 
HETATM   21  N   UNL     1      -8.125   8.073  66.894  1.00  0.00    -0.107 NA 
HETATM   22  H2  UNL     1      -9.653   8.504  62.428  1.00  0.00     0.000 HD 
BRANCH  21  23
HETATM   23  C1* UNL     1      -7.900   7.943  68.314  1.00  0.00    -0.120 C  
HETATM   24  O4* UNL     1      -7.541   9.235  68.838  1.00  0.00    -0.074 OA 
HETATM   25  C4* UNL     1      -6.133   9.241  69.151  1.00  0.00    -0.042 C  
HETATM   26  C3* UNL     1      -5.651   7.783  69.192  1.00  0.00    -0.029 C  
HETATM   27  H2* UNL     1      -6.738   5.490  70.096  1.00  0.00     0.000 HD 
HETATM   28  C2* UNL     1      -6.848   6.930  68.760  1.00  0.00    -0.066 C  
HETATM   29  O2* UNL     1      -7.392   6.120  69.818  1.00  0.00    -0.075 OA 
HETATM   30  O3* UNL     1      -5.203   7.407  70.501  1.00  0.00    -0.023 OA 
HETATM   31  H3* UNL     1      -4.904   6.506  70.526  1.00  0.00     0.000 HD 
BRANCH  25  32
HETATM   32  C5* UNL     1      -5.398  10.114  68.124  1.00  0.00    -0.035 C  
HETATM   33  O5* UNL     1      -5.453   9.504  66.833  1.00  0.00    -0.045 OA 
HETATM   34  H5* UNL     1      -4.998  10.044  66.198  1.00  0.00     0.000 HD 
ENDBRANCH  25  32
ENDBRANCH  21  23
ENDBRANCH   8  11
ENDBRANCH   3   6
TORSDOF 4
ENDMDL
MODEL      186
REMARK 921   NORMALIZED FREE ENERGY PREDICTED BY IDOCK:   -4.22 KCAL/MOL
REMARK 922        TOTAL FREE ENERGY PREDICTED BY IDOCK:   -5.72 KCAL/MOL
REMARK 923 INTER-LIGAND FREE ENERGY PREDICTED BY IDOCK:   -5.13 KCAL/MOL
REMARK 924 INTRA-LIGAND FREE ENERGY PREDICTED BY IDOCK:   -0.59 KCAL/MOL
REMARK 927      BINDING AFFINITY PREDICTED BY RF-SCORE:    0.00 PKD
ROOT
HETATM    1  C   UNL     1     -14.374   8.439  71.771  1.00  0.00    -0.472 C  
HETATM    2  N   UNL     1     -13.089   8.333  71.133  1.00  0.00    -0.510 N  
HETATM    3  C   UNL     1     -12.213   9.397  71.085  1.00  0.00    -0.323 C  
HETATM    4  H   UNL     1     -12.819   7.448  70.704  1.00  0.00     0.000 HD 
HETATM    5  O   UNL     1     -12.456  10.495  71.572  1.00  0.00    -0.380 OA 
ENDROOT
BRANCH   3   6
HETATM    6  C   UNL     1     -10.952   9.112  70.416  1.00  0.00    -0.290 A  
HETATM    7  C   UNL     1     -10.059   9.997  69.849  1.00  0.00    -0.246 A  
HETATM    8  N   UNL     1      -9.021   9.266  69.304  1.00  0.00    -0.142 NA 
HETATM    9  N   UNL     1      -9.197   7.930  69.510  1.00  0.00    -0.153 NA 
HETATM   10  C   UNL     1     -10.349   7.853  70.184  1.00  0.00    -0.215 A  
BRANCH   8  11
HETATM   11  C   UNL     1      -7.930   9.827  68.547  1.00  0.00    -0.089 A  
HETATM   12  N   UNL     1      -7.420   9.103  67.518  1.00  0.00    -0.088 NA 
HETATM   13  C   UNL     1      -6.582   9.833  66.761  1.00  0.00    -0.067 A  
HETATM   14  C   UNL     1      -6.189  11.143  66.972  1.00  0.00    -0.093 A  
HETATM   15  N   UNL     1      -5.354  11.580  65.970  1.00  0.00    -0.285 NA 
HETATM   16  C   UNL     1      -6.696  11.770  68.117  1.00  0.00    -0.064 A  
HETATM   17  N   UNL     1      -6.356  13.063  68.492  1.00  0.00    -0.074 NA 
HETATM   18  N   UNL     1      -7.570  11.094  68.891  1.00  0.00    -0.128 NA 
HETATM   19  C   UNL     1      -5.275  10.566  65.137  1.00  0.00    -0.134 A  
HETATM   20  H1  UNL     1      -6.726  13.519  69.326  1.00  0.00     0.000 HD 
HETATM   21  N   UNL     1      -5.963   9.467  65.595  1.00  0.00    -0.058 NA 
HETATM   22  H2  UNL     1      -6.558  13.672  67.699  1.00  0.00     0.000 HD 
BRANCH  21  23
HETATM   23  C1* UNL     1      -6.022   8.203  64.900  1.00  0.00    -0.045 C  
HETATM   24  O4* UNL     1      -6.430   8.449  63.542  1.00  0.00    -0.079 OA 
HETATM   25  C4* UNL     1      -7.791   8.004  63.372  1.00  0.00    -0.147 C  
HETATM   26  C3* UNL     1      -8.142   7.089  64.555  1.00  0.00    -0.069 C  
HETATM   27  H2* UNL     1      -6.774   5.215  65.924  1.00  0.00     0.000 HD 
HETATM   28  C2* UNL     1      -6.931   7.127  65.491  1.00  0.00    -0.056 C  
HETATM   29  O2* UNL     1      -6.209   5.884  65.556  1.00  0.00    -0.034 OA 
HETATM   30  O3* UNL     1      -8.413   5.747  64.127  1.00  0.00    -0.279 OA 
HETATM   31  H3* UNL     1      -8.630   5.182  64.859  1.00  0.00     0.000 HD 
BRANCH  25  32
HETATM   32  C5* UNL     1      -8.704   9.232  63.239  1.00  0.00    -0.176 C  
HETATM   33  O5* UNL     1      -9.398   9.461  64.468  1.00  0.00    -0.430 OA 
HETATM   34  H5* UNL     1      -9.963  10.220  64.386  1.00  0.00     0.000 HD 
ENDBRANCH  25  32
ENDBRANCH  21  23
ENDBRANCH   8  11
ENDBRANCH   3   6
TORSDOF 4
ENDMDL
MODEL      187
REMARK 921   NORMALIZED FREE ENERGY PREDICTED BY IDOCK:   -4.18 KCAL/MOL
REMARK 922        TOTAL FREE ENERGY PREDICTED BY IDOCK:   -5.66 KCAL/MOL
REMARK 923 INTER-LIGAND FREE ENERGY PREDICTED BY IDOCK:   -5.18 KCAL/MOL
REMARK 924 INTRA-LIGAND FREE ENERGY PREDICTED BY IDOCK:   -0.48 KCAL/MOL
REMARK 927      BINDING AFFINITY PREDICTED BY RF-SCORE:    0.00 PKD
ROOT
HETATM    1  C   UNL     1      -8.047   7.183  69.793  1.00  0.00    -0.129 C  
HETATM    2  N   UNL     1      -7.844   8.606  69.835  1.00  0.00    -0.089 N  
HETATM    3  C   UNL     1      -6.656   9.181  69.438  1.00  0.00    -0.044 C  
HETATM    4  H   UNL     1      -8.599   9.206  70.168  1.00  0.00     0.000 HD 
HETATM    5  O   UNL     1      -5.697   8.538  69.027  1.00  0.00    -0.038 OA 
ENDROOT
BRANCH   3   6
HETATM    6  C   UNL     1      -6.626  10.634  69.530  1.00  0.00    -0.091 A  
HETATM    7  C   UNL     1      -7.041  11.565  68.599  1.00  0.00    -0.098 A  
HETATM    8  N   UNL     1      -6.791  12.823  69.114  1.00  0.00    -0.087 NA 
HETATM    9  N   UNL     1      -6.241  12.746  70.359  1.00  0.00    -0.059 NA 
HETATM   10  C   UNL     1      -6.158  11.434  70.600  1.00  0.00     0.044 A  
BRANCH   8  11
HETATM   11  C   UNL     1      -7.007  14.058  68.403  1.00  0.00    -0.100 A  
HETATM   12  N   UNL     1      -8.009  14.109  67.489  1.00  0.00    -0.176 NA 
HETATM   13  C   UNL     1      -8.248  15.368  67.080  1.00  0.00    -0.219 A  
HETATM   14  C   UNL     1      -7.566  16.513  67.451  1.00  0.00    -0.149 A  
HETATM   15  N   UNL     1      -8.115  17.631  66.868  1.00  0.00    -0.214 NA 
HETATM   16  C   UNL     1      -6.485  16.339  68.325  1.00  0.00    -0.127 A  
HETATM   17  N   UNL     1      -5.673  17.382  68.749  1.00  0.00    -0.157 NA 
HETATM   18  N   UNL     1      -6.225  15.102  68.793  1.00  0.00    -0.085 NA 
HETATM   19  C   UNL     1      -9.144  17.179  66.187  1.00  0.00    -0.179 A  
HETATM   20  H1  UNL     1      -4.886  17.256  69.386  1.00  0.00     0.000 HD 
HETATM   21  N   UNL     1      -9.241  15.809  66.245  1.00  0.00    -0.304 NA 
HETATM   22  H2  UNL     1      -6.279  18.094  69.155  1.00  0.00     0.000 HD 
BRANCH  21  23
HETATM   23  C1* UNL     1     -10.257  15.040  65.566  1.00  0.00    -0.378 C  
HETATM   24  O4* UNL     1     -11.544  15.453  66.057  1.00  0.00    -0.102 OA 
HETATM   25  C4* UNL     1     -12.077  14.416  66.907  1.00  0.00    -0.356 C  
HETATM   26  C3* UNL     1     -11.279  13.131  66.644  1.00  0.00    -0.304 C  
HETATM   27  H2* UNL     1     -10.254  12.001  64.423  1.00  0.00     0.000 HD 
HETATM   28  C2* UNL     1     -10.163  13.519  65.670  1.00  0.00    -0.296 C  
HETATM   29  O2* UNL     1     -10.313  12.947  64.358  1.00  0.00    -0.370 OA 
HETATM   30  O3* UNL     1     -12.103  12.097  66.088  1.00  0.00    -0.621 OA 
HETATM   31  H3* UNL     1     -11.609  11.302  65.925  1.00  0.00     0.000 HD 
BRANCH  25  32
HETATM   32  C5* UNL     1     -12.031  14.893  68.366  1.00  0.00    -0.221 C  
HETATM   33  O5* UNL     1     -10.722  15.376  68.681  1.00  0.00    -0.232 OA 
HETATM   34  H5* UNL     1     -10.694  15.671  69.583  1.00  0.00     0.000 HD 
ENDBRANCH  25  32
ENDBRANCH  21  23
ENDBRANCH   8  11
ENDBRANCH   3   6
TORSDOF 4
ENDMDL
MODEL      188
REMARK 921   NORMALIZED FREE ENERGY PREDICTED BY IDOCK:   -4.14 KCAL/MOL
REMARK 922        TOTAL FREE ENERGY PREDICTED BY IDOCK:   -5.62 KCAL/MOL
REMARK 923 INTER-LIGAND FREE ENERGY PREDICTED BY IDOCK:   -5.36 KCAL/MOL
REMARK 924 INTRA-LIGAND FREE ENERGY PREDICTED BY IDOCK:   -0.26 KCAL/MOL
REMARK 927      BINDING AFFINITY PREDICTED BY RF-SCORE:    0.00 PKD
ROOT
HETATM    1  C   UNL     1      -8.017   6.867  71.515  1.00  0.00    -0.104 C  
HETATM    2  N   UNL     1      -7.706   8.245  71.245  1.00  0.00    -0.090 N  
HETATM    3  C   UNL     1      -6.434   8.646  70.896  1.00  0.00    -0.047 C  
HETATM    4  H   UNL     1      -8.445   8.944  71.313  1.00  0.00     0.000 HD 
HETATM    5  O   UNL     1      -5.486   7.876  70.792  1.00  0.00    -0.026 OA 
ENDROOT
BRANCH   3   6
HETATM    6  C   UNL     1      -6.298  10.073  70.643  1.00  0.00    -0.100 A  
HETATM    7  C   UNL     1      -6.923  10.841  69.682  1.00  0.00    -0.134 A  
HETATM    8  N   UNL     1      -6.461  12.137  69.804  1.00  0.00    -0.095 NA 
HETATM    9  N   UNL     1      -5.564  12.247  70.825  1.00  0.00    -0.249 NA 
HETATM   10  C   UNL     1      -5.484  11.009  71.324  1.00  0.00     0.018 A  
BRANCH   8  11
HETATM   11  C   UNL     1      -6.814  13.221  68.922  1.00  0.00    -0.103 A  
HETATM   12  N   UNL     1      -7.679  12.970  67.907  1.00  0.00    -0.129 NA 
HETATM   13  C   UNL     1      -8.099  14.104  67.318  1.00  0.00    -0.168 A  
HETATM   14  C   UNL     1      -7.702  15.397  67.610  1.00  0.00    -0.160 A  
HETATM   15  N   UNL     1      -8.373  16.312  66.833  1.00  0.00    -0.207 NA 
HETATM   16  C   UNL     1      -6.731  15.540  68.609  1.00  0.00    -0.107 A  
HETATM   17  N   UNL     1      -6.195  16.766  68.981  1.00  0.00    -0.168 NA 
HETATM   18  N   UNL     1      -6.302  14.438  69.257  1.00  0.00    -0.108 NA 
HETATM   19  C   UNL     1      -9.200  15.590  66.109  1.00  0.00    -0.344 A  
HETATM   20  H1  UNL     1      -5.488  16.870  69.708  1.00  0.00     0.000 HD 
HETATM   21  N   UNL     1      -9.040  14.243  66.331  1.00  0.00    -0.197 NA 
HETATM   22  H2  UNL     1      -6.974  17.377  69.225  1.00  0.00     0.000 HD 
BRANCH  21  23
HETATM   23  C1* UNL     1      -9.794  13.216  65.651  1.00  0.00    -0.160 C  
HETATM   24  O4* UNL     1     -10.056  13.659  64.308  1.00  0.00    -0.313 OA 
HETATM   25  C4* UNL     1     -11.450  14.015  64.194  1.00  0.00    -0.209 C  
HETATM   26  C3* UNL     1     -12.191  13.415  65.398  1.00  0.00    -0.452 C  
HETATM   27  H2* UNL     1     -11.990  11.084  66.732  1.00  0.00     0.000 HD 
HETATM   28  C2* UNL     1     -11.114  12.788  66.288  1.00  0.00    -0.288 C  
HETATM   29  O2* UNL     1     -11.169  11.350  66.337  1.00  0.00    -0.283 OA 
HETATM   30  O3* UNL     1     -13.155  12.433  64.994  1.00  0.00    -0.678 OA 
HETATM   31  H3* UNL     1     -13.614  12.063  65.739  1.00  0.00     0.000 HD 
BRANCH  25  32
HETATM   32  C5* UNL     1     -11.567  15.542  64.085  1.00  0.00    -0.078 C  
HETATM   33  O5* UNL     1     -12.942  15.922  63.990  1.00  0.00    -0.379 OA 
HETATM   34  H5* UNL     1     -13.014  16.867  63.923  1.00  0.00     0.000 HD 
ENDBRANCH  25  32
ENDBRANCH  21  23
ENDBRANCH   8  11
ENDBRANCH   3   6
TORSDOF 4
ENDMDL
MODEL      189
REMARK 921   NORMALIZED FREE ENERGY PREDICTED BY IDOCK:   -4.09 KCAL/MOL
REMARK 922        TOTAL FREE ENERGY PREDICTED BY IDOCK:   -5.56 KCAL/MOL
REMARK 923 INTER-LIGAND FREE ENERGY PREDICTED BY IDOCK:   -4.67 KCAL/MOL
REMARK 924 INTRA-LIGAND FREE ENERGY PREDICTED BY IDOCK:   -0.88 KCAL/MOL
REMARK 927      BINDING AFFINITY PREDICTED BY RF-SCORE:    0.00 PKD
ROOT
HETATM    1  C   UNL     1      -9.844  13.688  66.929  1.00  0.00    -0.261 C  
HETATM    2  N   UNL     1      -9.528  12.373  67.417  1.00  0.00    -0.182 N  
HETATM    3  C   UNL     1     -10.507  11.427  67.639  1.00  0.00    -0.194 C  
HETATM    4  H   UNL     1      -8.555  12.133  67.604  1.00  0.00     0.000 HD 
HETATM    5  O   UNL     1     -11.699  11.629  67.443  1.00  0.00    -0.556 OA 
ENDROOT
BRANCH   3   6
HETATM    6  C   UNL     1     -10.010  10.145  68.118  1.00  0.00    -0.170 A  
HETATM    7  C   UNL     1     -10.665   9.197  68.877  1.00  0.00    -0.141 A  
HETATM    8  N   UNL     1      -9.786   8.158  69.113  1.00  0.00    -0.161 NA 
HETATM    9  N   UNL     1      -8.580   8.387  68.519  1.00  0.00    -0.135 NA 
HETATM   10  C   UNL     1      -8.731   9.572  67.920  1.00  0.00    -0.119 A  
BRANCH   8  11
HETATM   11  C   UNL     1     -10.070   7.014  69.944  1.00  0.00    -0.193 A  
HETATM   12  N   UNL     1      -9.638   5.795  69.531  1.00  0.00    -0.137 NA 
HETATM   13  C   UNL     1      -9.761   4.869  70.499  1.00  0.00    -0.204 A  
HETATM   14  C   UNL     1     -10.304   5.041  71.759  1.00  0.00    -0.200 A  
HETATM   15  N   UNL     1     -10.225   3.884  72.498  1.00  0.00    -0.168 NA 
HETATM   16  C   UNL     1     -10.811   6.314  72.051  1.00  0.00    -0.245 A  
HETATM   17  N   UNL     1     -11.431   6.630  73.253  1.00  0.00    -0.428 NA 
HETATM   18  N   UNL     1     -10.680   7.289  71.129  1.00  0.00    -0.227 NA 
HETATM   19  C   UNL     1      -9.602   3.031  71.715  1.00  0.00    -0.154 A  
HETATM   20  H1  UNL     1     -11.800   7.557  73.465  1.00  0.00     0.000 HD 
HETATM   21  N   UNL     1      -9.341   3.565  70.475  1.00  0.00    -0.145 NA 
HETATM   22  H2  UNL     1     -10.785   6.382  74.002  1.00  0.00     0.000 HD 
BRANCH  21  23
HETATM   23  C1* UNL     1      -8.695   2.843  69.404  1.00  0.00    -0.078 C  
HETATM   24  O4* UNL     1      -7.271   2.931  69.590  1.00  0.00    -0.043 OA 
HETATM   25  C4* UNL     1      -6.723   3.830  68.604  1.00  0.00    -0.046 C  
HETATM   26  C3* UNL     1      -7.777   4.026  67.504  1.00  0.00    -0.075 C  
HETATM   27  H2* UNL     1      -9.539   2.380  66.303  1.00  0.00     0.000 HD 
HETATM   28  C2* UNL     1      -9.026   3.276  67.977  1.00  0.00    -0.147 C  
HETATM   29  O2* UNL     1      -9.334   2.111  67.191  1.00  0.00    -0.105 OA 
HETATM   30  O3* UNL     1      -7.327   3.521  66.240  1.00  0.00    -0.073 OA 
HETATM   31  H3* UNL     1      -7.979   3.643  65.560  1.00  0.00     0.000 HD 
BRANCH  25  32
HETATM   32  C5* UNL     1      -6.295   5.131  69.298  1.00  0.00    -0.034 C  
HETATM   33  O5* UNL     1      -6.544   6.248  68.442  1.00  0.00    -0.053 OA 
HETATM   34  H5* UNL     1      -6.279   7.053  68.872  1.00  0.00     0.000 HD 
ENDBRANCH  25  32
ENDBRANCH  21  23
ENDBRANCH   8  11
ENDBRANCH   3   6
TORSDOF 4
ENDMDL
MODEL      190
REMARK 921   NORMALIZED FREE ENERGY PREDICTED BY IDOCK:   -4.07 KCAL/MOL
REMARK 922        TOTAL FREE ENERGY PREDICTED BY IDOCK:   -5.53 KCAL/MOL
REMARK 923 INTER-LIGAND FREE ENERGY PREDICTED BY IDOCK:   -4.98 KCAL/MOL
REMARK 924 INTRA-LIGAND FREE ENERGY PREDICTED BY IDOCK:   -0.55 KCAL/MOL
REMARK 927      BINDING AFFINITY PREDICTED BY RF-SCORE:    0.00 PKD
ROOT
HETATM    1  C   UNL     1     -10.226  15.980  66.162  1.00  0.00    -0.324 C  
HETATM    2  N   UNL     1     -10.105  14.569  66.412  1.00  0.00    -0.274 N  
HETATM    3  C   UNL     1     -10.503  13.631  65.483  1.00  0.00    -0.306 C  
HETATM    4  H   UNL     1      -9.715  14.254  67.300  1.00  0.00     0.000 HD 
HETATM    5  O   UNL     1     -10.983  13.920  64.393  1.00  0.00    -0.382 OA 
ENDROOT
BRANCH   3   6
HETATM    6  C   UNL     1     -10.295  12.249  65.893  1.00  0.00    -0.280 A  
HETATM    7  C   UNL     1      -9.302  11.375  65.502  1.00  0.00    -0.208 A  
HETATM    8  N   UNL     1      -9.529  10.164  66.127  1.00  0.00    -0.177 NA 
HETATM    9  N   UNL     1     -10.631  10.221  66.928  1.00  0.00    -0.238 NA 
HETATM   10  C   UNL     1     -11.073  11.475  66.787  1.00  0.00    -0.302 A  
BRANCH   8  11
HETATM   11  C   UNL     1      -8.755   8.968  65.908  1.00  0.00    -0.166 A  
HETATM   12  N   UNL     1      -8.526   8.146  66.963  1.00  0.00    -0.118 NA 
HETATM   13  C   UNL     1      -8.003   6.969  66.574  1.00  0.00    -0.108 A  
HETATM   14  C   UNL     1      -7.657   6.590  65.289  1.00  0.00    -0.088 A  
HETATM   15  N   UNL     1      -7.191   5.297  65.260  1.00  0.00    -0.066 NA 
HETATM   16  C   UNL     1      -7.843   7.548  64.285  1.00  0.00    -0.133 A  
HETATM   17  N   UNL     1      -7.498   7.337  62.957  1.00  0.00    -0.088 NA 
HETATM   18  N   UNL     1      -8.398   8.732  64.615  1.00  0.00    -0.165 NA 
HETATM   19  C   UNL     1      -7.292   4.878  66.503  1.00  0.00    -0.082 A  
HETATM   20  H1  UNL     1      -7.633   8.035  62.225  1.00  0.00     0.000 HD 
HETATM   21  N   UNL     1      -7.735   5.869  67.346  1.00  0.00    -0.096 NA 
HETATM   22  H2  UNL     1      -7.967   6.484  62.652  1.00  0.00     0.000 HD 
BRANCH  21  23
HETATM   23  C1* UNL     1      -7.911   5.701  68.770  1.00  0.00    -0.096 C  
HETATM   24  O4* UNL     1      -7.775   4.303  69.082  1.00  0.00    -0.055 OA 
HETATM   25  C4* UNL     1      -9.076   3.763  69.393  1.00  0.00    -0.132 C  
HETATM   26  C3* UNL     1     -10.025   4.939  69.665  1.00  0.00    -0.231 C  
HETATM   27  H2* UNL     1      -9.740   7.306  70.919  1.00  0.00     0.000 HD 
HETATM   28  C2* UNL     1      -9.219   6.208  69.372  1.00  0.00    -0.133 C  
HETATM   29  O2* UNL     1      -8.926   6.991  70.544  1.00  0.00    -0.153 OA 
HETATM   30  O3* UNL     1     -10.500   4.938  71.018  1.00  0.00    -0.189 OA 
HETATM   31  H3* UNL     1     -11.088   5.665  71.185  1.00  0.00     0.000 HD 
BRANCH  25  32
HETATM   32  C5* UNL     1      -9.524   2.850  68.242  1.00  0.00    -0.155 C  
HETATM   33  O5* UNL     1     -10.079   3.635  67.183  1.00  0.00    -0.230 OA 
HETATM   34  H5* UNL     1     -10.356   3.070  66.471  1.00  0.00     0.000 HD 
ENDBRANCH  25  32
ENDBRANCH  21  23
ENDBRANCH   8  11
ENDBRANCH   3   6
TORSDOF 4
ENDMDL
MODEL      191
REMARK 921   NORMALIZED FREE ENERGY PREDICTED BY IDOCK:   -4.05 KCAL/MOL
REMARK 922        TOTAL FREE ENERGY PREDICTED BY IDOCK:   -5.50 KCAL/MOL
REMARK 923 INTER-LIGAND FREE ENERGY PREDICTED BY IDOCK:   -4.46 KCAL/MOL
REMARK 924 INTRA-LIGAND FREE ENERGY PREDICTED BY IDOCK:   -1.05 KCAL/MOL
REMARK 927      BINDING AFFINITY PREDICTED BY RF-SCORE:    0.00 PKD
ROOT
HETATM    1  C   UNL     1     -13.722   9.645  71.479  1.00  0.00    -0.235 C  
HETATM    2  N   UNL     1     -12.477   9.583  70.762  1.00  0.00    -0.482 N  
HETATM    3  C   UNL     1     -11.384   8.910  71.264  1.00  0.00    -0.300 C  
HETATM    4  H   UNL     1     -12.401  10.049  69.858  1.00  0.00     0.000 HD 
HETATM    5  O   UNL     1     -11.386   8.324  72.340  1.00  0.00    -0.347 OA 
ENDROOT
BRANCH   3   6
HETATM    6  C   UNL     1     -10.211   8.934  70.402  1.00  0.00    -0.236 A  
HETATM    7  C   UNL     1     -10.127   8.656  69.053  1.00  0.00    -0.199 A  
HETATM    8  N   UNL     1      -8.804   8.779  68.674  1.00  0.00    -0.137 NA 
HETATM    9  N   UNL     1      -8.020   9.145  69.727  1.00  0.00    -0.089 NA 
HETATM   10  C   UNL     1      -8.875   9.244  70.751  1.00  0.00    -0.225 A  
BRANCH   8  11
HETATM   11  C   UNL     1      -8.297   8.486  67.357  1.00  0.00    -0.120 A  
HETATM   12  N   UNL     1      -8.533   7.255  66.835  1.00  0.00    -0.117 NA 
HETATM   13  C   UNL     1      -8.216   7.198  65.529  1.00  0.00    -0.139 A  
HETATM   14  C   UNL     1      -7.660   8.202  64.757  1.00  0.00    -0.101 A  
HETATM   15  N   UNL     1      -7.512   7.801  63.450  1.00  0.00    -0.107 NA 
HETATM   16  C   UNL     1      -7.364   9.402  65.415  1.00  0.00    -0.096 A  
HETATM   17  N   UNL     1      -6.758  10.485  64.790  1.00  0.00    -0.338 NA 
HETATM   18  N   UNL     1      -7.695   9.525  66.717  1.00  0.00    -0.098 NA 
HETATM   19  C   UNL     1      -8.012   6.586  63.416  1.00  0.00    -0.077 A  
HETATM   20  H1  UNL     1      -6.543  11.359  65.269  1.00  0.00     0.000 HD 
HETATM   21  N   UNL     1      -8.410   6.156  64.660  1.00  0.00    -0.092 NA 
HETATM   22  H2  UNL     1      -7.321  10.718  63.973  1.00  0.00     0.000 HD 
BRANCH  21  23
HETATM   23  C1* UNL     1      -8.967   4.851  64.924  1.00  0.00    -0.138 C  
HETATM   24  O4* UNL     1      -7.976   4.062  65.606  1.00  0.00    -0.092 OA 
HETATM   25  C4* UNL     1      -7.455   3.072  64.696  1.00  0.00    -0.075 C  
HETATM   26  C3* UNL     1      -8.420   2.970  63.505  1.00  0.00    -0.086 C  
HETATM   27  H2* UNL     1     -11.103   3.046  63.274  1.00  0.00     0.000 HD 
HETATM   28  C2* UNL     1      -9.476   4.057  63.723  1.00  0.00    -0.155 C  
HETATM   29  O2* UNL     1     -10.786   3.540  64.021  1.00  0.00    -0.259 OA 
HETATM   30  O3* UNL     1      -9.030   1.675  63.423  1.00  0.00    -0.085 OA 
HETATM   31  H3* UNL     1      -9.626   1.612  62.686  1.00  0.00     0.000 HD 
BRANCH  25  32
HETATM   32  C5* UNL     1      -6.020   3.457  64.307  1.00  0.00    -0.018 C  
HETATM   33  O5* UNL     1      -5.607   4.611  65.043  1.00  0.00    -0.013 OA 
HETATM   34  H5* UNL     1      -4.719   4.850  64.802  1.00  0.00     0.000 HD 
ENDBRANCH  25  32
ENDBRANCH  21  23
ENDBRANCH   8  11
ENDBRANCH   3   6
TORSDOF 4
ENDMDL
MODEL      192
REMARK 921   NORMALIZED FREE ENERGY PREDICTED BY IDOCK:   -4.03 KCAL/MOL
REMARK 922        TOTAL FREE ENERGY PREDICTED BY IDOCK:   -5.49 KCAL/MOL
REMARK 923 INTER-LIGAND FREE ENERGY PREDICTED BY IDOCK:   -4.60 KCAL/MOL
REMARK 924 INTRA-LIGAND FREE ENERGY PREDICTED BY IDOCK:   -0.88 KCAL/MOL
REMARK 927      BINDING AFFINITY PREDICTED BY RF-SCORE:    0.00 PKD
ROOT
HETATM    1  C   UNL     1     -12.034  15.930  64.146  1.00  0.00     0.095 C  
HETATM    2  N   UNL     1     -11.599  14.615  64.533  1.00  0.00    -0.572 N  
HETATM    3  C   UNL     1     -10.471  14.421  65.301  1.00  0.00    -0.390 C  
HETATM    4  H   UNL     1     -12.139  13.804  64.231  1.00  0.00     0.000 HD 
HETATM    5  O   UNL     1      -9.763  15.335  65.706  1.00  0.00    -0.327 OA 
ENDROOT
BRANCH   3   6
HETATM    6  C   UNL     1     -10.184  13.028  65.614  1.00  0.00    -0.296 A  
HETATM    7  C   UNL     1      -9.585  12.503  66.740  1.00  0.00    -0.231 A  
HETATM    8  N   UNL     1      -9.497  11.134  66.578  1.00  0.00    -0.188 NA 
HETATM    9  N   UNL     1     -10.033  10.742  65.388  1.00  0.00    -0.254 NA 
HETATM   10  C   UNL     1     -10.450  11.882  64.827  1.00  0.00    -0.289 A  
BRANCH   8  11
HETATM   11  C   UNL     1      -8.852  10.238  67.505  1.00  0.00    -0.128 A  
HETATM   12  N   UNL     1      -8.672   8.945  67.132  1.00  0.00    -0.119 NA 
HETATM   13  C   UNL     1      -7.860   8.290  67.980  1.00  0.00    -0.118 A  
HETATM   14  C   UNL     1      -7.288   8.781  69.141  1.00  0.00    -0.072 A  
HETATM   15  N   UNL     1      -6.479   7.840  69.734  1.00  0.00    -0.034 NA 
HETATM   16  C   UNL     1      -7.616  10.097  69.489  1.00  0.00    -0.139 A  
HETATM   17  N   UNL     1      -7.163  10.714  70.647  1.00  0.00    -0.337 NA 
HETATM   18  N   UNL     1      -8.398  10.811  68.653  1.00  0.00    -0.134 NA 
HETATM   19  C   UNL     1      -6.521   6.806  68.923  1.00  0.00    -0.036 A  
HETATM   20  H1  UNL     1      -7.401  11.673  70.900  1.00  0.00     0.000 HD 
HETATM   21  N   UNL     1      -7.381   7.010  67.870  1.00  0.00    -0.094 NA 
HETATM   22  H2  UNL     1      -6.146  10.644  70.651  1.00  0.00     0.000 HD 
BRANCH  21  23
HETATM   23  C1* UNL     1      -7.648   6.032  66.842  1.00  0.00    -0.096 C  
HETATM   24  O4* UNL     1      -8.979   5.521  67.035  1.00  0.00    -0.114 OA 
HETATM   25  C4* UNL     1      -8.895   4.176  67.552  1.00  0.00    -0.113 C  
HETATM   26  C3* UNL     1      -7.464   3.668  67.319  1.00  0.00    -0.071 C  
HETATM   27  H2* UNL     1      -5.700   3.941  65.301  1.00  0.00     0.000 HD 
HETATM   28  C2* UNL     1      -6.684   4.852  66.740  1.00  0.00    -0.054 C  
HETATM   29  O2* UNL     1      -6.299   4.675  65.365  1.00  0.00    -0.033 OA 
HETATM   30  O3* UNL     1      -7.437   2.551  66.419  1.00  0.00    -0.068 OA 
HETATM   31  H3* UNL     1      -6.552   2.236  66.276  1.00  0.00     0.000 HD 
BRANCH  25  32
HETATM   32  C5* UNL     1      -9.324   4.181  69.026  1.00  0.00    -0.165 C  
HETATM   33  O5* UNL     1     -10.357   5.148  69.232  1.00  0.00    -0.226 OA 
HETATM   34  H5* UNL     1     -10.623   5.151  70.144  1.00  0.00     0.000 HD 
ENDBRANCH  25  32
ENDBRANCH  21  23
ENDBRANCH   8  11
ENDBRANCH   3   6
TORSDOF 4
ENDMDL
MODEL      193
REMARK 921   NORMALIZED FREE ENERGY PREDICTED BY IDOCK:   -4.00 KCAL/MOL
REMARK 922        TOTAL FREE ENERGY PREDICTED BY IDOCK:   -5.44 KCAL/MOL
REMARK 923 INTER-LIGAND FREE ENERGY PREDICTED BY IDOCK:   -5.22 KCAL/MOL
REMARK 924 INTRA-LIGAND FREE ENERGY PREDICTED BY IDOCK:   -0.22 KCAL/MOL
REMARK 927      BINDING AFFINITY PREDICTED BY RF-SCORE:    0.00 PKD
ROOT
HETATM    1  C   UNL     1      -9.456   4.387  68.499  1.00  0.00    -0.156 C  
HETATM    2  N   UNL     1     -10.080   5.668  68.693  1.00  0.00    -0.168 N  
HETATM    3  C   UNL     1      -9.456   6.681  69.390  1.00  0.00    -0.146 C  
HETATM    4  H   UNL     1     -11.009   5.832  68.304  1.00  0.00     0.000 HD 
HETATM    5  O   UNL     1      -8.344   6.571  69.892  1.00  0.00    -0.127 OA 
ENDROOT
BRANCH   3   6
HETATM    6  C   UNL     1     -10.223   7.916  69.478  1.00  0.00    -0.208 A  
HETATM    7  C   UNL     1      -9.905   9.164  68.984  1.00  0.00    -0.174 A  
HETATM    8  N   UNL     1     -10.919  10.033  69.335  1.00  0.00    -0.238 NA 
HETATM    9  N   UNL     1     -11.901   9.391  70.030  1.00  0.00     0.044 NA 
HETATM   10  C   UNL     1     -11.477   8.125  70.099  1.00  0.00     0.006 A  
BRANCH   8  11
HETATM   11  C   UNL     1     -10.913  11.451  69.075  1.00  0.00    -0.236 A  
HETATM   12  N   UNL     1     -10.577  11.876  67.830  1.00  0.00    -0.195 NA 
HETATM   13  C   UNL     1     -10.839  13.185  67.662  1.00  0.00    -0.254 A  
HETATM   14  C   UNL     1     -11.331  14.068  68.607  1.00  0.00    -0.276 A  
HETATM   15  N   UNL     1     -11.515  15.321  68.068  1.00  0.00    -0.345 NA 
HETATM   16  C   UNL     1     -11.552  13.551  69.889  1.00  0.00    -0.201 A  
HETATM   17  N   UNL     1     -11.995  14.322  70.956  1.00  0.00    -0.426 NA 
HETATM   18  N   UNL     1     -11.340  12.236  70.102  1.00  0.00     0.058 NA 
HETATM   19  C   UNL     1     -11.182  15.191  66.803  1.00  0.00    -0.285 A  
HETATM   20  H1  UNL     1     -12.157  13.945  71.889  1.00  0.00     0.000 HD 
HETATM   21  N   UNL     1     -10.721  13.928  66.517  1.00  0.00    -0.277 NA 
HETATM   22  H2  UNL     1     -12.857  14.781  70.661  1.00  0.00     0.000 HD 
BRANCH  21  23
HETATM   23  C1* UNL     1     -10.258  13.512  65.214  1.00  0.00    -0.306 C  
HETATM   24  O4* UNL     1     -11.107  14.109  64.218  1.00  0.00    -0.296 OA 
HETATM   25  C4* UNL     1     -11.959  13.090  63.655  1.00  0.00    -0.539 C  
HETATM   26  C3* UNL     1     -11.371  11.721  64.029  1.00  0.00    -0.381 C  
HETATM   27  H2* UNL     1      -8.859  10.762  64.203  1.00  0.00     0.000 HD 
HETATM   28  C2* UNL     1     -10.183  12.010  64.952  1.00  0.00    -0.270 C  
HETATM   29  O2* UNL     1      -8.906  11.696  64.367  1.00  0.00     0.273 OA 
HETATM   30  O3* UNL     1     -10.950  10.989  62.870  1.00  0.00    -0.793 OA 
HETATM   31  H3* UNL     1     -10.587  10.142  63.101  1.00  0.00     0.000 HD 
BRANCH  25  32
HETATM   32  C5* UNL     1     -13.395  13.310  64.153  1.00  0.00     1.354 C  
HETATM   33  O5* UNL     1     -13.397  14.225  65.252  1.00  0.00    -0.660 OA 
HETATM   34  H5* UNL     1     -14.285  14.361  65.560  1.00  0.00     0.000 HD 
ENDBRANCH  25  32
ENDBRANCH  21  23
ENDBRANCH   8  11
ENDBRANCH   3   6
TORSDOF 4
ENDMDL
MODEL      194
REMARK 921   NORMALIZED FREE ENERGY PREDICTED BY IDOCK:   -3.99 KCAL/MOL
REMARK 922        TOTAL FREE ENERGY PREDICTED BY IDOCK:   -5.44 KCAL/MOL
REMARK 923 INTER-LIGAND FREE ENERGY PREDICTED BY IDOCK:   -5.06 KCAL/MOL
REMARK 924 INTRA-LIGAND FREE ENERGY PREDICTED BY IDOCK:   -0.38 KCAL/MOL
REMARK 927      BINDING AFFINITY PREDICTED BY RF-SCORE:    0.00 PKD
ROOT
HETATM    1  C   UNL     1      -9.022   2.230  70.912  1.00  0.00    -0.079 C  
HETATM    2  N   UNL     1      -9.095   3.257  69.907  1.00  0.00    -0.113 N  
HETATM    3  C   UNL     1      -9.277   2.955  68.574  1.00  0.00    -0.181 C  
HETATM    4  H   UNL     1      -9.009   4.233  70.188  1.00  0.00     0.000 HD 
HETATM    5  O   UNL     1      -9.388   1.812  68.148  1.00  0.00    -0.167 OA 
ENDROOT
BRANCH   3   6
HETATM    6  C   UNL     1      -9.343   4.115  67.696  1.00  0.00    -0.208 A  
HETATM    7  C   UNL     1      -8.636   5.297  67.775  1.00  0.00    -0.104 A  
HETATM    8  N   UNL     1      -9.054   6.114  66.743  1.00  0.00    -0.129 NA 
HETATM    9  N   UNL     1     -10.001   5.500  65.979  1.00  0.00    -0.086 NA 
HETATM   10  C   UNL     1     -10.157   4.302  66.554  1.00  0.00    -0.129 A  
BRANCH   8  11
HETATM   11  C   UNL     1      -8.610   7.471  66.538  1.00  0.00    -0.132 A  
HETATM   12  N   UNL     1      -9.484   8.479  66.786  1.00  0.00    -0.178 NA 
HETATM   13  C   UNL     1      -8.876   9.679  66.783  1.00  0.00    -0.135 A  
HETATM   14  C   UNL     1      -7.545   9.942  66.511  1.00  0.00    -0.103 A  
HETATM   15  N   UNL     1      -7.266  11.282  66.643  1.00  0.00    -0.141 NA 
HETATM   16  C   UNL     1      -6.748   8.842  66.170  1.00  0.00    -0.073 A  
HETATM   17  N   UNL     1      -5.408   8.950  65.823  1.00  0.00    -0.040 NA 
HETATM   18  N   UNL     1      -7.301   7.612  66.194  1.00  0.00    -0.077 NA 
HETATM   19  C   UNL     1      -8.399  11.822  67.033  1.00  0.00    -0.172 A  
HETATM   20  H1  UNL     1      -4.828   8.148  65.575  1.00  0.00     0.000 HD 
HETATM   21  N   UNL     1      -9.418  10.900  67.088  1.00  0.00    -0.160 NA 
HETATM   22  H2  UNL     1      -4.936   9.442  66.580  1.00  0.00     0.000 HD 
BRANCH  21  23
HETATM   23  C1* UNL     1     -10.778  11.217  67.456  1.00  0.00    -0.232 C  
HETATM   24  O4* UNL     1     -11.333  12.077  66.445  1.00  0.00    -0.325 OA 
HETATM   25  C4* UNL     1     -11.438  13.416  66.972  1.00  0.00    -0.337 C  
HETATM   26  C3* UNL     1     -11.305  13.335  68.500  1.00  0.00    -0.284 C  
HETATM   27  H2* UNL     1     -12.194  11.593  70.353  1.00  0.00     0.000 HD 
HETATM   28  C2* UNL     1     -10.993  11.870  68.820  1.00  0.00    -0.235 C  
HETATM   29  O2* UNL     1     -12.059  11.187  69.505  1.00  0.00    -0.322 OA 
HETATM   30  O3* UNL     1     -12.506  13.757  69.161  1.00  0.00    -0.366 OA 
HETATM   31  H3* UNL     1     -12.423  13.707  70.106  1.00  0.00     0.000 HD 
BRANCH  25  32
HETATM   32  C5* UNL     1     -10.379  14.301  66.299  1.00  0.00    -0.294 C  
HETATM   33  O5* UNL     1     -10.223  15.520  67.029  1.00  0.00    -0.260 OA 
HETATM   34  H5* UNL     1      -9.568  16.067  66.613  1.00  0.00     0.000 HD 
ENDBRANCH  25  32
ENDBRANCH  21  23
ENDBRANCH   8  11
ENDBRANCH   3   6
TORSDOF 4
ENDMDL
MODEL      195
REMARK 921   NORMALIZED FREE ENERGY PREDICTED BY IDOCK:   -3.98 KCAL/MOL
REMARK 922        TOTAL FREE ENERGY PREDICTED BY IDOCK:   -5.42 KCAL/MOL
REMARK 923 INTER-LIGAND FREE ENERGY PREDICTED BY IDOCK:   -4.88 KCAL/MOL
REMARK 924 INTRA-LIGAND FREE ENERGY PREDICTED BY IDOCK:   -0.55 KCAL/MOL
REMARK 927      BINDING AFFINITY PREDICTED BY RF-SCORE:    0.00 PKD
ROOT
HETATM    1  C   UNL     1     -12.500  15.677  63.822  1.00  0.00     0.749 C  
HETATM    2  N   UNL     1     -12.102  14.578  64.659  1.00  0.00    -0.459 N  
HETATM    3  C   UNL     1     -10.927  14.603  65.380  1.00  0.00    -0.353 C  
HETATM    4  H   UNL     1     -12.705  13.758  64.722  1.00  0.00     0.000 HD 
HETATM    5  O   UNL     1     -10.143  15.545  65.363  1.00  0.00    -0.356 OA 
ENDROOT
BRANCH   3   6
HETATM    6  C   UNL     1     -10.687  13.415  66.187  1.00  0.00    -0.288 A  
HETATM    7  C   UNL     1      -9.553  13.068  66.893  1.00  0.00    -0.243 A  
HETATM    8  N   UNL     1      -9.777  11.838  67.481  1.00  0.00    -0.178 NA 
HETATM    9  N   UNL     1     -11.026  11.374  67.195  1.00  0.00    -0.271 NA 
HETATM   10  C   UNL     1     -11.563  12.330  66.430  1.00  0.00    -0.383 A  
BRANCH   8  11
HETATM   11  C   UNL     1      -8.795  11.098  68.234  1.00  0.00    -0.155 A  
HETATM   12  N   UNL     1      -9.204  10.428  69.342  1.00  0.00    -0.190 NA 
HETATM   13  C   UNL     1      -8.250   9.601  69.805  1.00  0.00    -0.161 A  
HETATM   14  C   UNL     1      -6.969   9.439  69.308  1.00  0.00    -0.053 A  
HETATM   15  N   UNL     1      -6.283   8.473  70.007  1.00  0.00    -0.034 NA 
HETATM   16  C   UNL     1      -6.614  10.248  68.222  1.00  0.00    -0.057 A  
HETATM   17  N   UNL     1      -5.351  10.239  67.645  1.00  0.00    -0.037 NA 
HETATM   18  N   UNL     1      -7.545  11.070  67.696  1.00  0.00    -0.101 NA 
HETATM   19  C   UNL     1      -7.148   8.022  70.888  1.00  0.00    -0.049 A  
HETATM   20  H1  UNL     1      -5.092  10.828  66.855  1.00  0.00     0.000 HD 
HETATM   21  N   UNL     1      -8.341   8.705  70.837  1.00  0.00    -0.140 NA 
HETATM   22  H2  UNL     1      -5.143   9.275  67.386  1.00  0.00     0.000 HD 
BRANCH  21  23
HETATM   23  C1* UNL     1      -9.460   8.442  71.710  1.00  0.00    -0.233 C  
HETATM   24  O4* UNL     1      -9.329   7.107  72.229  1.00  0.00    -0.139 OA 
HETATM   25  C4* UNL     1     -10.306   6.257  71.593  1.00  0.00    -0.212 C  
HETATM   26  C3* UNL     1     -11.355   7.159  70.925  1.00  0.00    -0.286 C  
HETATM   27  H2* UNL     1     -12.538   9.473  71.633  1.00  0.00     0.000 HD 
HETATM   28  C2* UNL     1     -10.857   8.595  71.112  1.00  0.00    -0.259 C  
HETATM   29  O2* UNL     1     -11.669   9.378  72.005  1.00  0.00    -0.355 OA 
HETATM   30  O3* UNL     1     -12.653   6.989  71.511  1.00  0.00    -0.358 OA 
HETATM   31  H3* UNL     1     -13.301   7.547  71.098  1.00  0.00     0.000 HD 
BRANCH  25  32
HETATM   32  C5* UNL     1      -9.586   5.310  70.621  1.00  0.00    -0.176 C  
HETATM   33  O5* UNL     1      -8.496   4.666  71.284  1.00  0.00    -0.101 OA 
HETATM   34  H5* UNL     1      -8.051   4.080  70.683  1.00  0.00     0.000 HD 
ENDBRANCH  25  32
ENDBRANCH  21  23
ENDBRANCH   8  11
ENDBRANCH   3   6
TORSDOF 4
ENDMDL
MODEL      196
REMARK 921   NORMALIZED FREE ENERGY PREDICTED BY IDOCK:   -3.88 KCAL/MOL
REMARK 922        TOTAL FREE ENERGY PREDICTED BY IDOCK:   -5.29 KCAL/MOL
REMARK 923 INTER-LIGAND FREE ENERGY PREDICTED BY IDOCK:   -4.63 KCAL/MOL
REMARK 924 INTRA-LIGAND FREE ENERGY PREDICTED BY IDOCK:   -0.66 KCAL/MOL
REMARK 927      BINDING AFFINITY PREDICTED BY RF-SCORE:    0.00 PKD
ROOT
HETATM    1  C   UNL     1     -13.174  15.468  72.209  1.00  0.00    -0.448 C  
HETATM    2  N   UNL     1     -12.885  14.228  71.541  1.00  0.00    -0.327 N  
HETATM    3  C   UNL     1     -12.223  14.193  70.332  1.00  0.00    -0.356 C  
HETATM    4  H   UNL     1     -13.176  13.351  71.973  1.00  0.00     0.000 HD 
HETATM    5  O   UNL     1     -11.839  15.195  69.742  1.00  0.00    -0.294 OA 
ENDROOT
BRANCH   3   6
HETATM    6  C   UNL     1     -11.999  12.854  69.804  1.00  0.00    -0.365 A  
HETATM    7  C   UNL     1     -10.969  12.406  69.003  1.00  0.00    -0.197 A  
HETATM    8  N   UNL     1     -11.192  11.070  68.730  1.00  0.00    -0.242 NA 
HETATM    9  N   UNL     1     -12.326  10.624  69.341  1.00  0.00    -0.270 NA 
HETATM   10  C   UNL     1     -12.793  11.697  69.987  1.00  0.00     0.298 A  
BRANCH   8  11
HETATM   11  C   UNL     1     -10.379  10.265  67.853  1.00  0.00    -0.196 A  
HETATM   12  N   UNL     1      -9.663   9.246  68.392  1.00  0.00    -0.151 NA 
HETATM   13  C   UNL     1      -9.146   8.443  67.445  1.00  0.00    -0.137 A  
HETATM   14  C   UNL     1      -9.237   8.600  66.073  1.00  0.00    -0.216 A  
HETATM   15  N   UNL     1      -8.624   7.561  65.412  1.00  0.00    -0.098 NA 
HETATM   16  C   UNL     1      -9.915   9.738  65.619  1.00  0.00    -0.282 A  
HETATM   17  N   UNL     1     -10.047  10.061  64.275  1.00  0.00    -0.443 NA 
HETATM   18  N   UNL     1     -10.483  10.557  66.527  1.00  0.00    -0.234 NA 
HETATM   19  C   UNL     1      -8.205   6.760  66.366  1.00  0.00    -0.117 A  
HETATM   20  H1  UNL     1     -10.541  10.889  63.945  1.00  0.00     0.000 HD 
HETATM   21  N   UNL     1      -8.455   7.272  67.617  1.00  0.00    -0.117 NA 
HETATM   22  H2  UNL     1     -10.462   9.255  63.808  1.00  0.00     0.000 HD 
BRANCH  21  23
HETATM   23  C1* UNL     1      -8.076   6.620  68.848  1.00  0.00    -0.116 C  
HETATM   24  O4* UNL     1      -7.646   7.626  69.782  1.00  0.00    -0.088 OA 
HETATM   25  C4* UNL     1      -6.212   7.555  69.922  1.00  0.00    -0.027 C  
HETATM   26  C3* UNL     1      -5.747   6.207  69.353  1.00  0.00    -0.016 C  
HETATM   27  H2* UNL     1      -6.757   3.710  69.427  1.00  0.00     0.000 HD 
HETATM   28  C2* UNL     1      -6.995   5.546  68.760  1.00  0.00    -0.060 C  
HETATM   29  O2* UNL     1      -7.430   4.379  69.482  1.00  0.00    -0.054 OA 
HETATM   30  O3* UNL     1      -5.161   5.376  70.365  1.00  0.00    -0.004 OA 
HETATM   31  H3* UNL     1      -4.874   4.542  70.013  1.00  0.00     0.000 HD 
BRANCH  25  32
HETATM   32  C5* UNL     1      -5.583   8.775  69.232  1.00  0.00    -0.035 C  
HETATM   33  O5* UNL     1      -6.156   9.979  69.749  1.00  0.00    -0.041 OA 
HETATM   34  H5* UNL     1      -5.766  10.733  69.323  1.00  0.00     0.000 HD 
ENDBRANCH  25  32
ENDBRANCH  21  23
ENDBRANCH   8  11
ENDBRANCH   3   6
TORSDOF 4
ENDMDL
MODEL      197
REMARK 921   NORMALIZED FREE ENERGY PREDICTED BY IDOCK:   -3.83 KCAL/MOL
REMARK 922        TOTAL FREE ENERGY PREDICTED BY IDOCK:   -5.24 KCAL/MOL
REMARK 923 INTER-LIGAND FREE ENERGY PREDICTED BY IDOCK:   -4.43 KCAL/MOL
REMARK 924 INTRA-LIGAND FREE ENERGY PREDICTED BY IDOCK:   -0.81 KCAL/MOL
REMARK 927      BINDING AFFINITY PREDICTED BY RF-SCORE:    0.00 PKD
ROOT
HETATM    1  C   UNL     1     -14.400   8.789  71.580  1.00  0.00    -0.306 C  
HETATM    2  N   UNL     1     -13.078   9.050  71.077  1.00  0.00    -0.531 N  
HETATM    3  C   UNL     1     -12.041   8.162  71.266  1.00  0.00    -0.288 C  
HETATM    4  H   UNL     1     -12.903   9.916  70.566  1.00  0.00     0.000 HD 
HETATM    5  O   UNL     1     -12.161   7.101  71.868  1.00  0.00    -0.300 OA 
ENDROOT
BRANCH   3   6
HETATM    6  C   UNL     1     -10.775   8.575  70.678  1.00  0.00    -0.251 A  
HETATM    7  C   UNL     1     -10.469   8.781  69.348  1.00  0.00    -0.222 A  
HETATM    8  N   UNL     1      -9.137   9.136  69.267  1.00  0.00    -0.143 NA 
HETATM    9  N   UNL     1      -8.563   9.185  70.502  1.00  0.00    -0.199 NA 
HETATM   10  C   UNL     1      -9.555   8.858  71.337  1.00  0.00    -0.289 A  
BRANCH   8  11
HETATM   11  C   UNL     1      -8.418   9.352  68.036  1.00  0.00    -0.120 A  
HETATM   12  N   UNL     1      -8.431   8.367  67.102  1.00  0.00    -0.122 NA 
HETATM   13  C   UNL     1      -7.929   8.788  65.927  1.00  0.00    -0.104 A  
HETATM   14  C   UNL     1      -7.393  10.031  65.642  1.00  0.00    -0.127 A  
HETATM   15  N   UNL     1      -7.016  10.120  64.322  1.00  0.00    -0.126 NA 
HETATM   16  C   UNL     1      -7.337  10.944  66.703  1.00  0.00    -0.139 A  
HETATM   17  N   UNL     1      -6.782  12.212  66.589  1.00  0.00    -0.392 NA 
HETATM   18  N   UNL     1      -7.860  10.585  67.893  1.00  0.00    -0.104 NA 
HETATM   19  C   UNL     1      -7.359   8.964  63.799  1.00  0.00    -0.101 A  
HETATM   20  H1  UNL     1      -6.741  12.876  67.361  1.00  0.00     0.000 HD 
HETATM   21  N   UNL     1      -7.873   8.104  64.740  1.00  0.00    -0.129 NA 
HETATM   22  H2  UNL     1      -7.248  12.678  65.811  1.00  0.00     0.000 HD 
BRANCH  21  23
HETATM   23  C1* UNL     1      -8.304   6.756  64.454  1.00  0.00     0.109 C  
HETATM   24  O4* UNL     1      -8.248   5.992  65.673  1.00  0.00    -0.125 OA 
HETATM   25  C4* UNL     1      -7.129   5.084  65.607  1.00  0.00    -0.067 C  
HETATM   26  C3* UNL     1      -6.681   4.989  64.141  1.00  0.00    -0.047 C  
HETATM   27  H2* UNL     1      -8.004   4.918  61.795  1.00  0.00     0.000 HD 
HETATM   28  C2* UNL     1      -7.539   5.998  63.371  1.00  0.00    -0.083 C  
HETATM   29  O2* UNL     1      -8.479   5.389  62.468  1.00  0.00    -0.111 OA 
HETATM   30  O3* UNL     1      -6.857   3.666  63.616  1.00  0.00    -0.041 OA 
HETATM   31  H3* UNL     1      -6.580   3.607  62.709  1.00  0.00     0.000 HD 
BRANCH  25  32
HETATM   32  C5* UNL     1      -6.032   5.574  66.564  1.00  0.00    -0.019 C  
HETATM   33  O5* UNL     1      -6.623   6.135  67.739  1.00  0.00    -0.054 OA 
HETATM   34  H5* UNL     1      -5.945   6.437  68.331  1.00  0.00     0.000 HD 
ENDBRANCH  25  32
ENDBRANCH  21  23
ENDBRANCH   8  11
ENDBRANCH   3   6
TORSDOF 4
ENDMDL
MODEL      198
REMARK 921   NORMALIZED FREE ENERGY PREDICTED BY IDOCK:   -3.82 KCAL/MOL
REMARK 922        TOTAL FREE ENERGY PREDICTED BY IDOCK:   -5.22 KCAL/MOL
REMARK 923 INTER-LIGAND FREE ENERGY PREDICTED BY IDOCK:   -4.24 KCAL/MOL
REMARK 924 INTRA-LIGAND FREE ENERGY PREDICTED BY IDOCK:   -0.98 KCAL/MOL
REMARK 927      BINDING AFFINITY PREDICTED BY RF-SCORE:    0.00 PKD
ROOT
HETATM    1  C   UNL     1     -11.851   1.474  73.793  1.00  0.00    -0.157 C  
HETATM    2  N   UNL     1     -11.482   2.756  73.255  1.00  0.00    -0.073 N  
HETATM    3  C   UNL     1     -10.207   3.261  73.395  1.00  0.00    -0.138 C  
HETATM    4  H   UNL     1     -12.182   3.305  72.758  1.00  0.00     0.000 HD 
HETATM    5  O   UNL     1      -9.305   2.671  73.978  1.00  0.00    -0.080 OA 
ENDROOT
BRANCH   3   6
HETATM    6  C   UNL     1     -10.003   4.564  72.777  1.00  0.00    -0.209 A  
HETATM    7  C   UNL     1      -8.818   5.238  72.560  1.00  0.00    -0.127 A  
HETATM    8  N   UNL     1      -9.120   6.451  71.973  1.00  0.00    -0.141 NA 
HETATM    9  N   UNL     1     -10.463   6.589  71.784  1.00  0.00    -0.209 NA 
HETATM   10  C   UNL     1     -10.977   5.450  72.259  1.00  0.00    -0.216 A  
BRANCH   8  11
HETATM   11  C   UNL     1      -8.155   7.478  71.668  1.00  0.00    -0.102 A  
HETATM   12  N   UNL     1      -8.189   8.050  70.438  1.00  0.00    -0.116 NA 
HETATM   13  C   UNL     1      -7.402   9.139  70.372  1.00  0.00    -0.100 A  
HETATM   14  C   UNL     1      -6.584   9.643  71.367  1.00  0.00     0.160 A  
HETATM   15  N   UNL     1      -5.956  10.797  70.959  1.00  0.00    -0.350 NA 
HETATM   16  C   UNL     1      -6.546   8.923  72.568  1.00  0.00     0.089 A  
HETATM   17  N   UNL     1      -5.738   9.272  73.641  1.00  0.00    -0.282 NA 
HETATM   18  N   UNL     1      -7.344   7.843  72.699  1.00  0.00    -0.090 NA 
HETATM   19  C   UNL     1      -6.419  11.017  69.749  1.00  0.00    -0.137 A  
HETATM   20  H1  UNL     1      -5.711   8.748  74.515  1.00  0.00     0.000 HD 
HETATM   21  N   UNL     1      -7.263  10.016  69.328  1.00  0.00    -0.070 NA 
HETATM   22  H2  UNL     1      -5.947  10.242  73.876  1.00  0.00     0.000 HD 
BRANCH  21  23
HETATM   23  C1* UNL     1      -7.892   9.982  68.029  1.00  0.00    -0.089 C  
HETATM   24  O4* UNL     1      -9.068  10.810  68.072  1.00  0.00    -0.143 OA 
HETATM   25  C4* UNL     1     -10.238   9.965  68.075  1.00  0.00    -0.182 C  
HETATM   26  C3* UNL     1      -9.808   8.559  67.630  1.00  0.00    -0.174 C  
HETATM   27  H2* UNL     1      -8.072   7.643  65.784  1.00  0.00     0.000 HD 
HETATM   28  C2* UNL     1      -8.284   8.610  67.484  1.00  0.00    -0.110 C  
HETATM   29  O2* UNL     1      -7.829   8.496  66.124  1.00  0.00    -0.094 OA 
HETATM   30  O3* UNL     1     -10.426   8.181  66.392  1.00  0.00    -0.432 OA 
HETATM   31  H3* UNL     1     -10.160   7.311  66.118  1.00  0.00     0.000 HD 
BRANCH  25  32
HETATM   32  C5* UNL     1     -10.882  10.010  69.468  1.00  0.00    -0.253 C  
HETATM   33  O5* UNL     1     -11.228   8.689  69.891  1.00  0.00    -0.416 OA 
HETATM   34  H5* UNL     1     -11.626   8.717  70.752  1.00  0.00     0.000 HD 
ENDBRANCH  25  32
ENDBRANCH  21  23
ENDBRANCH   8  11
ENDBRANCH   3   6
TORSDOF 4
ENDMDL
MODEL      199
REMARK 921   NORMALIZED FREE ENERGY PREDICTED BY IDOCK:   -3.71 KCAL/MOL
REMARK 922        TOTAL FREE ENERGY PREDICTED BY IDOCK:   -5.09 KCAL/MOL
REMARK 923 INTER-LIGAND FREE ENERGY PREDICTED BY IDOCK:   -4.29 KCAL/MOL
REMARK 924 INTRA-LIGAND FREE ENERGY PREDICTED BY IDOCK:   -0.79 KCAL/MOL
REMARK 927      BINDING AFFINITY PREDICTED BY RF-SCORE:    0.00 PKD
ROOT
HETATM    1  C   UNL     1     -12.512  15.244  63.938  1.00  0.00     0.352 C  
HETATM    2  N   UNL     1     -11.710  14.538  64.901  1.00  0.00    -0.384 N  
HETATM    3  C   UNL     1     -10.553  15.080  65.419  1.00  0.00    -0.380 C  
HETATM    4  H   UNL     1     -12.005  13.611  65.209  1.00  0.00     0.000 HD 
HETATM    5  O   UNL     1     -10.124  16.184  65.104  1.00  0.00    -0.503 OA 
ENDROOT
BRANCH   3   6
HETATM    6  C   UNL     1      -9.873  14.238  66.393  1.00  0.00    -0.309 A  
HETATM    7  C   UNL     1      -9.271  13.012  66.200  1.00  0.00     0.005 A  
HETATM    8  N   UNL     1      -8.785  12.579  67.418  1.00  0.00    -0.179 NA 
HETATM    9  N   UNL     1      -9.035  13.490  68.401  1.00  0.00    -0.175 NA 
HETATM   10  C   UNL     1      -9.676  14.480  67.773  1.00  0.00    -0.216 A  
BRANCH   8  11
HETATM   11  C   UNL     1      -8.163  11.298  67.646  1.00  0.00    -0.120 A  
HETATM   12  N   UNL     1      -8.864  10.353  68.322  1.00  0.00    -0.131 NA 
HETATM   13  C   UNL     1      -8.268   9.149  68.257  1.00  0.00    -0.116 A  
HETATM   14  C   UNL     1      -7.063   8.842  67.650  1.00  0.00    -0.076 A  
HETATM   15  N   UNL     1      -6.786   7.498  67.745  1.00  0.00    -0.069 NA 
HETATM   16  C   UNL     1      -6.370   9.909  67.065  1.00  0.00    -0.065 A  
HETATM   17  N   UNL     1      -5.127   9.772  66.463  1.00  0.00    -0.039 NA 
HETATM   18  N   UNL     1      -6.941  11.131  67.071  1.00  0.00    -0.114 NA 
HETATM   19  C   UNL     1      -7.828   6.986  68.361  1.00  0.00    -0.122 A  
HETATM   20  H1  UNL     1      -4.623  10.549  66.036  1.00  0.00     0.000 HD 
HETATM   21  N   UNL     1      -8.733   7.951  68.734  1.00  0.00    -0.128 NA 
HETATM   22  H2  UNL     1      -5.211   9.041  65.756  1.00  0.00     0.000 HD 
BRANCH  21  23
HETATM   23  C1* UNL     1      -9.955   7.679  69.453  1.00  0.00    -0.180 C  
HETATM   24  O4* UNL     1      -9.864   8.288  70.753  1.00  0.00    -0.175 OA 
HETATM   25  C4* UNL     1      -9.675   7.257  71.743  1.00  0.00    -0.153 C  
HETATM   26  C3* UNL     1     -10.043   5.911  71.102  1.00  0.00    -0.198 C  
HETATM   27  H2* UNL     1     -11.972   5.135  69.388  1.00  0.00     0.000 HD 
HETATM   28  C2* UNL     1     -10.344   6.213  69.631  1.00  0.00    -0.218 C  
HETATM   29  O2* UNL     1     -11.730   6.047  69.278  1.00  0.00    -0.057 OA 
HETATM   30  O3* UNL     1     -11.177   5.309  71.741  1.00  0.00    -0.095 OA 
HETATM   31  H3* UNL     1     -11.405   4.477  71.344  1.00  0.00     0.000 HD 
BRANCH  25  32
HETATM   32  C5* UNL     1      -8.232   7.326  72.266  1.00  0.00    -0.101 C  
HETATM   33  O5* UNL     1      -8.040   8.527  73.016  1.00  0.00    -0.350 OA 
HETATM   34  H5* UNL     1      -7.148   8.570  73.340  1.00  0.00     0.000 HD 
ENDBRANCH  25  32
ENDBRANCH  21  23
ENDBRANCH   8  11
ENDBRANCH   3   6
TORSDOF 4
ENDMDL
MODEL      200
REMARK 921   NORMALIZED FREE ENERGY PREDICTED BY IDOCK:   -3.68 KCAL/MOL
REMARK 922        TOTAL FREE ENERGY PREDICTED BY IDOCK:   -5.05 KCAL/MOL
REMARK 923 INTER-LIGAND FREE ENERGY PREDICTED BY IDOCK:   -4.23 KCAL/MOL
REMARK 924 INTRA-LIGAND FREE ENERGY PREDICTED BY IDOCK:   -0.82 KCAL/MOL
REMARK 927      BINDING AFFINITY PREDICTED BY RF-SCORE:    0.00 PKD
ROOT
HETATM    1  C   UNL     1      -9.856   4.576  72.075  1.00  0.00    -0.178 C  
HETATM    2  N   UNL     1      -9.644   4.852  70.680  1.00  0.00    -0.172 N  
HETATM    3  C   UNL     1      -9.596   3.844  69.740  1.00  0.00    -0.201 C  
HETATM    4  H   UNL     1      -9.525   5.818  70.377  1.00  0.00     0.000 HD 
HETATM    5  O   UNL     1      -9.728   2.657  70.014  1.00  0.00    -0.068 OA 
ENDROOT
BRANCH   3   6
HETATM    6  C   UNL     1      -9.389   4.301  68.373  1.00  0.00    -0.209 A  
HETATM    7  C   UNL     1      -9.107   5.574  67.924  1.00  0.00    -0.107 A  
HETATM    8  N   UNL     1      -9.026   5.532  66.546  1.00  0.00    -0.120 NA 
HETATM    9  N   UNL     1      -9.231   4.268  66.077  1.00  0.00    -0.136 NA 
HETATM   10  C   UNL     1      -9.436   3.541  67.180  1.00  0.00    -0.183 A  
BRANCH   8  11
HETATM   11  C   UNL     1      -8.830   6.682  65.699  1.00  0.00    -0.033 A  
HETATM   12  N   UNL     1      -9.241   7.894  66.152  1.00  0.00    -0.178 NA 
HETATM   13  C   UNL     1      -8.789   8.896  65.378  1.00  0.00    -0.193 A  
HETATM   14  C   UNL     1      -8.045   8.787  64.216  1.00  0.00    -0.157 A  
HETATM   15  N   UNL     1      -7.724  10.026  63.712  1.00  0.00    -0.146 NA 
HETATM   16  C   UNL     1      -7.756   7.488  63.781  1.00  0.00    -0.126 A  
HETATM   17  N   UNL     1      -7.063   7.213  62.609  1.00  0.00    -0.064 NA 
HETATM   18  N   UNL     1      -8.155   6.447  64.540  1.00  0.00    -0.114 NA 
HETATM   19  C   UNL     1      -8.227  10.877  64.578  1.00  0.00     0.198 A  
HETATM   20  H1  UNL     1      -6.853   6.267  62.292  1.00  0.00     0.000 HD 
HETATM   21  N   UNL     1      -8.923  10.245  65.581  1.00  0.00    -0.164 NA 
HETATM   22  H2  UNL     1      -6.180   7.722  62.652  1.00  0.00     0.000 HD 
BRANCH  21  23
HETATM   23  C1* UNL     1      -9.605  10.933  66.651  1.00  0.00    -0.185 C  
HETATM   24  O4* UNL     1      -8.618  11.466  67.551  1.00  0.00    -0.132 OA 
HETATM   25  C4* UNL     1      -8.619  10.686  68.765  1.00  0.00    -0.150 C  
HETATM   26  C3* UNL     1      -9.916   9.864  68.799  1.00  0.00    -0.173 C  
HETATM   27  H2* UNL     1     -12.463  10.381  68.089  1.00  0.00     0.000 HD 
HETATM   28  C2* UNL     1     -10.616  10.126  67.462  1.00  0.00    -0.273 C  
HETATM   29  O2* UNL     1     -11.834  10.883  67.584  1.00  0.00    -0.572 OA 
HETATM   30  O3* UNL     1     -10.757  10.242  69.897  1.00  0.00    -0.262 OA 
HETATM   31  H3* UNL     1     -11.559   9.734  69.918  1.00  0.00     0.000 HD 
BRANCH  25  32
HETATM   32  C5* UNL     1      -7.340   9.838  68.813  1.00  0.00    -0.074 C  
HETATM   33  O5* UNL     1      -6.488  10.173  67.715  1.00  0.00    -0.061 OA 
HETATM   34  H5* UNL     1      -5.697   9.649  67.746  1.00  0.00     0.000 HD 
ENDBRANCH  25  32
ENDBRANCH  21  23
ENDBRANCH   8  11
ENDBRANCH   3   6
TORSDOF 4
ENDMDL
MODEL      201
REMARK 921   NORMALIZED FREE ENERGY PREDICTED BY IDOCK:   -3.63 KCAL/MOL
REMARK 922        TOTAL FREE ENERGY PREDICTED BY IDOCK:   -4.99 KCAL/MOL
REMARK 923 INTER-LIGAND FREE ENERGY PREDICTED BY IDOCK:   -3.99 KCAL/MOL
REMARK 924 INTRA-LIGAND FREE ENERGY PREDICTED BY IDOCK:   -1.00 KCAL/MOL
REMARK 927      BINDING AFFINITY PREDICTED BY RF-SCORE:    0.00 PKD
ROOT
HETATM    1  C   UNL     1      -9.398   3.794  72.377  1.00  0.00    -0.119 C  
HETATM    2  N   UNL     1      -9.329   4.237  71.010  1.00  0.00    -0.140 N  
HETATM    3  C   UNL     1      -9.267   3.344  69.961  1.00  0.00    -0.150 C  
HETATM    4  H   UNL     1      -9.326   5.237  70.811  1.00  0.00     0.000 HD 
HETATM    5  O   UNL     1      -9.265   2.128  70.107  1.00  0.00    -0.097 OA 
ENDROOT
BRANCH   3   6
HETATM    6  C   UNL     1      -9.218   3.963  68.643  1.00  0.00    -0.211 A  
HETATM    7  C   UNL     1      -8.827   5.242  68.306  1.00  0.00    -0.104 A  
HETATM    8  N   UNL     1      -8.976   5.388  66.941  1.00  0.00    -0.110 NA 
HETATM    9  N   UNL     1      -9.438   4.240  66.369  1.00  0.00    -0.168 NA 
HETATM   10  C   UNL     1      -9.568   3.393  67.396  1.00  0.00    -0.095 A  
BRANCH   8  11
HETATM   11  C   UNL     1      -8.751   6.614  66.216  1.00  0.00    -0.145 A  
HETATM   12  N   UNL     1      -8.779   7.783  66.904  1.00  0.00    -0.128 NA 
HETATM   13  C   UNL     1      -8.325   8.809  66.163  1.00  0.00    -0.123 A  
HETATM   14  C   UNL     1      -7.920   8.772  64.841  1.00  0.00    -0.135 A  
HETATM   15  N   UNL     1      -7.476  10.005  64.421  1.00  0.00    -0.140 NA 
HETATM   16  C   UNL     1      -8.022   7.536  64.191  1.00  0.00    -0.098 A  
HETATM   17  N   UNL     1      -7.702   7.349  62.853  1.00  0.00    -0.123 NA 
HETATM   18  N   UNL     1      -8.437   6.466  64.900  1.00  0.00    -0.055 NA 
HETATM   19  C   UNL     1      -7.568  10.771  65.485  1.00  0.00    -0.005 A  
HETATM   20  H1  UNL     1      -7.776   6.448  62.381  1.00  0.00     0.000 HD 
HETATM   21  N   UNL     1      -8.121  10.107  66.554  1.00  0.00    -0.119 NA 
HETATM   22  H2  UNL     1      -6.748   7.683  62.719  1.00  0.00     0.000 HD 
BRANCH  21  23
HETATM   23  C1* UNL     1      -8.368  10.711  67.842  1.00  0.00    -0.120 C  
HETATM   24  O4* UNL     1      -9.790  10.852  68.012  1.00  0.00    -0.165 OA 
HETATM   25  C4* UNL     1     -10.143  12.245  67.882  1.00  0.00    -0.200 C  
HETATM   26  C3* UNL     1      -8.857  13.074  68.016  1.00  0.00    -0.191 C  
HETATM   27  H2* UNL     1      -6.667  12.868  69.572  1.00  0.00     0.000 HD 
HETATM   28  C2* UNL     1      -7.711  12.063  68.112  1.00  0.00    -0.135 C  
HETATM   29  O2* UNL     1      -7.076  12.028  69.403  1.00  0.00    -0.041 OA 
HETATM   30  O3* UNL     1      -8.888  13.920  69.174  1.00  0.00    -0.363 OA 
HETATM   31  H3* UNL     1      -8.093  14.433  69.256  1.00  0.00     0.000 HD 
BRANCH  25  32
HETATM   32  C5* UNL     1     -10.883  12.450  66.552  1.00  0.00    -0.250 C  
HETATM   33  O5* UNL     1     -10.814  11.258  65.765  1.00  0.00    -0.261 OA 
HETATM   34  H5* UNL     1     -11.272  11.385  64.943  1.00  0.00     0.000 HD 
ENDBRANCH  25  32
ENDBRANCH  21  23
ENDBRANCH   8  11
ENDBRANCH   3   6
TORSDOF 4
ENDMDL
MODEL      202
REMARK 921   NORMALIZED FREE ENERGY PREDICTED BY IDOCK:   -3.62 KCAL/MOL
REMARK 922        TOTAL FREE ENERGY PREDICTED BY IDOCK:   -4.98 KCAL/MOL
REMARK 923 INTER-LIGAND FREE ENERGY PREDICTED BY IDOCK:   -6.13 KCAL/MOL
REMARK 924 INTRA-LIGAND FREE ENERGY PREDICTED BY IDOCK:    1.15 KCAL/MOL
REMARK 927      BINDING AFFINITY PREDICTED BY RF-SCORE:    0.00 PKD
ROOT
HETATM    1  C   UNL     1      -8.207   4.990  68.409  1.00  0.00    -0.085 C  
HETATM    2  N   UNL     1      -8.330   6.224  67.680  1.00  0.00    -0.116 N  
HETATM    3  C   UNL     1      -9.030   7.299  68.186  1.00  0.00    -0.132 C  
HETATM    4  H   UNL     1      -7.889   6.305  66.764  1.00  0.00     0.000 HD 
HETATM    5  O   UNL     1      -9.591   7.288  69.275  1.00  0.00    -0.156 OA 
ENDROOT
BRANCH   3   6
HETATM    6  C   UNL     1      -9.041   8.472  67.324  1.00  0.00    -0.152 A  
HETATM    7  C   UNL     1      -9.913   9.542  67.337  1.00  0.00    -0.189 A  
HETATM    8  N   UNL     1      -9.551  10.399  66.315  1.00  0.00    -0.175 NA 
HETATM    9  N   UNL     1      -8.460   9.933  65.643  1.00  0.00    -0.139 NA 
HETATM   10  C   UNL     1      -8.160   8.787  66.262  1.00  0.00    -0.107 A  
BRANCH   8  11
HETATM   11  C   UNL     1     -10.273  11.592  65.950  1.00  0.00    -0.238 A  
HETATM   12  N   UNL     1      -9.722  12.796  66.248  1.00  0.00    -0.263 NA 
HETATM   13  C   UNL     1     -10.376  13.807  65.649  1.00  0.00    -0.311 A  
HETATM   14  C   UNL     1     -11.512  13.720  64.863  1.00  0.00    -0.343 A  
HETATM   15  N   UNL     1     -11.880  14.955  64.382  1.00  0.00    -0.398 NA 
HETATM   16  C   UNL     1     -12.059  12.442  64.698  1.00  0.00    -0.415 A  
HETATM   17  N   UNL     1     -13.223  12.198  63.980  1.00  0.00    -0.705 NA 
HETATM   18  N   UNL     1     -11.421  11.389  65.247  1.00  0.00    -0.015 NA 
HETATM   19  C   UNL     1     -10.956  15.776  64.832  1.00  0.00    -0.427 A  
HETATM   20  H1  UNL     1     -13.622  11.268  63.859  1.00  0.00     0.000 HD 
HETATM   21  N   UNL     1     -10.049  15.137  65.643  1.00  0.00    -0.337 NA 
HETATM   22  H2  UNL     1     -13.096  12.597  63.050  1.00  0.00     0.000 HD 
BRANCH  21  23
HETATM   23  C1* UNL     1      -8.946  15.798  66.300  1.00  0.00    -0.345 C  
HETATM   24  O4* UNL     1      -7.967  14.806  66.655  1.00  0.00     0.028 OA 
HETATM   25  C4* UNL     1      -8.002  14.600  68.082  1.00  0.00    -0.136 C  
HETATM   26  C3* UNL     1      -8.761  15.778  68.712  1.00  0.00    -0.203 C  
HETATM   27  H2* UNL     1      -8.835  18.424  68.207  1.00  0.00     0.000 HD 
HETATM   28  C2* UNL     1      -9.272  16.625  67.542  1.00  0.00    -0.207 C  
HETATM   29  O2* UNL     1      -8.633  17.909  67.434  1.00  0.00    -0.235 OA 
HETATM   30  O3* UNL     1      -7.917  16.555  69.573  1.00  0.00    -0.081 OA 
HETATM   31  H3* UNL     1      -8.386  17.283  69.962  1.00  0.00     0.000 HD 
BRANCH  25  32
HETATM   32  C5* UNL     1      -8.627  13.228  68.373  1.00  0.00    -0.130 C  
HETATM   33  O5* UNL     1      -7.674  12.193  68.117  1.00  0.00    -0.112 OA 
HETATM   34  H5* UNL     1      -8.060  11.344  68.297  1.00  0.00     0.000 HD 
ENDBRANCH  25  32
ENDBRANCH  21  23
ENDBRANCH   8  11
ENDBRANCH   3   6
TORSDOF 4
ENDMDL
MODEL      203
REMARK 921   NORMALIZED FREE ENERGY PREDICTED BY IDOCK:   -3.53 KCAL/MOL
REMARK 922        TOTAL FREE ENERGY PREDICTED BY IDOCK:   -4.87 KCAL/MOL
REMARK 923 INTER-LIGAND FREE ENERGY PREDICTED BY IDOCK:   -3.98 KCAL/MOL
REMARK 924 INTRA-LIGAND FREE ENERGY PREDICTED BY IDOCK:   -0.89 KCAL/MOL
REMARK 927      BINDING AFFINITY PREDICTED BY RF-SCORE:    0.00 PKD
ROOT
HETATM    1  C   UNL     1     -12.487  15.241  63.958  1.00  0.00     0.199 C  
HETATM    2  N   UNL     1     -11.743  14.530  64.963  1.00  0.00    -0.377 N  
HETATM    3  C   UNL     1     -10.629  15.077  65.564  1.00  0.00    -0.363 C  
HETATM    4  H   UNL     1     -12.046  13.596  65.238  1.00  0.00     0.000 HD 
HETATM    5  O   UNL     1     -10.193  16.190  65.295  1.00  0.00    -0.520 OA 
ENDROOT
BRANCH   3   6
HETATM    6  C   UNL     1     -10.006  14.228  66.570  1.00  0.00    -0.289 A  
HETATM    7  C   UNL     1      -9.339  13.033  66.395  1.00  0.00    -0.182 A  
HETATM    8  N   UNL     1      -8.948  12.577  67.638  1.00  0.00    -0.175 NA 
HETATM    9  N   UNL     1      -9.323  13.443  68.622  1.00  0.00    -0.078 NA 
HETATM   10  C   UNL     1      -9.945  14.429  67.969  1.00  0.00    -0.225 A  
BRANCH   8  11
HETATM   11  C   UNL     1      -8.297  11.314  67.882  1.00  0.00    -0.131 A  
HETATM   12  N   UNL     1      -7.993  10.529  66.817  1.00  0.00    -0.117 NA 
HETATM   13  C   UNL     1      -7.189   9.508  67.163  1.00  0.00    -0.087 A  
HETATM   14  C   UNL     1      -6.734   9.193  68.431  1.00  0.00    -0.059 A  
HETATM   15  N   UNL     1      -5.894   8.104  68.402  1.00  0.00    -0.039 NA 
HETATM   16  C   UNL     1      -7.185  10.008  69.476  1.00  0.00    -0.105 A  
HETATM   17  N   UNL     1      -6.857   9.791  70.808  1.00  0.00    -0.260 NA 
HETATM   18  N   UNL     1      -7.964  11.068  69.179  1.00  0.00    -0.117 NA 
HETATM   19  C   UNL     1      -5.803   7.787  67.129  1.00  0.00    -0.040 A  
HETATM   20  H1  UNL     1      -7.185  10.386  71.569  1.00  0.00     0.000 HD 
HETATM   21  N   UNL     1      -6.606   8.578  66.342  1.00  0.00    -0.058 NA 
HETATM   22  H2  UNL     1      -5.840   9.755  70.869  1.00  0.00     0.000 HD 
BRANCH  21  23
HETATM   23  C1* UNL     1      -6.729   8.435  64.910  1.00  0.00    -0.067 C  
HETATM   24  O4* UNL     1      -8.037   7.913  64.616  1.00  0.00    -0.139 OA 
HETATM   25  C4* UNL     1      -7.912   6.534  64.212  1.00  0.00    -0.095 C  
HETATM   26  C3* UNL     1      -6.440   6.273  63.863  1.00  0.00    -0.030 C  
HETATM   27  H2* UNL     1      -4.539   7.723  62.622  1.00  0.00     0.000 HD 
HETATM   28  C2* UNL     1      -5.690   7.563  64.209  1.00  0.00    -0.037 C  
HETATM   29  O2* UNL     1      -5.185   8.265  63.058  1.00  0.00    -0.060 OA 
HETATM   30  O3* UNL     1      -6.271   5.941  62.478  1.00  0.00    -0.025 OA 
HETATM   31  H3* UNL     1      -5.360   5.780  62.263  1.00  0.00     0.000 HD 
BRANCH  25  32
HETATM   32  C5* UNL     1      -8.459   5.635  65.331  1.00  0.00    -0.147 C  
HETATM   33  O5* UNL     1      -9.571   6.268  65.967  1.00  0.00    -0.356 OA 
HETATM   34  H5* UNL     1      -9.910   5.712  66.659  1.00  0.00     0.000 HD 
ENDBRANCH  25  32
ENDBRANCH  21  23
ENDBRANCH   8  11
ENDBRANCH   3   6
TORSDOF 4
ENDMDL
MODEL      204
REMARK 921   NORMALIZED FREE ENERGY PREDICTED BY IDOCK:   -3.51 KCAL/MOL
REMARK 922        TOTAL FREE ENERGY PREDICTED BY IDOCK:   -4.85 KCAL/MOL
REMARK 923 INTER-LIGAND FREE ENERGY PREDICTED BY IDOCK:   -4.33 KCAL/MOL
REMARK 924 INTRA-LIGAND FREE ENERGY PREDICTED BY IDOCK:   -0.52 KCAL/MOL
REMARK 927      BINDING AFFINITY PREDICTED BY RF-SCORE:    0.00 PKD
ROOT
HETATM    1  C   UNL     1     -14.201   8.632  71.754  1.00  0.00    -0.412 C  
HETATM    2  N   UNL     1     -12.809   8.723  71.402  1.00  0.00    -0.422 N  
HETATM    3  C   UNL     1     -11.905   7.747  71.761  1.00  0.00    -0.290 C  
HETATM    4  H   UNL     1     -12.482   9.532  70.873  1.00  0.00     0.000 HD 
HETATM    5  O   UNL     1     -12.208   6.744  72.397  1.00  0.00    -0.173 OA 
ENDROOT
BRANCH   3   6
HETATM    6  C   UNL     1     -10.541   7.990  71.311  1.00  0.00    -0.245 A  
HETATM    7  C   UNL     1      -9.945   7.610  70.126  1.00  0.00    -0.186 A  
HETATM    8  N   UNL     1      -8.631   8.036  70.154  1.00  0.00    -0.128 NA 
HETATM    9  N   UNL     1      -8.351   8.697  71.313  1.00  0.00    -0.154 NA 
HETATM   10  C   UNL     1      -9.504   8.671  71.990  1.00  0.00    -0.300 A  
BRANCH   8  11
HETATM   11  C   UNL     1      -7.654   7.755  69.132  1.00  0.00    -0.099 A  
HETATM   12  N   UNL     1      -7.633   6.512  68.586  1.00  0.00    -0.095 NA 
HETATM   13  C   UNL     1      -6.845   6.460  67.497  1.00  0.00    -0.076 A  
HETATM   14  C   UNL     1      -6.074   7.481  66.971  1.00  0.00    -0.047 A  
HETATM   15  N   UNL     1      -5.430   7.078  65.824  1.00  0.00    -0.026 NA 
HETATM   16  C   UNL     1      -6.090   8.697  67.666  1.00  0.00    -0.048 A  
HETATM   17  N   UNL     1      -5.332   9.798  67.293  1.00  0.00    -0.039 NA 
HETATM   18  N   UNL     1      -6.892   8.814  68.744  1.00  0.00    -0.061 NA 
HETATM   19  C   UNL     1      -5.838   5.844  65.629  1.00  0.00    -0.024 A  
HETATM   20  H1  UNL     1      -5.344  10.683  67.799  1.00  0.00     0.000 HD 
HETATM   21  N   UNL     1      -6.660   5.406  66.641  1.00  0.00    -0.054 NA 
HETATM   22  H2  UNL     1      -5.553  10.003  66.319  1.00  0.00     0.000 HD 
BRANCH  21  23
HETATM   23  C1* UNL     1      -7.230   4.081  66.703  1.00  0.00    -0.068 C  
HETATM   24  O4* UNL     1      -8.265   3.984  65.709  1.00  0.00    -0.104 OA 
HETATM   25  C4* UNL     1      -9.549   3.992  66.365  1.00  0.00    -0.202 C  
HETATM   26  C3* UNL     1      -9.322   3.696  67.855  1.00  0.00    -0.190 C  
HETATM   27  H2* UNL     1      -7.669   2.040  69.190  1.00  0.00     0.000 HD 
HETATM   28  C2* UNL     1      -7.803   3.635  68.046  1.00  0.00    -0.068 C  
HETATM   29  O2* UNL     1      -7.312   2.318  68.354  1.00  0.00    -0.047 OA 
HETATM   30  O3* UNL     1      -9.936   2.462  68.252  1.00  0.00    -0.039 OA 
HETATM   31  H3* UNL     1      -9.795   2.280  69.173  1.00  0.00     0.000 HD 
BRANCH  25  32
HETATM   32  C5* UNL     1     -10.239   5.337  66.093  1.00  0.00    -0.184 C  
HETATM   33  O5* UNL     1     -11.601   5.120  65.715  1.00  0.00    -0.548 OA 
HETATM   34  H5* UNL     1     -12.028   5.952  65.547  1.00  0.00     0.000 HD 
ENDBRANCH  25  32
ENDBRANCH  21  23
ENDBRANCH   8  11
ENDBRANCH   3   6
TORSDOF 4
ENDMDL
MODEL      205
REMARK 921   NORMALIZED FREE ENERGY PREDICTED BY IDOCK:   -3.51 KCAL/MOL
REMARK 922        TOTAL FREE ENERGY PREDICTED BY IDOCK:   -4.84 KCAL/MOL
REMARK 923 INTER-LIGAND FREE ENERGY PREDICTED BY IDOCK:   -4.26 KCAL/MOL
REMARK 924 INTRA-LIGAND FREE ENERGY PREDICTED BY IDOCK:   -0.58 KCAL/MOL
REMARK 927      BINDING AFFINITY PREDICTED BY RF-SCORE:    0.00 PKD
ROOT
HETATM    1  C   UNL     1      -9.981   3.997  71.087  1.00  0.00    -0.127 C  
HETATM    2  N   UNL     1      -9.180   5.126  70.695  1.00  0.00    -0.142 N  
HETATM    3  C   UNL     1      -9.748   6.284  70.208  1.00  0.00    -0.164 C  
HETATM    4  H   UNL     1      -8.166   5.069  70.780  1.00  0.00     0.000 HD 
HETATM    5  O   UNL     1     -10.956   6.440  70.071  1.00  0.00    -0.270 OA 
ENDROOT
BRANCH   3   6
HETATM    6  C   UNL     1      -8.793   7.332  69.875  1.00  0.00    -0.142 A  
HETATM    7  C   UNL     1      -9.018   8.525  69.218  1.00  0.00    -0.146 A  
HETATM    8  N   UNL     1      -7.808   9.182  69.103  1.00  0.00    -0.091 NA 
HETATM    9  N   UNL     1      -6.800   8.465  69.677  1.00  0.00    -0.043 NA 
HETATM   10  C   UNL     1      -7.404   7.368  70.143  1.00  0.00    -0.078 A  
BRANCH   8  11
HETATM   11  C   UNL     1      -7.613  10.425  68.400  1.00  0.00    -0.093 A  
HETATM   12  N   UNL     1      -8.378  11.490  68.751  1.00  0.00    -0.114 NA 
HETATM   13  C   UNL     1      -7.935  12.629  68.189  1.00  0.00    -0.158 A  
HETATM   14  C   UNL     1      -6.879  12.773  67.307  1.00  0.00    -0.080 A  
HETATM   15  N   UNL     1      -6.685  14.092  66.972  1.00  0.00     0.138 NA 
HETATM   16  C   UNL     1      -6.215  11.597  66.933  1.00  0.00    -0.149 A  
HETATM   17  N   UNL     1      -5.170  11.571  66.019  1.00  0.00    -0.438 NA 
HETATM   18  N   UNL     1      -6.597  10.432  67.495  1.00  0.00    -0.066 NA 
HETATM   19  C   UNL     1      -7.582  14.749  67.674  1.00  0.00    -0.174 A  
HETATM   20  H1  UNL     1      -4.687  10.715  65.747  1.00  0.00     0.000 HD 
HETATM   21  N   UNL     1      -8.395  13.904  68.392  1.00  0.00    -0.157 NA 
HETATM   22  H2  UNL     1      -4.462  12.227  66.348  1.00  0.00     0.000 HD 
BRANCH  21  23
HETATM   23  C1* UNL     1      -9.486  14.348  69.227  1.00  0.00     0.148 C  
HETATM   24  O4* UNL     1     -10.427  13.267  69.359  1.00  0.00     0.094 OA 
HETATM   25  C4* UNL     1     -11.601  13.569  68.577  1.00  0.00    -0.333 C  
HETATM   26  C3* UNL     1     -11.575  15.068  68.241  1.00  0.00    -0.334 C  
HETATM   27  H2* UNL     1     -10.851  17.268  69.616  1.00  0.00     0.000 HD 
HETATM   28  C2* UNL     1     -10.241  15.597  68.777  1.00  0.00    -0.215 C  
HETATM   29  O2* UNL     1     -10.381  16.491  69.896  1.00  0.00    -0.210 OA 
HETATM   30  O3* UNL     1     -12.677  15.766  68.836  1.00  0.00    -0.238 OA 
HETATM   31  H3* UNL     1     -12.660  16.692  68.628  1.00  0.00     0.000 HD 
BRANCH  25  32
HETATM   32  C5* UNL     1     -11.629  12.653  67.345  1.00  0.00    -0.360 C  
HETATM   33  O5* UNL     1     -11.610  13.438  66.150  1.00  0.00    -0.322 OA 
HETATM   34  H5* UNL     1     -11.627  12.871  65.388  1.00  0.00     0.000 HD 
ENDBRANCH  25  32
ENDBRANCH  21  23
ENDBRANCH   8  11
ENDBRANCH   3   6
TORSDOF 4
ENDMDL
MODEL      206
REMARK 921   NORMALIZED FREE ENERGY PREDICTED BY IDOCK:   -3.44 KCAL/MOL
REMARK 922        TOTAL FREE ENERGY PREDICTED BY IDOCK:   -4.75 KCAL/MOL
REMARK 923 INTER-LIGAND FREE ENERGY PREDICTED BY IDOCK:   -4.64 KCAL/MOL
REMARK 924 INTRA-LIGAND FREE ENERGY PREDICTED BY IDOCK:   -0.11 KCAL/MOL
REMARK 927      BINDING AFFINITY PREDICTED BY RF-SCORE:    0.00 PKD
ROOT
HETATM    1  C   UNL     1     -11.885   1.636  73.766  1.00  0.00    -0.137 C  
HETATM    2  N   UNL     1     -11.625   2.908  73.147  1.00  0.00     0.092 N  
HETATM    3  C   UNL     1     -10.342   3.376  72.963  1.00  0.00    -0.165 C  
HETATM    4  H   UNL     1     -12.411   3.479  72.836  1.00  0.00     0.000 HD 
HETATM    5  O   UNL     1      -9.341   2.759  73.306  1.00  0.00    -0.087 OA 
ENDROOT
BRANCH   3   6
HETATM    6  C   UNL     1     -10.260   4.673  72.307  1.00  0.00    -0.256 A  
HETATM    7  C   UNL     1      -9.179   5.251  71.672  1.00  0.00    -0.146 A  
HETATM    8  N   UNL     1      -9.564   6.501  71.228  1.00  0.00    -0.166 NA 
HETATM    9  N   UNL     1     -10.867   6.756  71.537  1.00  0.00    -0.230 NA 
HETATM   10  C   UNL     1     -11.274   5.651  72.172  1.00  0.00    -0.227 A  
BRANCH   8  11
HETATM   11  C   UNL     1      -8.687   7.452  70.590  1.00  0.00    -0.142 A  
HETATM   12  N   UNL     1      -9.226   8.337  69.713  1.00  0.00    -0.154 NA 
HETATM   13  C   UNL     1      -8.351   9.302  69.379  1.00  0.00    -0.127 A  
HETATM   14  C   UNL     1      -7.033   9.417  69.786  1.00  0.00    -0.065 A  
HETATM   15  N   UNL     1      -6.453  10.556  69.280  1.00  0.00    -0.049 NA 
HETATM   16  C   UNL     1      -6.546   8.397  70.613  1.00  0.00    -0.037 A  
HETATM   17  N   UNL     1      -5.233   8.344  71.064  1.00  0.00    -0.028 NA 
HETATM   18  N   UNL     1      -7.392   7.424  71.008  1.00  0.00    -0.072 NA 
HETATM   19  C   UNL     1      -7.416  11.151  68.611  1.00  0.00    -0.119 A  
HETATM   20  H1  UNL     1      -4.879   7.601  71.666  1.00  0.00     0.000 HD 
HETATM   21  N   UNL     1      -8.573  10.408  68.601  1.00  0.00    -0.126 NA 
HETATM   22  H2  UNL     1      -5.034   9.231  71.526  1.00  0.00     0.000 HD 
BRANCH  21  23
HETATM   23  C1* UNL     1      -9.781  10.803  67.917  1.00  0.00    -0.167 C  
HETATM   24  O4* UNL     1      -9.428  11.709  66.856  1.00  0.00    -0.179 OA 
HETATM   25  C4* UNL     1      -9.831  13.044  67.225  1.00  0.00    -0.227 C  
HETATM   26  C3* UNL     1     -10.823  12.934  68.393  1.00  0.00    -0.254 C  
HETATM   27  H2* UNL     1     -12.820  11.224  68.981  1.00  0.00     0.000 HD 
HETATM   28  C2* UNL     1     -10.878  11.449  68.761  1.00  0.00    -0.208 C  
HETATM   29  O2* UNL     1     -12.137  10.823  68.456  1.00  0.00    -0.493 OA 
HETATM   30  O3* UNL     1     -12.124  13.419  68.034  1.00  0.00    -0.342 OA 
HETATM   31  H3* UNL     1     -12.736  13.351  68.757  1.00  0.00     0.000 HD 
BRANCH  25  32
HETATM   32  C5* UNL     1      -8.578  13.873  67.545  1.00  0.00    -0.193 C  
HETATM   33  O5* UNL     1      -8.404  13.972  68.960  1.00  0.00    -0.334 OA 
HETATM   34  H5* UNL     1      -7.629  14.484  69.158  1.00  0.00     0.000 HD 
ENDBRANCH  25  32
ENDBRANCH  21  23
ENDBRANCH   8  11
ENDBRANCH   3   6
TORSDOF 4
ENDMDL
MODEL      207
REMARK 921   NORMALIZED FREE ENERGY PREDICTED BY IDOCK:   -2.99 KCAL/MOL
REMARK 922        TOTAL FREE ENERGY PREDICTED BY IDOCK:   -4.20 KCAL/MOL
REMARK 923 INTER-LIGAND FREE ENERGY PREDICTED BY IDOCK:   -3.92 KCAL/MOL
REMARK 924 INTRA-LIGAND FREE ENERGY PREDICTED BY IDOCK:   -0.29 KCAL/MOL
REMARK 927      BINDING AFFINITY PREDICTED BY RF-SCORE:    0.00 PKD
ROOT
HETATM    1  C   UNL     1     -10.030   3.912  71.910  1.00  0.00    -0.168 C  
HETATM    2  N   UNL     1      -9.769   4.508  70.627  1.00  0.00    -0.196 N  
HETATM    3  C   UNL     1      -9.504   3.741  69.512  1.00  0.00    -0.187 C  
HETATM    4  H   UNL     1      -9.779   5.524  70.539  1.00  0.00     0.000 HD 
HETATM    5  O   UNL     1      -9.470   2.516  69.526  1.00  0.00    -0.127 OA 
ENDROOT
BRANCH   3   6
HETATM    6  C   UNL     1      -9.278   4.504  68.293  1.00  0.00    -0.174 A  
HETATM    7  C   UNL     1      -8.757   5.775  68.156  1.00  0.00    -0.107 A  
HETATM    8  N   UNL     1      -8.760   6.094  66.812  1.00  0.00    -0.114 NA 
HETATM    9  N   UNL     1      -9.251   5.068  66.062  1.00  0.00    -0.148 NA 
HETATM   10  C   UNL     1      -9.547   4.121  66.958  1.00  0.00    -0.201 A  
BRANCH   8  11
HETATM   11  C   UNL     1      -8.370   7.373  66.272  1.00  0.00    -0.132 A  
HETATM   12  N   UNL     1      -8.323   8.439  67.110  1.00  0.00    -0.121 NA 
HETATM   13  C   UNL     1      -7.725   9.499  66.535  1.00  0.00    -0.097 A  
HETATM   14  C   UNL     1      -7.247   9.590  65.240  1.00  0.00    -0.104 A  
HETATM   15  N   UNL     1      -6.658  10.812  65.013  1.00  0.00     0.079 NA 
HETATM   16  C   UNL     1      -7.433   8.466  64.426  1.00  0.00    -0.104 A  
HETATM   17  N   UNL     1      -7.053   8.421  63.091  1.00  0.00    -0.090 NA 
HETATM   18  N   UNL     1      -7.994   7.364  64.963  1.00  0.00    -0.125 NA 
HETATM   19  C   UNL     1      -6.736  11.439  66.165  1.00  0.00     0.142 A  
HETATM   20  H1  UNL     1      -7.188   7.603  62.498  1.00  0.00     0.000 HD 
HETATM   21  N   UNL     1      -7.416  10.705  67.108  1.00  0.00    -0.096 NA 
HETATM   22  H2  UNL     1      -6.064   8.667  63.048  1.00  0.00     0.000 HD 
BRANCH  21  23
HETATM   23  C1* UNL     1      -7.679  11.160  68.452  1.00  0.00    -0.125 C  
HETATM   24  O4* UNL     1      -8.179  12.508  68.387  1.00  0.00    -0.161 OA 
HETATM   25  C4* UNL     1      -7.154  13.412  68.847  1.00  0.00    -0.084 C  
HETATM   26  C3* UNL     1      -6.097  12.588  69.598  1.00  0.00    -0.133 C  
HETATM   27  H2* UNL     1      -6.228  10.486  71.277  1.00  0.00     0.000 HD 
HETATM   28  C2* UNL     1      -6.514  11.123  69.438  1.00  0.00    -0.100 C  
HETATM   29  O2* UNL     1      -6.953  10.509  70.664  1.00  0.00    -0.300 OA 
HETATM   30  O3* UNL     1      -6.026  12.950  70.984  1.00  0.00    -0.516 OA 
HETATM   31  H3* UNL     1      -5.372  12.440  71.447  1.00  0.00     0.000 HD 
BRANCH  25  32
HETATM   32  C5* UNL     1      -6.601  14.193  67.646  1.00  0.00    -0.155 C  
HETATM   33  O5* UNL     1      -7.660  14.890  66.986  1.00  0.00    -0.276 OA 
HETATM   34  H5* UNL     1      -7.318  15.373  66.243  1.00  0.00     0.000 HD 
ENDBRANCH  25  32
ENDBRANCH  21  23
ENDBRANCH   8  11
ENDBRANCH   3   6
TORSDOF 4
ENDMDL
MODEL      208
REMARK 921   NORMALIZED FREE ENERGY PREDICTED BY IDOCK:   -2.58 KCAL/MOL
REMARK 922        TOTAL FREE ENERGY PREDICTED BY IDOCK:   -3.70 KCAL/MOL
REMARK 923 INTER-LIGAND FREE ENERGY PREDICTED BY IDOCK:   -3.21 KCAL/MOL
REMARK 924 INTRA-LIGAND FREE ENERGY PREDICTED BY IDOCK:   -0.49 KCAL/MOL
REMARK 927      BINDING AFFINITY PREDICTED BY RF-SCORE:    0.00 PKD
ROOT
HETATM    1  C   UNL     1      -9.119  14.413  66.538  1.00  0.00    -0.205 C  
HETATM    2  N   UNL     1      -8.744  13.113  67.027  1.00  0.00    -0.290 N  
HETATM    3  C   UNL     1      -9.681  12.130  67.264  1.00  0.00    -0.191 C  
HETATM    4  H   UNL     1      -7.760  12.914  67.203  1.00  0.00     0.000 HD 
HETATM    5  O   UNL     1     -10.883  12.283  67.082  1.00  0.00    -0.230 OA 
ENDROOT
BRANCH   3   6
HETATM    6  C   UNL     1      -9.128  10.870  67.741  1.00  0.00    -0.149 A  
HETATM    7  C   UNL     1      -9.074  10.387  69.032  1.00  0.00    -0.187 A  
HETATM    8  N   UNL     1      -8.432   9.165  69.004  1.00  0.00    -0.129 NA 
HETATM    9  N   UNL     1      -8.078   8.822  67.733  1.00  0.00    -0.106 NA 
HETATM   10  C   UNL     1      -8.509   9.845  66.987  1.00  0.00    -0.121 A  
BRANCH   8  11
HETATM   11  C   UNL     1      -8.105   8.382  70.169  1.00  0.00    -0.108 A  
HETATM   12  N   UNL     1      -8.244   7.033  70.099  1.00  0.00    -0.130 NA 
HETATM   13  C   UNL     1      -7.687   6.419  71.158  1.00  0.00    -0.098 A  
HETATM   14  C   UNL     1      -7.084   7.016  72.251  1.00  0.00    -0.072 A  
HETATM   15  N   UNL     1      -6.588   6.074  73.122  1.00  0.00    -0.072 NA 
HETATM   16  C   UNL     1      -7.080   8.416  72.274  1.00  0.00    -0.095 A  
HETATM   17  N   UNL     1      -6.559   9.160  73.324  1.00  0.00    -0.298 NA 
HETATM   18  N   UNL     1      -7.593   9.081  71.219  1.00  0.00    -0.248 NA 
HETATM   19  C   UNL     1      -6.845   4.920  72.546  1.00  0.00    -0.069 A  
HETATM   20  H1  UNL     1      -6.556  10.179  73.340  1.00  0.00     0.000 HD 
HETATM   21  N   UNL     1      -7.551   5.073  71.377  1.00  0.00    -0.085 NA 
HETATM   22  H2  UNL     1      -5.597   8.852  73.467  1.00  0.00     0.000 HD 
BRANCH  21  23
HETATM   23  C1* UNL     1      -7.995   3.975  70.551  1.00  0.00    -0.055 C  
HETATM   24  O4* UNL     1      -6.912   3.587  69.689  1.00  0.00    -0.040 OA 
HETATM   25  C4* UNL     1      -7.203   4.021  68.344  1.00  0.00    -0.055 C  
HETATM   26  C3* UNL     1      -8.699   4.359  68.269  1.00  0.00    -0.101 C  
HETATM   27  H2* UNL     1     -10.912   3.245  69.326  1.00  0.00     0.000 HD 
HETATM   28  C2* UNL     1      -9.238   4.209  69.695  1.00  0.00    -0.141 C  
HETATM   29  O2* UNL     1     -10.139   3.099  69.858  1.00  0.00     0.290 OA 
HETATM   30  O3* UNL     1      -9.396   3.490  67.366  1.00  0.00    -0.181 OA 
HETATM   31  H3* UNL     1     -10.321   3.700  67.319  1.00  0.00     0.000 HD 
BRANCH  25  32
HETATM   32  C5* UNL     1      -6.277   5.194  67.988  1.00  0.00    -0.035 C  
HETATM   33  O5* UNL     1      -5.624   5.677  69.165  1.00  0.00    -0.007 OA 
HETATM   34  H5* UNL     1      -5.052   6.402  68.945  1.00  0.00     0.000 HD 
ENDBRANCH  25  32
ENDBRANCH  21  23
ENDBRANCH   8  11
ENDBRANCH   3   6
TORSDOF 4
ENDMDL
MODEL      209
REMARK 921   NORMALIZED FREE ENERGY PREDICTED BY IDOCK:   -2.57 KCAL/MOL
REMARK 922        TOTAL FREE ENERGY PREDICTED BY IDOCK:   -3.68 KCAL/MOL
REMARK 923 INTER-LIGAND FREE ENERGY PREDICTED BY IDOCK:   -3.18 KCAL/MOL
REMARK 924 INTRA-LIGAND FREE ENERGY PREDICTED BY IDOCK:   -0.51 KCAL/MOL
REMARK 927      BINDING AFFINITY PREDICTED BY RF-SCORE:    0.00 PKD
ROOT
HETATM    1  C   UNL     1      -5.835  20.609  62.973  1.00  0.00    -0.240 C  
HETATM    2  N   UNL     1      -6.251  19.781  64.073  1.00  0.00    -0.141 N  
HETATM    3  C   UNL     1      -5.878  18.456  64.165  1.00  0.00     0.548 C  
HETATM    4  H   UNL     1      -6.836  20.183  64.805  1.00  0.00     0.000 HD 
HETATM    5  O   UNL     1      -5.179  17.891  63.333  1.00  0.00     0.637 OA 
ENDROOT
BRANCH   3   6
HETATM    6  C   UNL     1      -6.373  17.770  65.350  1.00  0.00     0.078 A  
HETATM    7  C   UNL     1      -7.644  17.295  65.603  1.00  0.00     0.535 A  
HETATM    8  N   UNL     1      -7.649  16.744  66.870  1.00  0.00    -0.192 NA 
HETATM    9  N   UNL     1      -6.419  16.828  67.450  1.00  0.00    -0.147 NA 
HETATM   10  C   UNL     1      -5.664  17.434  66.528  1.00  0.00    -0.206 A  
BRANCH   8  11
HETATM   11  C   UNL     1      -8.817  16.217  67.531  1.00  0.00    -0.186 A  
HETATM   12  N   UNL     1      -9.217  14.957  67.226  1.00  0.00    -0.197 NA 
HETATM   13  C   UNL     1     -10.161  14.514  68.075  1.00  0.00    -0.233 A  
HETATM   14  C   UNL     1     -10.746  15.213  69.116  1.00  0.00    -0.253 A  
HETATM   15  N   UNL     1     -11.644  14.427  69.801  1.00  0.00    -0.284 NA 
HETATM   16  C   UNL     1     -10.333  16.540  69.286  1.00  0.00    -0.318 A  
HETATM   17  N   UNL     1     -10.862  17.385  70.252  1.00  0.00     0.084 NA 
HETATM   18  N   UNL     1      -9.362  17.023  68.483  1.00  0.00    -0.258 NA 
HETATM   19  C   UNL     1     -11.574  13.253  69.214  1.00  0.00    -0.314 A  
HETATM   20  H1  UNL     1     -10.561  18.352  70.376  1.00  0.00     0.000 HD 
HETATM   21  N   UNL     1     -10.724  13.266  68.133  1.00  0.00    -0.242 NA 
HETATM   22  H2  UNL     1     -10.760  16.919  71.153  1.00  0.00     0.000 HD 
BRANCH  21  23
HETATM   23  C1* UNL     1     -10.478  12.124  67.284  1.00  0.00    -0.218 C  
HETATM   24  O4* UNL     1     -11.251  11.015  67.778  1.00  0.00    -0.274 OA 
HETATM   25  C4* UNL     1     -10.365  10.069  68.410  1.00  0.00    -0.191 C  
HETATM   26  C3* UNL     1      -8.930  10.395  67.968  1.00  0.00    -0.129 C  
HETATM   27  H2* UNL     1      -7.840  11.193  65.637  1.00  0.00     0.000 HD 
HETATM   28  C2* UNL     1      -9.027  11.674  67.130  1.00  0.00    -0.173 C  
HETATM   29  O2* UNL     1      -8.742  11.473  65.734  1.00  0.00    -0.133 OA 
HETATM   30  O3* UNL     1      -8.353   9.328  67.204  1.00  0.00    -0.122 OA 
HETATM   31  H3* UNL     1      -7.466   9.529  66.932  1.00  0.00     0.000 HD 
BRANCH  25  32
HETATM   32  C5* UNL     1     -10.578  10.124  69.930  1.00  0.00    -0.285 C  
HETATM   33  O5* UNL     1      -9.329   9.963  70.606  1.00  0.00    -0.324 OA 
HETATM   34  H5* UNL     1      -9.461   9.997  71.546  1.00  0.00     0.000 HD 
ENDBRANCH  25  32
ENDBRANCH  21  23
ENDBRANCH   8  11
ENDBRANCH   3   6
TORSDOF 4
ENDMDL
MODEL      210
REMARK 921   NORMALIZED FREE ENERGY PREDICTED BY IDOCK:   -2.53 KCAL/MOL
REMARK 922        TOTAL FREE ENERGY PREDICTED BY IDOCK:   -3.64 KCAL/MOL
REMARK 923 INTER-LIGAND FREE ENERGY PREDICTED BY IDOCK:   -2.96 KCAL/MOL
REMARK 924 INTRA-LIGAND FREE ENERGY PREDICTED BY IDOCK:   -0.67 KCAL/MOL
REMARK 927      BINDING AFFINITY PREDICTED BY RF-SCORE:    0.00 PKD
ROOT
HETATM    1  C   UNL     1      -9.992  12.902  68.782  1.00  0.00     0.002 C  
HETATM    2  N   UNL     1      -9.706  11.508  68.994  1.00  0.00    -0.415 N  
HETATM    3  C   UNL     1     -10.625  10.526  68.692  1.00  0.00    -0.200 C  
HETATM    4  H   UNL     1      -8.800  11.240  69.377  1.00  0.00     0.000 HD 
HETATM    5  O   UNL     1     -11.736  10.757  68.230  1.00  0.00    -0.468 OA 
ENDROOT
BRANCH   3   6
HETATM    6  C   UNL     1     -10.166   9.168  68.953  1.00  0.00    -0.221 A  
HETATM    7  C   UNL     1      -8.918   8.623  68.734  1.00  0.00    -0.138 A  
HETATM    8  N   UNL     1      -8.961   7.294  69.106  1.00  0.00    -0.135 NA 
HETATM    9  N   UNL     1     -10.194   6.953  69.579  1.00  0.00    -0.180 NA 
HETATM   10  C   UNL     1     -10.901   8.085  69.491  1.00  0.00    -0.129 A  
BRANCH   8  11
HETATM   11  C   UNL     1      -7.874   6.361  68.947  1.00  0.00    -0.110 A  
HETATM   12  N   UNL     1      -7.482   5.637  70.027  1.00  0.00    -0.069 NA 
HETATM   13  C   UNL     1      -6.633   4.652  69.685  1.00  0.00    -0.033 A  
HETATM   14  C   UNL     1      -6.127   4.381  68.426  1.00  0.00    -0.031 A  
HETATM   15  N   UNL     1      -5.318   3.269  68.444  1.00  0.00    -0.012 NA 
HETATM   16  C   UNL     1      -6.517   5.247  67.398  1.00  0.00    -0.052 A  
HETATM   17  N   UNL     1      -6.055   5.137  66.093  1.00  0.00    -0.029 NA 
HETATM   18  N   UNL     1      -7.396   6.231  67.679  1.00  0.00    -0.082 NA 
HETATM   19  C   UNL     1      -5.366   2.841  69.686  1.00  0.00    -0.012 A  
HETATM   20  H1  UNL     1      -6.340   5.768  65.344  1.00  0.00     0.000 HD 
HETATM   21  N   UNL     1      -6.112   3.672  70.489  1.00  0.00    -0.018 NA 
HETATM   22  H2  UNL     1      -6.252   4.187  65.780  1.00  0.00     0.000 HD 
BRANCH  21  23
HETATM   23  C1* UNL     1      -6.310   3.464  71.904  1.00  0.00    -0.015 C  
HETATM   24  O4* UNL     1      -7.245   2.385  72.079  1.00  0.00    -0.036 OA 
HETATM   25  C4* UNL     1      -8.509   2.924  72.519  1.00  0.00    -0.074 C  
HETATM   26  C3* UNL     1      -8.265   4.357  73.015  1.00  0.00    -0.095 C  
HETATM   27  H2* UNL     1      -6.281   5.530  74.409  1.00  0.00     0.000 HD 
HETATM   28  C2* UNL     1      -6.794   4.661  72.720  1.00  0.00    -0.065 C  
HETATM   29  O2* UNL     1      -5.980   4.785  73.901  1.00  0.00    -0.024 OA 
HETATM   30  O3* UNL     1      -8.543   4.490  74.415  1.00  0.00    -0.105 OA 
HETATM   31  H3* UNL     1      -8.393   5.377  74.721  1.00  0.00     0.000 HD 
BRANCH  25  32
HETATM   32  C5* UNL     1      -9.521   2.823  71.369  1.00  0.00    -0.146 C  
HETATM   33  O5* UNL     1      -8.945   2.115  70.269  1.00  0.00    -0.070 OA 
HETATM   34  H5* UNL     1      -9.571   2.053  69.558  1.00  0.00     0.000 HD 
ENDBRANCH  25  32
ENDBRANCH  21  23
ENDBRANCH   8  11
ENDBRANCH   3   6
TORSDOF 4
ENDMDL
MODEL      211
REMARK 921   NORMALIZED FREE ENERGY PREDICTED BY IDOCK:   -2.37 KCAL/MOL
REMARK 922        TOTAL FREE ENERGY PREDICTED BY IDOCK:   -3.44 KCAL/MOL
REMARK 923 INTER-LIGAND FREE ENERGY PREDICTED BY IDOCK:   -2.64 KCAL/MOL
REMARK 924 INTRA-LIGAND FREE ENERGY PREDICTED BY IDOCK:   -0.80 KCAL/MOL
REMARK 927      BINDING AFFINITY PREDICTED BY RF-SCORE:    0.00 PKD
ROOT
HETATM    1  C   UNL     1      -9.724  13.540  68.001  1.00  0.00    -0.228 C  
HETATM    2  N   UNL     1      -9.624  12.108  68.080  1.00  0.00    -0.204 N  
HETATM    3  C   UNL     1     -10.599  11.283  67.561  1.00  0.00    -0.218 C  
HETATM    4  H   UNL     1      -8.811  11.691  68.533  1.00  0.00     0.000 HD 
HETATM    5  O   UNL     1     -11.609  11.697  67.003  1.00  0.00    -0.500 OA 
ENDROOT
BRANCH   3   6
HETATM    6  C   UNL     1     -10.332   9.860  67.714  1.00  0.00    -0.268 A  
HETATM    7  C   UNL     1      -9.241   9.246  68.295  1.00  0.00    -0.131 A  
HETATM    8  N   UNL     1      -9.411   7.880  68.181  1.00  0.00    -0.142 NA 
HETATM    9  N   UNL     1     -10.586   7.578  67.559  1.00  0.00    -0.264 NA 
HETATM   10  C   UNL     1     -11.131   8.770  67.295  1.00  0.00     0.436 A  
BRANCH   8  11
HETATM   11  C   UNL     1      -8.441   6.895  68.593  1.00  0.00    -0.121 A  
HETATM   12  N   UNL     1      -7.974   6.023  67.664  1.00  0.00    -0.101 NA 
HETATM   13  C   UNL     1      -6.918   5.326  68.120  1.00  0.00    -0.061 A  
HETATM   14  C   UNL     1      -6.357   5.388  69.383  1.00  0.00    -0.034 A  
HETATM   15  N   UNL     1      -5.259   4.564  69.481  1.00  0.00    -0.003 NA 
HETATM   16  C   UNL     1      -6.975   6.247  70.299  1.00  0.00    -0.062 A  
HETATM   17  N   UNL     1      -6.561   6.382  71.618  1.00  0.00    -0.053 NA 
HETATM   18  N   UNL     1      -8.016   6.997  69.882  1.00  0.00    -0.121 NA 
HETATM   19  C   UNL     1      -5.127   4.042  68.282  1.00  0.00    -0.007 A  
HETATM   20  H1  UNL     1      -7.011   7.008  72.285  1.00  0.00     0.000 HD 
HETATM   21  N   UNL     1      -6.135   4.436  67.433  1.00  0.00    -0.027 NA 
HETATM   22  H2  UNL     1      -5.569   6.618  71.603  1.00  0.00     0.000 HD 
BRANCH  21  23
HETATM   23  C1* UNL     1      -6.259   3.993  66.064  1.00  0.00    -0.032 C  
HETATM   24  O4* UNL     1      -5.449   4.846  65.235  1.00  0.00    -0.013 OA 
HETATM   25  C4* UNL     1      -6.311   5.717  64.475  1.00  0.00    -0.033 C  
HETATM   26  C3* UNL     1      -7.734   5.143  64.530  1.00  0.00    -0.087 C  
HETATM   27  H2* UNL     1      -8.733   2.642  64.454  1.00  0.00     0.000 HD 
HETATM   28  C2* UNL     1      -7.667   3.941  65.477  1.00  0.00    -0.085 C  
HETATM   29  O2* UNL     1      -7.857   2.675  64.820  1.00  0.00    -0.076 OA 
HETATM   30  O3* UNL     1      -8.198   4.744  63.233  1.00  0.00    -0.093 OA 
HETATM   31  H3* UNL     1      -9.078   4.389  63.267  1.00  0.00     0.000 HD 
BRANCH  25  32
HETATM   32  C5* UNL     1      -6.191   7.144  65.029  1.00  0.00    -0.037 C  
HETATM   33  O5* UNL     1      -7.491   7.715  65.198  1.00  0.00    -0.078 OA 
HETATM   34  H5* UNL     1      -7.417   8.597  65.541  1.00  0.00     0.000 HD 
ENDBRANCH  25  32
ENDBRANCH  21  23
ENDBRANCH   8  11
ENDBRANCH   3   6
TORSDOF 4
ENDMDL
MODEL      212
REMARK 921   NORMALIZED FREE ENERGY PREDICTED BY IDOCK:   -1.89 KCAL/MOL
REMARK 922        TOTAL FREE ENERGY PREDICTED BY IDOCK:   -2.84 KCAL/MOL
REMARK 923 INTER-LIGAND FREE ENERGY PREDICTED BY IDOCK:   -2.53 KCAL/MOL
REMARK 924 INTRA-LIGAND FREE ENERGY PREDICTED BY IDOCK:   -0.31 KCAL/MOL
REMARK 927      BINDING AFFINITY PREDICTED BY RF-SCORE:    0.00 PKD
ROOT
HETATM    1  C   UNL     1     -10.190   3.087  69.864  1.00  0.00     1.219 C  
HETATM    2  N   UNL     1      -9.612   3.703  68.701  1.00  0.00    -0.137 N  
HETATM    3  C   UNL     1      -9.009   2.958  67.710  1.00  0.00    -0.159 C  
HETATM    4  H   UNL     1      -9.648   4.718  68.606  1.00  0.00     0.000 HD 
HETATM    5  O   UNL     1      -8.919   1.736  67.742  1.00  0.00    -0.109 OA 
ENDROOT
BRANCH   3   6
HETATM    6  C   UNL     1      -8.490   3.740  66.596  1.00  0.00    -0.106 A  
HETATM    7  C   UNL     1      -8.496   5.109  66.428  1.00  0.00    -0.112 A  
HETATM    8  N   UNL     1      -7.922   5.391  65.204  1.00  0.00    -0.105 NA 
HETATM    9  N   UNL     1      -7.524   4.252  64.571  1.00  0.00    -0.071 NA 
HETATM   10  C   UNL     1      -7.860   3.273  65.418  1.00  0.00    -0.082 A  
BRANCH   8  11
HETATM   11  C   UNL     1      -7.822   6.709  64.628  1.00  0.00    -0.116 A  
HETATM   12  N   UNL     1      -8.778   7.622  64.938  1.00  0.00     0.126 NA 
HETATM   13  C   UNL     1      -8.439   8.858  64.530  1.00  0.00    -0.161 A  
HETATM   14  C   UNL     1      -7.307   9.226  63.825  1.00  0.00    -0.101 A  
HETATM   15  N   UNL     1      -7.270  10.585  63.616  1.00  0.00     0.013 NA 
HETATM   16  C   UNL     1      -6.431   8.193  63.468  1.00  0.00    -0.072 A  
HETATM   17  N   UNL     1      -5.280   8.394  62.719  1.00  0.00    -0.067 NA 
HETATM   18  N   UNL     1      -6.706   6.940  63.884  1.00  0.00    -0.048 NA 
HETATM   19  C   UNL     1      -8.342  11.044  64.224  1.00  0.00     0.293 A  
HETATM   20  H1  UNL     1      -4.642   7.642  62.460  1.00  0.00     0.000 HD 
HETATM   21  N   UNL     1      -9.108  10.032  64.753  1.00  0.00    -0.204 NA 
HETATM   22  H2  UNL     1      -4.729   9.109  63.194  1.00  0.00     0.000 HD 
BRANCH  21  23
HETATM   23  C1* UNL     1     -10.356  10.243  65.448  1.00  0.00    -0.163 C  
HETATM   24  O4* UNL     1     -11.236  10.988  64.588  1.00  0.00    -0.105 OA 
HETATM   25  C4* UNL     1     -11.343  12.339  65.083  1.00  0.00    -0.329 C  
HETATM   26  C3* UNL     1     -10.820  12.358  66.527  1.00  0.00    -0.250 C  
HETATM   27  H2* UNL     1     -11.023  10.649  68.600  1.00  0.00     0.000 HD 
HETATM   28  C2* UNL     1     -10.286  10.949  66.801  1.00  0.00    -0.241 C  
HETATM   29  O2* UNL     1     -11.066  10.210  67.759  1.00  0.00    -0.295 OA 
HETATM   30  O3* UNL     1     -11.851  12.703  67.462  1.00  0.00    -0.366 OA 
HETATM   31  H3* UNL     1     -11.527  12.715  68.355  1.00  0.00     0.000 HD 
BRANCH  25  32
HETATM   32  C5* UNL     1     -10.588  13.279  64.132  1.00  0.00    -0.309 C  
HETATM   33  O5* UNL     1     -10.472  14.578  64.718  1.00  0.00    -0.474 OA 
HETATM   34  H5* UNL     1     -10.005  15.160  64.130  1.00  0.00     0.000 HD 
ENDBRANCH  25  32
ENDBRANCH  21  23
ENDBRANCH   8  11
ENDBRANCH   3   6
TORSDOF 4
ENDMDL
MODEL      213
REMARK 921   NORMALIZED FREE ENERGY PREDICTED BY IDOCK:    1.93 KCAL/MOL
REMARK 922        TOTAL FREE ENERGY PREDICTED BY IDOCK:    1.87 KCAL/MOL
REMARK 923 INTER-LIGAND FREE ENERGY PREDICTED BY IDOCK:    2.88 KCAL/MOL
REMARK 924 INTRA-LIGAND FREE ENERGY PREDICTED BY IDOCK:   -1.01 KCAL/MOL
REMARK 927      BINDING AFFINITY PREDICTED BY RF-SCORE:    0.00 PKD
ROOT
HETATM    1  C   UNL     1     -13.973   7.544  72.316  1.00  0.00     0.067 C  
HETATM    2  N   UNL     1     -12.955   7.791  71.330  1.00  0.00    -0.457 N  
HETATM    3  C   UNL     1     -12.722   9.054  70.828  1.00  0.00     0.138 C  
HETATM    4  H   UNL     1     -12.389   7.012  70.994  1.00  0.00     0.000 HD 
HETATM    5  O   UNL     1     -13.353  10.046  71.174  1.00  0.00    -0.380 OA 
ENDROOT
BRANCH   3   6
HETATM    6  C   UNL     1     -11.645   9.127  69.851  1.00  0.00     0.119 A  
HETATM    7  C   UNL     1     -11.302   8.212  68.877  1.00  0.00     0.676 A  
HETATM    8  N   UNL     1     -10.194   8.696  68.208  1.00  0.00    -0.193 NA 
HETATM    9  N   UNL     1      -9.810   9.907  68.702  1.00  0.00    -0.154 NA 
HETATM   10  C   UNL     1     -10.691  10.158  69.676  1.00  0.00    -0.264 A  
BRANCH   8  11
HETATM   11  C   UNL     1      -9.483   7.985  67.175  1.00  0.00    -0.162 A  
HETATM   12  N   UNL     1      -8.661   8.690  66.357  1.00  0.00    -0.114 NA 
HETATM   13  C   UNL     1      -7.892   7.882  65.606  1.00  0.00    -0.109 A  
HETATM   14  C   UNL     1      -7.917   6.499  65.569  1.00  0.00    -0.117 A  
HETATM   15  N   UNL     1      -6.958   6.006  64.714  1.00  0.00    -0.053 NA 
HETATM   16  C   UNL     1      -8.870   5.870  66.380  1.00  0.00    -0.134 A  
HETATM   17  N   UNL     1      -9.053   4.494  66.415  1.00  0.00    -0.117 NA 
HETATM   18  N   UNL     1      -9.642   6.633  67.180  1.00  0.00    -0.133 NA 
HETATM   19  C   UNL     1      -6.329   7.072  64.271  1.00  0.00    -0.036 A  
HETATM   20  H1  UNL     1      -9.746   4.037  67.006  1.00  0.00     0.000 HD 
HETATM   21  N   UNL     1      -6.886   8.236  64.745  1.00  0.00    -0.067 NA 
HETATM   22  H2  UNL     1      -8.148   4.073  66.628  1.00  0.00     0.000 HD 
BRANCH  21  23
HETATM   23  C1* UNL     1      -6.418   9.557  64.398  1.00  0.00    -0.095 C  
HETATM   24  O4* UNL     1      -5.181   9.797  65.091  1.00  0.00    -0.043 OA 
HETATM   25  C4* UNL     1      -5.416  10.738  66.159  1.00  0.00    -0.114 C  
HETATM   26  C3* UNL     1      -6.768  11.419  65.902  1.00  0.00     0.351 C  
HETATM   27  H2* UNL     1      -8.018  12.289  63.679  1.00  0.00     0.000 HD 
HETATM   28  C2* UNL     1      -7.364  10.723  64.674  1.00  0.00     0.309 C  
HETATM   29  O2* UNL     1      -7.429  11.563  63.508  1.00  0.00     1.252 OA 
HETATM   30  O3* UNL     1      -6.619  12.826  65.668  1.00  0.00     2.802 OA 
HETATM   31  H3* UNL     1      -7.456  13.247  65.509  1.00  0.00     0.000 HD 
BRANCH  25  32
HETATM   32  C5* UNL     1      -5.334   9.998  67.502  1.00  0.00    -0.038 C  
HETATM   33  O5* UNL     1      -6.623   9.961  68.120  1.00  0.00    -0.056 OA 
HETATM   34  H5* UNL     1      -6.572   9.504  68.951  1.00  0.00     0.000 HD 
ENDBRANCH  25  32
ENDBRANCH  21  23
ENDBRANCH   8  11
ENDBRANCH   3   6
TORSDOF 4
ENDMDL
MODEL      214
REMARK 921   NORMALIZED FREE ENERGY PREDICTED BY IDOCK:    4.84 KCAL/MOL
REMARK 922        TOTAL FREE ENERGY PREDICTED BY IDOCK:    5.45 KCAL/MOL
REMARK 923 INTER-LIGAND FREE ENERGY PREDICTED BY IDOCK:    5.39 KCAL/MOL
REMARK 924 INTRA-LIGAND FREE ENERGY PREDICTED BY IDOCK:    0.06 KCAL/MOL
REMARK 927      BINDING AFFINITY PREDICTED BY RF-SCORE:    0.00 PKD
ROOT
HETATM    1  C   UNL     1      -5.300  12.710  64.453  1.00  0.00     8.075 C  
HETATM    2  N   UNL     1      -5.820  11.621  65.236  1.00  0.00     0.730 N  
HETATM    3  C   UNL     1      -6.037  11.742  66.592  1.00  0.00    -0.033 C  
HETATM    4  H   UNL     1      -6.033  10.736  64.777  1.00  0.00     0.000 HD 
HETATM    5  O   UNL     1      -5.808  12.766  67.225  1.00  0.00    -0.279 OA 
ENDROOT
BRANCH   3   6
HETATM    6  C   UNL     1      -6.581  10.549  67.226  1.00  0.00    -0.072 A  
HETATM    7  C   UNL     1      -7.702  10.432  68.023  1.00  0.00    -0.092 A  
HETATM    8  N   UNL     1      -7.806   9.113  68.420  1.00  0.00    -0.101 NA 
HETATM    9  N   UNL     1      -6.799   8.358  67.897  1.00  0.00    -0.066 NA 
HETATM   10  C   UNL     1      -6.081   9.227  67.177  1.00  0.00    -0.057 A  
BRANCH   8  11
HETATM   11  C   UNL     1      -8.801   8.607  69.333  1.00  0.00    -0.144 A  
HETATM   12  N   UNL     1      -8.747   7.297  69.683  1.00  0.00    -0.141 NA 
HETATM   13  C   UNL     1      -9.575   7.019  70.706  1.00  0.00    -0.164 A  
HETATM   14  C   UNL     1     -10.447   7.888  71.337  1.00  0.00    -0.206 A  
HETATM   15  N   UNL     1     -11.106   7.267  72.372  1.00  0.00    -0.259 NA 
HETATM   16  C   UNL     1     -10.498   9.194  70.835  1.00  0.00    -0.278 A  
HETATM   17  N   UNL     1     -11.357  10.168  71.328  1.00  0.00    -0.266 NA 
HETATM   18  N   UNL     1      -9.662   9.535  69.833  1.00  0.00    -0.209 NA 
HETATM   19  C   UNL     1     -10.610   6.050  72.400  1.00  0.00    -0.217 A  
HETATM   20  H1  UNL     1     -11.393  11.119  70.963  1.00  0.00     0.000 HD 
HETATM   21  N   UNL     1      -9.713   5.834  71.381  1.00  0.00    -0.165 NA 
HETATM   22  H2  UNL     1     -11.196  10.234  72.333  1.00  0.00     0.000 HD 
BRANCH  21  23
HETATM   23  C1* UNL     1      -9.037   4.580  71.150  1.00  0.00    -0.133 C  
HETATM   24  O4* UNL     1      -9.048   3.825  72.375  1.00  0.00    -0.102 OA 
HETATM   25  C4* UNL     1      -7.722   3.828  72.942  1.00  0.00    -0.073 C  
HETATM   26  C3* UNL     1      -6.740   4.275  71.848  1.00  0.00    -0.027 C  
HETATM   27  H2* UNL     1      -6.560   3.793  69.203  1.00  0.00     0.000 HD 
HETATM   28  C2* UNL     1      -7.600   4.649  70.637  1.00  0.00    -0.054 C  
HETATM   29  O2* UNL     1      -7.454   3.750  69.523  1.00  0.00    -0.052 OA 
HETATM   30  O3* UNL     1      -5.811   3.236  71.511  1.00  0.00    -0.012 OA 
HETATM   31  H3* UNL     1      -5.204   3.513  70.835  1.00  0.00     0.000 HD 
BRANCH  25  32
HETATM   32  C5* UNL     1      -7.715   4.723  74.190  1.00  0.00    -0.093 C  
HETATM   33  O5* UNL     1      -8.544   5.868  73.976  1.00  0.00    -0.120 OA 
HETATM   34  H5* UNL     1      -8.540   6.421  74.749  1.00  0.00     0.000 HD 
ENDBRANCH  25  32
ENDBRANCH  21  23
ENDBRANCH   8  11
ENDBRANCH   3   6
TORSDOF 4
ENDMDL
MODEL      215
REMARK 921   NORMALIZED FREE ENERGY PREDICTED BY IDOCK:    5.82 KCAL/MOL
REMARK 922        TOTAL FREE ENERGY PREDICTED BY IDOCK:    6.67 KCAL/MOL
REMARK 923 INTER-LIGAND FREE ENERGY PREDICTED BY IDOCK:    4.55 KCAL/MOL
REMARK 924 INTRA-LIGAND FREE ENERGY PREDICTED BY IDOCK:    2.13 KCAL/MOL
REMARK 927      BINDING AFFINITY PREDICTED BY RF-SCORE:    0.00 PKD
ROOT
HETATM    1  C   UNL     1     -10.963  17.244  64.939  1.00  0.00     0.347 C  
HETATM    2  N   UNL     1     -10.590  15.857  64.861  1.00  0.00    -0.426 N  
HETATM    3  C   UNL     1     -10.869  14.973  65.881  1.00  0.00    -0.337 C  
HETATM    4  H   UNL     1     -10.106  15.519  64.029  1.00  0.00     0.000 HD 
HETATM    5  O   UNL     1     -11.444  15.292  66.915  1.00  0.00    -0.271 OA 
ENDROOT
BRANCH   3   6
HETATM    6  C   UNL     1     -10.435  13.605  65.631  1.00  0.00    -0.304 A  
HETATM    7  C   UNL     1      -9.665  12.786  66.430  1.00  0.00    -0.261 A  
HETATM    8  N   UNL     1      -9.487  11.588  65.766  1.00  0.00    -0.232 NA 
HETATM    9  N   UNL     1     -10.129  11.589  64.563  1.00  0.00    -0.262 NA 
HETATM   10  C   UNL     1     -10.700  12.796  64.500  1.00  0.00    -0.358 A  
BRANCH   8  11
HETATM   11  C   UNL     1      -8.666  10.501  66.239  1.00  0.00    -0.151 A  
HETATM   12  N   UNL     1      -9.252   9.524  66.976  1.00  0.00    -0.137 NA 
HETATM   13  C   UNL     1      -8.435   8.469  67.147  1.00  0.00    -0.118 A  
HETATM   14  C   UNL     1      -7.128   8.343  66.711  1.00  0.00    -0.074 A  
HETATM   15  N   UNL     1      -6.614   7.108  67.028  1.00  0.00    -0.057 NA 
HETATM   16  C   UNL     1      -6.583   9.448  66.045  1.00  0.00    -0.073 A  
HETATM   17  N   UNL     1      -5.272   9.495  65.591  1.00  0.00    -0.038 NA 
HETATM   18  N   UNL     1      -7.372  10.518  65.815  1.00  0.00    -0.146 NA 
HETATM   19  C   UNL     1      -7.608   6.473  67.610  1.00  0.00    -0.105 A  
HETATM   20  H1  UNL     1      -4.876  10.300  65.106  1.00  0.00     0.000 HD 
HETATM   21  N   UNL     1      -8.719   7.271  67.748  1.00  0.00    -0.126 NA 
HETATM   22  H2  UNL     1      -5.127   8.680  64.996  1.00  0.00     0.000 HD 
BRANCH  21  23
HETATM   23  C1* UNL     1      -9.947   6.846  68.378  1.00  0.00    -0.147 C  
HETATM   24  O4* UNL     1     -11.019   6.996  67.431  1.00  0.00    -0.292 OA 
HETATM   25  C4* UNL     1     -11.833   8.123  67.817  1.00  0.00     3.011 C  
HETATM   26  C3* UNL     1     -11.496   8.473  69.274  1.00  0.00     0.616 C  
HETATM   27  H2* UNL     1     -10.950   6.999  71.462  1.00  0.00     0.000 HD 
HETATM   28  C2* UNL     1     -10.341   7.549  69.674  1.00  0.00    -0.225 C  
HETATM   29  O2* UNL     1     -10.704   6.561  70.656  1.00  0.00    -0.226 OA 
HETATM   30  O3* UNL     1     -12.623   8.285  70.141  1.00  0.00     0.151 OA 
HETATM   31  H3* UNL     1     -12.414   8.502  71.042  1.00  0.00     0.000 HD 
BRANCH  25  32
HETATM   32  C5* UNL     1     -11.594   9.272  66.827  1.00  0.00     2.759 C  
HETATM   33  O5* UNL     1     -11.114   8.755  65.584  1.00  0.00     2.025 OA 
HETATM   34  H5* UNL     1     -10.967   9.466  64.971  1.00  0.00     0.000 HD 
ENDBRANCH  25  32
ENDBRANCH  21  23
ENDBRANCH   8  11
ENDBRANCH   3   6
TORSDOF 4
ENDMDL
MODEL      216
REMARK 921   NORMALIZED FREE ENERGY PREDICTED BY IDOCK:   11.80 KCAL/MOL
REMARK 922        TOTAL FREE ENERGY PREDICTED BY IDOCK:   14.05 KCAL/MOL
REMARK 923 INTER-LIGAND FREE ENERGY PREDICTED BY IDOCK:   14.64 KCAL/MOL
REMARK 924 INTRA-LIGAND FREE ENERGY PREDICTED BY IDOCK:   -0.60 KCAL/MOL
REMARK 927      BINDING AFFINITY PREDICTED BY RF-SCORE:    0.00 PKD
ROOT
HETATM    1  C   UNL     1      -5.459  13.225  64.250  1.00  0.00    13.967 C  
HETATM    2  N   UNL     1      -5.870  12.115  65.068  1.00  0.00     3.267 N  
HETATM    3  C   UNL     1      -6.066  12.249  66.426  1.00  0.00     1.043 C  
HETATM    4  H   UNL     1      -6.021  11.206  64.632  1.00  0.00     0.000 HD 
HETATM    5  O   UNL     1      -5.907  13.302  67.032  1.00  0.00    -0.211 OA 
ENDROOT
BRANCH   3   6
HETATM    6  C   UNL     1      -6.496  11.031  67.098  1.00  0.00    -0.084 A  
HETATM    7  C   UNL     1      -7.745  10.713  67.589  1.00  0.00    -0.097 A  
HETATM    8  N   UNL     1      -7.669   9.462  68.170  1.00  0.00    -0.083 NA 
HETATM    9  N   UNL     1      -6.414   8.942  68.061  1.00  0.00    -0.056 NA 
HETATM   10  C   UNL     1      -5.726   9.885  67.410  1.00  0.00    -0.046 A  
BRANCH   8  11
HETATM   11  C   UNL     1      -8.751   8.815  68.872  1.00  0.00    -0.134 A  
HETATM   12  N   UNL     1      -8.512   7.614  69.456  1.00  0.00    -0.131 NA 
HETATM   13  C   UNL     1      -9.521   7.243  70.264  1.00  0.00    -0.165 A  
HETATM   14  C   UNL     1     -10.711   7.915  70.480  1.00  0.00    -0.233 A  
HETATM   15  N   UNL     1     -11.491   7.261  71.405  1.00  0.00    -0.258 NA 
HETATM   16  C   UNL     1     -10.901   9.097  69.753  1.00  0.00    -0.211 A  
HETATM   17  N   UNL     1     -12.061   9.857  69.823  1.00  0.00    -0.460 NA 
HETATM   18  N   UNL     1      -9.904   9.533  68.956  1.00  0.00    -0.170 NA 
HETATM   19  C   UNL     1     -10.768   6.229  71.781  1.00  0.00    -0.236 A  
HETATM   20  H1  UNL     1     -12.199  10.717  69.294  1.00  0.00     0.000 HD 
HETATM   21  N   UNL     1      -9.585   6.147  71.084  1.00  0.00    -0.174 NA 
HETATM   22  H2  UNL     1     -12.223  10.075  70.806  1.00  0.00     0.000 HD 
BRANCH  21  23
HETATM   23  C1* UNL     1      -8.610   5.098  71.268  1.00  0.00    -0.127 C  
HETATM   24  O4* UNL     1      -8.071   4.748  69.981  1.00  0.00    -0.067 OA 
HETATM   25  C4* UNL     1      -8.596   3.464  69.585  1.00  0.00    -0.064 C  
HETATM   26  C3* UNL     1      -9.190   2.791  70.831  1.00  0.00    -0.136 C  
HETATM   27  H2* UNL     1      -8.438   2.669  73.415  1.00  0.00     0.000 HD 
HETATM   28  C2* UNL     1      -9.085   3.822  71.959  1.00  0.00    -0.116 C  
HETATM   29  O2* UNL     1      -8.143   3.463  72.985  1.00  0.00    -0.071 OA 
HETATM   30  O3* UNL     1      -8.487   1.589  71.173  1.00  0.00    -0.046 OA 
HETATM   31  H3* UNL     1      -8.855   1.172  71.943  1.00  0.00     0.000 HD 
BRANCH  25  32
HETATM   32  C5* UNL     1      -9.603   3.668  68.444  1.00  0.00    -0.096 C  
HETATM   33  O5* UNL     1     -10.152   4.987  68.505  1.00  0.00    -0.162 OA 
HETATM   34  H5* UNL     1     -10.775   5.113  67.799  1.00  0.00     0.000 HD 
ENDBRANCH  25  32
ENDBRANCH  21  23
ENDBRANCH   8  11
ENDBRANCH   3   6
TORSDOF 4
ENDMDL
MODEL      217
REMARK 921   NORMALIZED FREE ENERGY PREDICTED BY IDOCK:   16.42 KCAL/MOL
REMARK 922        TOTAL FREE ENERGY PREDICTED BY IDOCK:   19.75 KCAL/MOL
REMARK 923 INTER-LIGAND FREE ENERGY PREDICTED BY IDOCK:   20.24 KCAL/MOL
REMARK 924 INTRA-LIGAND FREE ENERGY PREDICTED BY IDOCK:   -0.49 KCAL/MOL
REMARK 927      BINDING AFFINITY PREDICTED BY RF-SCORE:    0.00 PKD
ROOT
HETATM    1  C   UNL     1     -14.131  14.769  74.016  1.00  0.00     5.062 C  
HETATM    2  N   UNL     1     -13.066  14.763  73.049  1.00  0.00    -0.493 N  
HETATM    3  C   UNL     1     -12.023  15.662  73.113  1.00  0.00    -0.472 C  
HETATM    4  H   UNL     1     -13.083  14.076  72.296  1.00  0.00     0.000 HD 
HETATM    5  O   UNL     1     -11.922  16.520  73.982  1.00  0.00    -0.359 OA 
ENDROOT
BRANCH   3   6
HETATM    6  C   UNL     1     -11.024  15.505  72.065  1.00  0.00     0.071 A  
HETATM    7  C   UNL     1     -10.215  16.467  71.496  1.00  0.00     2.876 A  
HETATM    8  N   UNL     1      -9.449  15.857  70.521  1.00  0.00     0.954 NA 
HETATM    9  N   UNL     1      -9.720  14.523  70.443  1.00  0.00     1.061 NA 
HETATM   10  C   UNL     1     -10.655  14.325  71.377  1.00  0.00     2.473 A  
BRANCH   8  11
HETATM   11  C   UNL     1      -8.538  16.547  69.642  1.00  0.00     0.498 A  
HETATM   12  N   UNL     1      -8.909  16.736  68.350  1.00  0.00    -0.228 NA 
HETATM   13  C   UNL     1      -8.083  17.587  67.714  1.00  0.00    -0.221 A  
HETATM   14  C   UNL     1      -6.946  18.188  68.223  1.00  0.00    -0.233 A  
HETATM   15  N   UNL     1      -6.373  19.032  67.300  1.00  0.00    -0.187 NA 
HETATM   16  C   UNL     1      -6.596  17.849  69.536  1.00  0.00    -0.143 A  
HETATM   17  N   UNL     1      -5.457  18.329  70.169  1.00  0.00    -0.237 NA 
HETATM   18  N   UNL     1      -7.409  17.028  70.231  1.00  0.00     1.520 NA 
HETATM   19  C   UNL     1      -7.176  18.981  66.260  1.00  0.00    -0.248 A  
HETATM   20  H1  UNL     1      -5.202  18.083  71.125  1.00  0.00     0.000 HD 
HETATM   21  N   UNL     1      -8.202  18.084  66.442  1.00  0.00    -0.348 NA 
HETATM   22  H2  UNL     1      -5.486  19.347  70.115  1.00  0.00     0.000 HD 
BRANCH  21  23
HETATM   23  C1* UNL     1      -9.214  17.800  65.452  1.00  0.00     1.319 C  
HETATM   24  O4* UNL     1      -9.957  19.007  65.204  1.00  0.00     0.335 OA 
HETATM   25  C4* UNL     1     -11.263  18.886  65.804  1.00  0.00     0.678 C  
HETATM   26  C3* UNL     1     -11.505  17.402  66.118  1.00  0.00     1.438 C  
HETATM   27  H2* UNL     1     -10.921  15.110  64.827  1.00  0.00     0.000 HD 
HETATM   28  C2* UNL     1     -10.200  16.679  65.770  1.00  0.00    -0.307 C  
HETATM   29  O2* UNL     1     -10.307  15.808  64.629  1.00  0.00    -0.381 OA 
HETATM   30  O3* UNL     1     -12.600  16.870  65.360  1.00  0.00     3.393 OA 
HETATM   31  H3* UNL     1     -12.750  15.952  65.554  1.00  0.00     0.000 HD 
BRANCH  25  32
HETATM   32  C5* UNL     1     -11.334  19.804  67.033  1.00  0.00     0.403 C  
HETATM   33  O5* UNL     1     -12.394  19.386  67.897  1.00  0.00     2.013 OA 
HETATM   34  H5* UNL     1     -12.437  19.953  68.657  1.00  0.00     0.000 HD 
ENDBRANCH  25  32
ENDBRANCH  21  23
ENDBRANCH   8  11
ENDBRANCH   3   6
TORSDOF 4
ENDMDL
MODEL      218
REMARK 921   NORMALIZED FREE ENERGY PREDICTED BY IDOCK:   17.18 KCAL/MOL
REMARK 922        TOTAL FREE ENERGY PREDICTED BY IDOCK:   20.68 KCAL/MOL
REMARK 923 INTER-LIGAND FREE ENERGY PREDICTED BY IDOCK:   18.40 KCAL/MOL
REMARK 924 INTRA-LIGAND FREE ENERGY PREDICTED BY IDOCK:    2.28 KCAL/MOL
REMARK 927      BINDING AFFINITY PREDICTED BY RF-SCORE:    0.00 PKD
ROOT
HETATM    1  C   UNL     1     -11.413   4.204  68.982  1.00  0.00     7.190 C  
HETATM    2  N   UNL     1     -11.767   5.589  68.830  1.00  0.00     1.655 N  
HETATM    3  C   UNL     1     -11.434   6.532  69.779  1.00  0.00    -0.379 C  
HETATM    4  H   UNL     1     -12.279   5.882  67.997  1.00  0.00     0.000 HD 
HETATM    5  O   UNL     1     -10.822   6.269  70.808  1.00  0.00    -0.249 OA 
ENDROOT
BRANCH   3   6
HETATM    6  C   UNL     1     -11.856   7.888  69.458  1.00  0.00     0.936 A  
HETATM    7  C   UNL     1     -11.101   9.043  69.436  1.00  0.00     0.018 A  
HETATM    8  N   UNL     1     -11.937  10.092  69.106  1.00  0.00     0.080 NA 
HETATM    9  N   UNL     1     -13.212   9.660  68.895  1.00  0.00     3.964 NA 
HETATM   10  C   UNL     1     -13.148   8.340  69.098  1.00  0.00     6.453 A  
BRANCH   8  11
HETATM   11  C   UNL     1     -11.538  11.477  69.065  1.00  0.00    -0.318 A  
HETATM   12  N   UNL     1     -10.256  11.769  68.730  1.00  0.00    -0.195 NA 
HETATM   13  C   UNL     1     -10.087  13.084  68.502  1.00  0.00    -0.192 A  
HETATM   14  C   UNL     1     -11.034  14.084  68.629  1.00  0.00    -0.263 A  
HETATM   15  N   UNL     1     -10.516  15.308  68.271  1.00  0.00    -0.240 NA 
HETATM   16  C   UNL     1     -12.301  13.691  69.076  1.00  0.00    -0.041 A  
HETATM   17  N   UNL     1     -13.341  14.583  69.301  1.00  0.00     1.094 NA 
HETATM   18  N   UNL     1     -12.534  12.379  69.284  1.00  0.00     0.175 NA 
HETATM   19  C   UNL     1      -9.286  15.049  67.888  1.00  0.00    -0.182 A  
HETATM   20  H1  UNL     1     -14.264  14.296  69.626  1.00  0.00     0.000 HD 
HETATM   21  N   UNL     1      -8.961  13.723  68.053  1.00  0.00    -0.179 NA 
HETATM   22  H2  UNL     1     -13.474  15.117  68.443  1.00  0.00     0.000 HD 
BRANCH  21  23
HETATM   23  C1* UNL     1      -7.667  13.163  67.743  1.00  0.00    -0.153 C  
HETATM   24  O4* UNL     1      -7.847  12.100  66.791  1.00  0.00    -0.109 OA 
HETATM   25  C4* UNL     1      -7.647  10.835  67.456  1.00  0.00    -0.094 C  
HETATM   26  C3* UNL     1      -6.936  11.108  68.789  1.00  0.00    -0.088 C  
HETATM   27  H2* UNL     1      -4.987  12.810  69.542  1.00  0.00     0.000 HD 
HETATM   28  C2* UNL     1      -6.843  12.632  68.914  1.00  0.00    -0.097 C  
HETATM   29  O2* UNL     1      -5.500  13.140  68.814  1.00  0.00    -0.070 OA 
HETATM   30  O3* UNL     1      -5.631  10.513  68.828  1.00  0.00    -0.042 OA 
HETATM   31  H3* UNL     1      -5.192  10.682  69.653  1.00  0.00     0.000 HD 
BRANCH  25  32
HETATM   32  C5* UNL     1      -9.003  10.130  67.604  1.00  0.00    -0.131 C  
HETATM   33  O5* UNL     1      -9.257   9.312  66.459  1.00  0.00    -0.145 OA 
HETATM   34  H5* UNL     1     -10.095   8.875  66.550  1.00  0.00     0.000 HD 
ENDBRANCH  25  32
ENDBRANCH  21  23
ENDBRANCH   8  11
ENDBRANCH   3   6
TORSDOF 4
ENDMDL
MODEL      219
REMARK 921   NORMALIZED FREE ENERGY PREDICTED BY IDOCK:   17.25 KCAL/MOL
REMARK 922        TOTAL FREE ENERGY PREDICTED BY IDOCK:   20.77 KCAL/MOL
REMARK 923 INTER-LIGAND FREE ENERGY PREDICTED BY IDOCK:   20.04 KCAL/MOL
REMARK 924 INTRA-LIGAND FREE ENERGY PREDICTED BY IDOCK:    0.74 KCAL/MOL
REMARK 927      BINDING AFFINITY PREDICTED BY RF-SCORE:    0.00 PKD
ROOT
HETATM    1  C   UNL     1     -10.077   6.731  71.387  1.00  0.00    -0.182 C  
HETATM    2  N   UNL     1     -10.561   8.044  71.057  1.00  0.00    -0.211 N  
HETATM    3  C   UNL     1     -10.376   9.119  71.901  1.00  0.00    -0.173 C  
HETATM    4  H   UNL     1     -11.055   8.185  70.176  1.00  0.00     0.000 HD 
HETATM    5  O   UNL     1      -9.796   9.041  72.978  1.00  0.00     0.394 OA 
ENDROOT
BRANCH   3   6
HETATM    6  C   UNL     1     -10.916  10.377  71.406  1.00  0.00     0.816 A  
HETATM    7  C   UNL     1     -10.236  11.513  71.017  1.00  0.00     5.162 A  
HETATM    8  N   UNL     1     -11.168  12.464  70.650  1.00  0.00     1.115 NA 
HETATM    9  N   UNL     1     -12.438  11.983  70.770  1.00  0.00    -0.330 NA 
HETATM   10  C   UNL     1     -12.272  10.732  71.213  1.00  0.00    -0.321 A  
BRANCH   8  11
HETATM   11  C   UNL     1     -10.853  13.817  70.264  1.00  0.00     0.776 A  
HETATM   12  N   UNL     1     -11.291  14.261  69.058  1.00  0.00    -0.256 NA 
HETATM   13  C   UNL     1     -11.134  15.591  68.931  1.00  0.00    -0.282 A  
HETATM   14  C   UNL     1     -10.555  16.458  69.840  1.00  0.00    -0.245 A  
HETATM   15  N   UNL     1     -10.606  17.757  69.392  1.00  0.00     0.062 NA 
HETATM   16  C   UNL     1     -10.046  15.883  71.012  1.00  0.00     1.298 A  
HETATM   17  N   UNL     1      -9.392  16.612  71.996  1.00  0.00     8.393 NA 
HETATM   18  N   UNL     1     -10.209  14.558  71.206  1.00  0.00     1.874 NA 
HETATM   19  C   UNL     1     -11.247  17.689  68.247  1.00  0.00     0.347 A  
HETATM   20  H1  UNL     1      -9.021  16.193  72.849  1.00  0.00     0.000 HD 
HETATM   21  N   UNL     1     -11.547  16.393  67.899  1.00  0.00    -0.004 NA 
HETATM   22  H2  UNL     1     -10.013  17.371  72.276  1.00  0.00     0.000 HD 
BRANCH  21  23
HETATM   23  C1* UNL     1     -12.221  16.019  66.678  1.00  0.00     1.725 C  
HETATM   24  O4* UNL     1     -12.558  14.622  66.754  1.00  0.00    -0.035 OA 
HETATM   25  C4* UNL     1     -11.686  13.881  65.876  1.00  0.00    -0.359 C  
HETATM   26  C3* UNL     1     -11.023  14.877  64.914  1.00  0.00    -0.408 C  
HETATM   27  H2* UNL     1     -11.895  17.078  63.627  1.00  0.00     0.000 HD 
HETATM   28  C2* UNL     1     -11.475  16.268  65.370  1.00  0.00     0.357 C  
HETATM   29  O2* UNL     1     -12.359  16.923  64.441  1.00  0.00     0.941 OA 
HETATM   30  O3* UNL     1     -11.406  14.637  63.553  1.00  0.00     0.144 OA 
HETATM   31  H3* UNL     1     -10.996  15.254  62.958  1.00  0.00     0.000 HD 
BRANCH  25  32
HETATM   32  C5* UNL     1     -10.691  13.076  66.725  1.00  0.00    -0.262 C  
HETATM   33  O5* UNL     1     -11.175  11.744  66.915  1.00  0.00    -0.297 OA 
HETATM   34  H5* UNL     1     -10.559  11.246  67.440  1.00  0.00     0.000 HD 
ENDBRANCH  25  32
ENDBRANCH  21  23
ENDBRANCH   8  11
ENDBRANCH   3   6
TORSDOF 4
ENDMDL
MODEL      220
REMARK 921   NORMALIZED FREE ENERGY PREDICTED BY IDOCK:   18.11 KCAL/MOL
REMARK 922        TOTAL FREE ENERGY PREDICTED BY IDOCK:   21.83 KCAL/MOL
REMARK 923 INTER-LIGAND FREE ENERGY PREDICTED BY IDOCK:   18.63 KCAL/MOL
REMARK 924 INTRA-LIGAND FREE ENERGY PREDICTED BY IDOCK:    3.20 KCAL/MOL
REMARK 927      BINDING AFFINITY PREDICTED BY RF-SCORE:    0.00 PKD
ROOT
HETATM    1  C   UNL     1     -13.643  18.393  73.963  1.00  0.00     8.003 C  
HETATM    2  N   UNL     1     -12.989  18.234  72.692  1.00  0.00     9.099 N  
HETATM    3  C   UNL     1     -12.176  17.153  72.426  1.00  0.00     1.627 C  
HETATM    4  H   UNL     1     -13.130  18.939  71.969  1.00  0.00     0.000 HD 
HETATM    5  O   UNL     1     -11.949  16.261  73.235  1.00  0.00    -0.469 OA 
ENDROOT
BRANCH   3   6
HETATM    6  C   UNL     1     -11.607  17.140  71.085  1.00  0.00     1.419 A  
HETATM    7  C   UNL     1     -11.850  16.256  70.054  1.00  0.00     0.041 A  
HETATM    8  N   UNL     1     -11.060  16.623  68.982  1.00  0.00    -0.276 NA 
HETATM    9  N   UNL     1     -10.318  17.729  69.272  1.00  0.00    -0.217 NA 
HETATM   10  C   UNL     1     -10.662  18.034  70.527  1.00  0.00     1.956 A  
BRANCH   8  11
HETATM   11  C   UNL     1     -10.966  15.892  67.743  1.00  0.00    -0.315 A  
HETATM   12  N   UNL     1     -10.751  14.553  67.800  1.00  0.00    -0.254 NA 
HETATM   13  C   UNL     1     -10.920  13.970  66.599  1.00  0.00    -0.300 A  
HETATM   14  C   UNL     1     -11.216  14.593  65.400  1.00  0.00    -0.347 A  
HETATM   15  N   UNL     1     -11.359  13.675  64.385  1.00  0.00    -0.378 NA 
HETATM   16  C   UNL     1     -11.321  15.989  65.431  1.00  0.00     0.072 A  
HETATM   17  N   UNL     1     -11.563  16.760  64.302  1.00  0.00    -1.117 NA 
HETATM   18  N   UNL     1     -11.196  16.620  66.616  1.00  0.00     0.272 NA 
HETATM   19  C   UNL     1     -11.196  12.508  64.966  1.00  0.00    -0.306 A  
HETATM   20  H1  UNL     1     -11.639  17.777  64.325  1.00  0.00     0.000 HD 
HETATM   21  N   UNL     1     -10.882  12.633  66.299  1.00  0.00    -0.268 NA 
HETATM   22  H2  UNL     1     -12.412  16.403  63.866  1.00  0.00     0.000 HD 
BRANCH  21  23
HETATM   23  C1* UNL     1     -10.620  11.518  67.177  1.00  0.00    -0.237 C  
HETATM   24  O4* UNL     1     -10.996  11.892  68.514  1.00  0.00    -0.209 OA 
HETATM   25  C4* UNL     1      -9.803  12.105  69.295  1.00  0.00     0.548 C  
HETATM   26  C3* UNL     1      -8.623  11.472  68.542  1.00  0.00    -0.140 C  
HETATM   27  H2* UNL     1      -8.335   9.212  67.104  1.00  0.00     0.000 HD 
HETATM   28  C2* UNL     1      -9.191  10.980  67.207  1.00  0.00    -0.148 C  
HETATM   29  O2* UNL     1      -9.224   9.546  67.085  1.00  0.00    -0.132 OA 
HETATM   30  O3* UNL     1      -8.042  10.387  69.279  1.00  0.00    -0.138 OA 
HETATM   31  H3* UNL     1      -7.313   9.996  68.813  1.00  0.00     0.000 HD 
BRANCH  25  32
HETATM   32  C5* UNL     1      -9.641  13.610  69.558  1.00  0.00     0.986 C  
HETATM   33  O5* UNL     1     -10.689  14.073  70.413  1.00  0.00    -0.138 OA 
HETATM   34  H5* UNL     1     -10.589  15.003  70.576  1.00  0.00     0.000 HD 
ENDBRANCH  25  32
ENDBRANCH  21  23
ENDBRANCH   8  11
ENDBRANCH   3   6
TORSDOF 4
ENDMDL
MODEL      221
REMARK 921   NORMALIZED FREE ENERGY PREDICTED BY IDOCK:   25.88 KCAL/MOL
REMARK 922        TOTAL FREE ENERGY PREDICTED BY IDOCK:   31.42 KCAL/MOL
REMARK 923 INTER-LIGAND FREE ENERGY PREDICTED BY IDOCK:   31.62 KCAL/MOL
REMARK 924 INTRA-LIGAND FREE ENERGY PREDICTED BY IDOCK:   -0.20 KCAL/MOL
REMARK 927      BINDING AFFINITY PREDICTED BY RF-SCORE:    0.00 PKD
ROOT
HETATM    1  C   UNL     1      -6.296  14.720  64.794  1.00  0.00    18.453 C  
HETATM    2  N   UNL     1      -7.053  13.779  65.575  1.00  0.00     6.851 N  
HETATM    3  C   UNL     1      -7.326  12.508  65.114  1.00  0.00     5.148 C  
HETATM    4  H   UNL     1      -7.398  14.058  66.493  1.00  0.00     0.000 HD 
HETATM    5  O   UNL     1      -6.954  12.089  64.025  1.00  0.00     3.470 OA 
ENDROOT
BRANCH   3   6
HETATM    6  C   UNL     1      -8.091  11.681  66.038  1.00  0.00     0.216 A  
HETATM    7  C   UNL     1      -7.641  10.676  66.868  1.00  0.00    -0.115 A  
HETATM    8  N   UNL     1      -8.732  10.155  67.536  1.00  0.00    -0.125 NA 
HETATM    9  N   UNL     1      -9.881  10.797  67.183  1.00  0.00    -0.181 NA 
HETATM   10  C   UNL     1      -9.482  11.714  66.295  1.00  0.00    -0.218 A  
BRANCH   8  11
HETATM   11  C   UNL     1      -8.683   9.027  68.433  1.00  0.00    -0.130 A  
HETATM   12  N   UNL     1      -8.623   7.781  67.899  1.00  0.00    -0.122 NA 
HETATM   13  C   UNL     1      -8.347   6.851  68.830  1.00  0.00    -0.121 A  
HETATM   14  C   UNL     1      -8.190   7.049  70.191  1.00  0.00    -0.133 A  
HETATM   15  N   UNL     1      -7.871   5.875  70.832  1.00  0.00    -0.100 NA 
HETATM   16  C   UNL     1      -8.369   8.358  70.655  1.00  0.00    -0.125 A  
HETATM   17  N   UNL     1      -8.294   8.708  71.997  1.00  0.00    -0.317 NA 
HETATM   18  N   UNL     1      -8.612   9.335  69.757  1.00  0.00    -0.144 NA 
HETATM   19  C   UNL     1      -7.791   4.982  69.870  1.00  0.00    -0.070 A  
HETATM   20  H1  UNL     1      -8.424   9.661  72.334  1.00  0.00     0.000 HD 
HETATM   21  N   UNL     1      -8.116   5.513  68.644  1.00  0.00    -0.101 NA 
HETATM   22  H2  UNL     1      -7.392   8.384  72.345  1.00  0.00     0.000 HD 
BRANCH  21  23
HETATM   23  C1* UNL     1      -8.143   4.755  67.416  1.00  0.00    -0.102 C  
HETATM   24  O4* UNL     1      -8.740   3.474  67.685  1.00  0.00    -0.096 OA 
HETATM   25  C4* UNL     1      -7.711   2.463  67.666  1.00  0.00    -0.060 C  
HETATM   26  C3* UNL     1      -6.473   3.059  66.982  1.00  0.00    -0.036 C  
HETATM   27  H2* UNL     1      -6.124   4.700  64.874  1.00  0.00     0.000 HD 
HETATM   28  C2* UNL     1      -6.808   4.529  66.710  1.00  0.00    -0.052 C  
HETATM   29  O2* UNL     1      -6.954   4.841  65.313  1.00  0.00    -0.059 OA 
HETATM   30  O3* UNL     1      -6.158   2.374  65.762  1.00  0.00    -0.022 OA 
HETATM   31  H3* UNL     1      -5.392   2.743  65.339  1.00  0.00     0.000 HD 
BRANCH  25  32
HETATM   32  C5* UNL     1      -7.460   1.981  69.103  1.00  0.00    -0.043 C  
HETATM   33  O5* UNL     1      -8.705   1.735  69.761  1.00  0.00    -0.049 OA 
HETATM   34  H5* UNL     1      -8.550   1.436  70.650  1.00  0.00     0.000 HD 
ENDBRANCH  25  32
ENDBRANCH  21  23
ENDBRANCH   8  11
ENDBRANCH   3   6
TORSDOF 4
ENDMDL
MODEL      222
REMARK 921   NORMALIZED FREE ENERGY PREDICTED BY IDOCK:   30.55 KCAL/MOL
REMARK 922        TOTAL FREE ENERGY PREDICTED BY IDOCK:   37.18 KCAL/MOL
REMARK 923 INTER-LIGAND FREE ENERGY PREDICTED BY IDOCK:   37.71 KCAL/MOL
REMARK 924 INTRA-LIGAND FREE ENERGY PREDICTED BY IDOCK:   -0.54 KCAL/MOL
REMARK 927      BINDING AFFINITY PREDICTED BY RF-SCORE:    0.00 PKD
ROOT
HETATM    1  C   UNL     1      -5.665  10.319  62.995  1.00  0.00    -0.137 C  
HETATM    2  N   UNL     1      -5.746  11.281  64.062  1.00  0.00     0.251 N  
HETATM    3  C   UNL     1      -5.967  10.898  65.368  1.00  0.00     0.014 C  
HETATM    4  H   UNL     1      -5.638  12.272  63.847  1.00  0.00     0.000 HD 
HETATM    5  O   UNL     1      -6.109   9.732  65.716  1.00  0.00    -0.059 OA 
ENDROOT
BRANCH   3   6
HETATM    6  C   UNL     1      -6.005  11.997  66.322  1.00  0.00     0.793 A  
HETATM    7  C   UNL     1      -6.790  12.133  67.448  1.00  0.00    -0.147 A  
HETATM    8  N   UNL     1      -6.502  13.355  68.024  1.00  0.00    -0.114 NA 
HETATM    9  N   UNL     1      -5.541  14.018  67.320  1.00  0.00    -0.202 NA 
HETATM   10  C   UNL     1      -5.246  13.191  66.312  1.00  0.00     3.112 A  
BRANCH   8  11
HETATM   11  C   UNL     1      -7.179  13.901  69.174  1.00  0.00    -0.038 A  
HETATM   12  N   UNL     1      -8.453  13.505  69.420  1.00  0.00     0.717 NA 
HETATM   13  C   UNL     1      -8.874  13.901  70.634  1.00  0.00     4.353 A  
HETATM   14  C   UNL     1      -8.179  14.669  71.552  1.00  0.00     4.447 A  
HETATM   15  N   UNL     1      -8.905  14.844  72.707  1.00  0.00     6.829 NA 
HETATM   16  C   UNL     1      -6.908  15.110  71.161  1.00  0.00     1.110 A  
HETATM   17  N   UNL     1      -6.109  15.928  71.949  1.00  0.00     1.424 NA 
HETATM   18  N   UNL     1      -6.424  14.710  69.967  1.00  0.00    -0.163 NA 
HETATM   19  C   UNL     1     -10.007  14.155  72.514  1.00  0.00     7.419 A  
HETATM   20  H1  UNL     1      -5.184  16.249  71.664  1.00  0.00     0.000 HD 
HETATM   21  N   UNL     1     -10.058  13.603  71.255  1.00  0.00     5.473 NA 
HETATM   22  H2  UNL     1      -6.006  15.472  72.854  1.00  0.00     0.000 HD 
BRANCH  21  23
HETATM   23  C1* UNL     1     -11.166  12.822  70.759  1.00  0.00     1.792 C  
HETATM   24  O4* UNL     1     -12.232  13.719  70.402  1.00  0.00    -0.325 OA 
HETATM   25  C4* UNL     1     -13.284  13.613  71.383  1.00  0.00    -0.283 C  
HETATM   26  C3* UNL     1     -13.056  12.324  72.186  1.00  0.00    -0.301 C  
HETATM   27  H2* UNL     1     -12.220   9.849  71.529  1.00  0.00     0.000 HD 
HETATM   28  C2* UNL     1     -11.728  11.747  71.687  1.00  0.00     1.966 C  
HETATM   29  O2* UNL     1     -11.871  10.518  70.952  1.00  0.00    -0.329 OA 
HETATM   30  O3* UNL     1     -14.123  11.385  71.999  1.00  0.00     0.234 OA 
HETATM   31  H3* UNL     1     -13.981  10.588  72.496  1.00  0.00     0.000 HD 
BRANCH  25  32
HETATM   32  C5* UNL     1     -13.298  14.889  72.238  1.00  0.00    -0.390 C  
HETATM   33  O5* UNL     1     -14.166  14.716  73.361  1.00  0.00     0.266 OA 
HETATM   34  H5* UNL     1     -14.175  15.504  73.890  1.00  0.00     0.000 HD 
ENDBRANCH  25  32
ENDBRANCH  21  23
ENDBRANCH   8  11
ENDBRANCH   3   6
TORSDOF 4
ENDMDL
MODEL      223
REMARK 921   NORMALIZED FREE ENERGY PREDICTED BY IDOCK:   30.63 KCAL/MOL
REMARK 922        TOTAL FREE ENERGY PREDICTED BY IDOCK:   37.28 KCAL/MOL
REMARK 923 INTER-LIGAND FREE ENERGY PREDICTED BY IDOCK:   38.04 KCAL/MOL
REMARK 924 INTRA-LIGAND FREE ENERGY PREDICTED BY IDOCK:   -0.77 KCAL/MOL
REMARK 927      BINDING AFFINITY PREDICTED BY RF-SCORE:    0.00 PKD
ROOT
HETATM    1  C   UNL     1      -5.780  14.120  63.661  1.00  0.00    21.793 C  
HETATM    2  N   UNL     1      -6.022  13.167  64.710  1.00  0.00    10.846 N  
HETATM    3  C   UNL     1      -5.718  13.444  66.026  1.00  0.00     5.485 C  
HETATM    4  H   UNL     1      -6.429  12.262  64.475  1.00  0.00     0.000 HD 
HETATM    5  O   UNL     1      -5.226  14.503  66.399  1.00  0.00     2.215 OA 
ENDROOT
BRANCH   3   6
HETATM    6  C   UNL     1      -6.042  12.375  66.960  1.00  0.00     0.020 A  
HETATM    7  C   UNL     1      -5.953  11.011  66.772  1.00  0.00    -0.099 A  
HETATM    8  N   UNL     1      -6.397  10.392  67.924  1.00  0.00    -0.059 NA 
HETATM    9  N   UNL     1      -6.758  11.306  68.869  1.00  0.00    -0.073 NA 
HETATM   10  C   UNL     1      -6.531  12.487  68.283  1.00  0.00    -0.067 A  
BRANCH   8  11
HETATM   11  C   UNL     1      -6.537   8.966  68.089  1.00  0.00    -0.061 A  
HETATM   12  N   UNL     1      -7.184   8.505  69.190  1.00  0.00    -0.067 NA 
HETATM   13  C   UNL     1      -7.447   7.190  69.099  1.00  0.00    -0.094 A  
HETATM   14  C   UNL     1      -7.086   6.332  68.075  1.00  0.00    -0.082 A  
HETATM   15  N   UNL     1      -7.563   5.061  68.299  1.00  0.00    -0.078 NA 
HETATM   16  C   UNL     1      -6.335   6.887  67.032  1.00  0.00    -0.045 A  
HETATM   17  N   UNL     1      -5.856   6.147  65.959  1.00  0.00    -0.023 NA 
HETATM   18  N   UNL     1      -6.074   8.210  67.056  1.00  0.00    -0.053 NA 
HETATM   19  C   UNL     1      -8.243   5.154  69.420  1.00  0.00    -0.087 A  
HETATM   20  H1  UNL     1      -5.309   6.551  65.200  1.00  0.00     0.000 HD 
HETATM   21  N   UNL     1      -8.165   6.412  69.969  1.00  0.00    -0.123 NA 
HETATM   22  H2  UNL     1      -6.653   5.670  65.539  1.00  0.00     0.000 HD 
BRANCH  21  23
HETATM   23  C1* UNL     1      -8.789   6.790  71.215  1.00  0.00    -0.136 C  
HETATM   24  O4* UNL     1      -7.861   6.539  72.284  1.00  0.00    -0.100 OA 
HETATM   25  C4* UNL     1      -8.301   5.383  73.027  1.00  0.00    -0.112 C  
HETATM   26  C3* UNL     1      -9.768   5.114  72.658  1.00  0.00    -0.152 C  
HETATM   27  H2* UNL     1     -11.887   6.708  72.183  1.00  0.00     0.000 HD 
HETATM   28  C2* UNL     1     -10.118   6.119  71.557  1.00  0.00    -0.192 C  
HETATM   29  O2* UNL     1     -11.061   7.125  71.970  1.00  0.00    -0.234 OA 
HETATM   30  O3* UNL     1     -10.638   5.272  73.788  1.00  0.00    -0.245 OA 
HETATM   31  H3* UNL     1     -11.544   5.105  73.560  1.00  0.00     0.000 HD 
BRANCH  25  32
HETATM   32  C5* UNL     1      -7.357   4.209  72.729  1.00  0.00    -0.072 C  
HETATM   33  O5* UNL     1      -8.110   3.007  72.554  1.00  0.00    -0.061 OA 
HETATM   34  H5* UNL     1      -7.525   2.281  72.370  1.00  0.00     0.000 HD 
ENDBRANCH  25  32
ENDBRANCH  21  23
ENDBRANCH   8  11
ENDBRANCH   3   6
TORSDOF 4
ENDMDL
MODEL      224
REMARK 921   NORMALIZED FREE ENERGY PREDICTED BY IDOCK:   45.89 KCAL/MOL
REMARK 922        TOTAL FREE ENERGY PREDICTED BY IDOCK:   56.11 KCAL/MOL
REMARK 923 INTER-LIGAND FREE ENERGY PREDICTED BY IDOCK:   56.87 KCAL/MOL
REMARK 924 INTRA-LIGAND FREE ENERGY PREDICTED BY IDOCK:   -0.75 KCAL/MOL
REMARK 927      BINDING AFFINITY PREDICTED BY RF-SCORE:    0.00 PKD
ROOT
HETATM    1  C   UNL     1      -5.722  10.404  62.959  1.00  0.00    -0.148 C  
HETATM    2  N   UNL     1      -5.769  11.694  63.593  1.00  0.00     1.368 N  
HETATM    3  C   UNL     1      -5.882  11.827  64.960  1.00  0.00     2.631 C  
HETATM    4  H   UNL     1      -5.718  12.533  63.015  1.00  0.00     0.000 HD 
HETATM    5  O   UNL     1      -5.951  10.875  65.729  1.00  0.00    -0.136 OA 
ENDROOT
BRANCH   3   6
HETATM    6  C   UNL     1      -5.900  13.204  65.435  1.00  0.00     8.629 A  
HETATM    7  C   UNL     1      -6.496  13.716  66.569  1.00  0.00     2.887 A  
HETATM    8  N   UNL     1      -6.273  15.080  66.588  1.00  0.00     1.067 NA 
HETATM    9  N   UNL     1      -5.538  15.475  65.511  1.00  0.00     6.272 NA 
HETATM   10  C   UNL     1      -5.313  14.344  64.836  1.00  0.00    17.105 A  
BRANCH   8  11
HETATM   11  C   UNL     1      -6.812  15.986  67.572  1.00  0.00    -0.176 A  
HETATM   12  N   UNL     1      -7.974  15.651  68.189  1.00  0.00    -0.127 NA 
HETATM   13  C   UNL     1      -8.233  16.455  69.236  1.00  0.00    -0.109 A  
HETATM   14  C   UNL     1      -7.491  17.544  69.659  1.00  0.00     0.516 A  
HETATM   15  N   UNL     1      -8.034  18.105  70.791  1.00  0.00     4.343 NA 
HETATM   16  C   UNL     1      -6.363  17.865  68.894  1.00  0.00    -0.219 A  
HETATM   17  N   UNL     1      -5.547  18.957  69.161  1.00  0.00    -0.202 NA 
HETATM   18  N   UNL     1      -6.038  17.069  67.855  1.00  0.00    -0.130 NA 
HETATM   19  C   UNL     1      -9.064  17.342  71.080  1.00  0.00     6.391 A  
HETATM   20  H1  UNL     1      -4.725  19.190  68.604  1.00  0.00     0.000 HD 
HETATM   21  N   UNL     1      -9.256  16.356  70.142  1.00  0.00     0.976 NA 
HETATM   22  H2  UNL     1      -5.244  18.880  70.131  1.00  0.00     0.000 HD 
BRANCH  21  23
HETATM   23  C1* UNL     1     -10.331  15.393  70.188  1.00  0.00    -0.239 C  
HETATM   24  O4* UNL     1     -11.011  15.409  68.920  1.00  0.00    -0.237 OA 
HETATM   25  C4* UNL     1     -12.291  16.054  69.082  1.00  0.00     0.285 C  
HETATM   26  C3* UNL     1     -12.607  16.111  70.584  1.00  0.00     0.371 C  
HETATM   27  H2* UNL     1     -12.227  14.399  72.629  1.00  0.00     0.000 HD 
HETATM   28  C2* UNL     1     -11.367  15.563  71.297  1.00  0.00    -0.391 C  
HETATM   29  O2* UNL     1     -11.583  14.294  71.939  1.00  0.00     0.137 OA 
HETATM   30  O3* UNL     1     -13.768  15.336  70.912  1.00  0.00    -0.680 OA 
HETATM   31  H3* UNL     1     -13.964  15.372  71.841  1.00  0.00     0.000 HD 
BRANCH  25  32
HETATM   32  C5* UNL     1     -12.245  17.429  68.400  1.00  0.00     2.834 C  
HETATM   33  O5* UNL     1     -12.591  17.303  67.019  1.00  0.00     3.848 OA 
HETATM   34  H5* UNL     1     -12.563  18.154  66.597  1.00  0.00     0.000 HD 
ENDBRANCH  25  32
ENDBRANCH  21  23
ENDBRANCH   8  11
ENDBRANCH   3   6
TORSDOF 4
ENDMDL
MODEL      225
REMARK 921   NORMALIZED FREE ENERGY PREDICTED BY IDOCK:   57.86 KCAL/MOL
REMARK 922        TOTAL FREE ENERGY PREDICTED BY IDOCK:   70.88 KCAL/MOL
REMARK 923 INTER-LIGAND FREE ENERGY PREDICTED BY IDOCK:   71.63 KCAL/MOL
REMARK 924 INTRA-LIGAND FREE ENERGY PREDICTED BY IDOCK:   -0.74 KCAL/MOL
REMARK 927      BINDING AFFINITY PREDICTED BY RF-SCORE:    0.00 PKD
ROOT
HETATM    1  C   UNL     1      -5.755  10.434  62.937  1.00  0.00    -0.145 C  
HETATM    2  N   UNL     1      -5.791  11.832  63.273  1.00  0.00     1.535 N  
HETATM    3  C   UNL     1      -5.842  12.262  64.582  1.00  0.00     6.077 C  
HETATM    4  H   UNL     1      -5.778  12.523  62.523  1.00  0.00     0.000 HD 
HETATM    5  O   UNL     1      -5.862  11.503  65.543  1.00  0.00     0.091 OA 
ENDROOT
BRANCH   3   6
HETATM    6  C   UNL     1      -5.857  13.710  64.742  1.00  0.00    16.153 A  
HETATM    7  C   UNL     1      -6.313  14.453  65.810  1.00  0.00     8.657 A  
HETATM    8  N   UNL     1      -6.152  15.790  65.499  1.00  0.00     5.264 NA 
HETATM    9  N   UNL     1      -5.589  15.946  64.268  1.00  0.00    11.259 NA 
HETATM   10  C   UNL     1      -5.408  14.695  63.831  1.00  0.00    20.576 A  
BRANCH   8  11
HETATM   11  C   UNL     1      -6.591  16.884  66.329  1.00  0.00     0.051 A  
HETATM   12  N   UNL     1      -7.616  16.668  67.191  1.00  0.00    -0.167 NA 
HETATM   13  C   UNL     1      -7.763  17.687  68.057  1.00  0.00    -0.232 A  
HETATM   14  C   UNL     1      -7.041  18.867  68.092  1.00  0.00    -0.250 A  
HETATM   15  N   UNL     1      -7.436  19.662  69.143  1.00  0.00    -0.334 NA 
HETATM   16  C   UNL     1      -6.070  19.034  67.097  1.00  0.00    -0.174 A  
HETATM   17  N   UNL     1      -5.299  20.182  66.969  1.00  0.00    -0.164 NA 
HETATM   18  N   UNL     1      -5.858  18.027  66.225  1.00  0.00    -0.165 NA 
HETATM   19  C   UNL     1      -8.355  18.957  69.766  1.00  0.00     0.847 A  
HETATM   20  H1  UNL     1      -4.592  20.303  66.244  1.00  0.00     0.000 HD 
HETATM   21  N   UNL     1      -8.623  17.773  69.121  1.00  0.00     0.029 NA 
HETATM   22  H2  UNL     1      -4.844  20.344  67.866  1.00  0.00     0.000 HD 
BRANCH  21  23
HETATM   23  C1* UNL     1      -9.609  16.816  69.564  1.00  0.00     0.107 C  
HETATM   24  O4* UNL     1      -9.088  16.125  70.713  1.00  0.00     2.036 OA 
HETATM   25  C4* UNL     1      -8.729  14.782  70.331  1.00  0.00     1.420 C  
HETATM   26  C3* UNL     1      -9.399  14.477  68.983  1.00  0.00    -0.070 C  
HETATM   27  H2* UNL     1     -11.805  15.072  67.927  1.00  0.00     0.000 HD 
HETATM   28  C2* UNL     1     -10.076  15.779  68.545  1.00  0.00    -0.215 C  
HETATM   29  O2* UNL     1     -11.514  15.717  68.561  1.00  0.00    -0.344 OA 
HETATM   30  O3* UNL     1     -10.357  13.416  69.093  1.00  0.00    -0.429 OA 
HETATM   31  H3* UNL     1     -10.771  13.227  68.260  1.00  0.00     0.000 HD 
BRANCH  25  32
HETATM   32  C5* UNL     1      -7.198  14.663  70.309  1.00  0.00     0.304 C  
HETATM   33  O5* UNL     1      -6.734  14.561  68.961  1.00  0.00    -0.093 OA 
HETATM   34  H5* UNL     1      -5.787  14.488  68.947  1.00  0.00     0.000 HD 
ENDBRANCH  25  32
ENDBRANCH  21  23
ENDBRANCH   8  11
ENDBRANCH   3   6
TORSDOF 4
ENDMDL
MODEL      226
REMARK 921   NORMALIZED FREE ENERGY PREDICTED BY IDOCK:   75.03 KCAL/MOL
REMARK 922        TOTAL FREE ENERGY PREDICTED BY IDOCK:   92.07 KCAL/MOL
REMARK 923 INTER-LIGAND FREE ENERGY PREDICTED BY IDOCK:   89.09 KCAL/MOL
REMARK 924 INTRA-LIGAND FREE ENERGY PREDICTED BY IDOCK:    2.97 KCAL/MOL
REMARK 927      BINDING AFFINITY PREDICTED BY RF-SCORE:    0.00 PKD
ROOT
HETATM    1  C   UNL     1     -10.467  17.670  63.822  1.00  0.00     7.928 C  
HETATM    2  N   UNL     1     -10.536  16.243  63.984  1.00  0.00     1.021 N  
HETATM    3  C   UNL     1     -11.370  15.659  64.913  1.00  0.00    -0.315 C  
HETATM    4  H   UNL     1      -9.953  15.647  63.397  1.00  0.00     0.000 HD 
HETATM    5  O   UNL     1     -12.104  16.296  65.660  1.00  0.00     1.185 OA 
ENDROOT
BRANCH   3   6
HETATM    6  C   UNL     1     -11.327  14.203  64.934  1.00  0.00    -0.365 A  
HETATM    7  C   UNL     1     -10.544  13.376  65.712  1.00  0.00    -0.282 A  
HETATM    8  N   UNL     1     -10.826  12.069  65.362  1.00  0.00    -0.282 NA 
HETATM    9  N   UNL     1     -11.781  12.013  64.391  1.00  0.00    -0.338 NA 
HETATM   10  C   UNL     1     -12.079  13.294  64.152  1.00  0.00    -0.432 A  
BRANCH   8  11
HETATM   11  C   UNL     1     -10.148  10.913  65.893  1.00  0.00    -0.252 A  
HETATM   12  N   UNL     1     -10.415   9.701  65.344  1.00  0.00     0.318 NA 
HETATM   13  C   UNL     1      -9.552   8.760  65.767  1.00  0.00    -0.120 A  
HETATM   14  C   UNL     1      -8.532   8.913  66.689  1.00  0.00    -0.119 A  
HETATM   15  N   UNL     1      -7.823   7.745  66.846  1.00  0.00    -0.106 NA 
HETATM   16  C   UNL     1      -8.402  10.180  67.270  1.00  0.00    -0.121 A  
HETATM   17  N   UNL     1      -7.460  10.478  68.247  1.00  0.00    -0.088 NA 
HETATM   18  N   UNL     1      -9.219  11.170  66.855  1.00  0.00    -0.166 NA 
HETATM   19  C   UNL     1      -8.375   6.904  65.999  1.00  0.00    -0.134 A  
HETATM   20  H1  UNL     1      -7.366  11.401  68.670  1.00  0.00     0.000 HD 
HETATM   21  N   UNL     1      -9.457   7.457  65.355  1.00  0.00     0.595 NA 
HETATM   22  H2  UNL     1      -6.546  10.219  67.876  1.00  0.00     0.000 HD 
BRANCH  21  23
HETATM   23  C1* UNL     1     -10.272   6.752  64.394  1.00  0.00     5.450 C  
HETATM   24  O4* UNL     1     -10.310   7.521  63.178  1.00  0.00     7.078 OA 
HETATM   25  C4* UNL     1     -11.612   8.127  63.046  1.00  0.00    19.175 C  
HETATM   26  C3* UNL     1     -12.568   7.411  64.012  1.00  0.00    21.861 C  
HETATM   27  H2* UNL     1     -12.872   4.842  64.763  1.00  0.00     0.000 HD 
HETATM   28  C2* UNL     1     -11.706   6.426  64.806  1.00  0.00     8.665 C  
HETATM   29  O2* UNL     1     -11.980   5.045  64.507  1.00  0.00     1.435 OA 
HETATM   30  O3* UNL     1     -13.615   6.724  63.312  1.00  0.00     7.902 OA 
HETATM   31  H3* UNL     1     -14.206   6.282  63.910  1.00  0.00     0.000 HD 
BRANCH  25  32
HETATM   32  C5* UNL     1     -11.487   9.637  63.295  1.00  0.00     8.040 C  
HETATM   33  O5* UNL     1     -12.384  10.350  62.440  1.00  0.00     1.562 OA 
HETATM   34  H5* UNL     1     -12.307  11.284  62.594  1.00  0.00     0.000 HD 
ENDBRANCH  25  32
ENDBRANCH  21  23
ENDBRANCH   8  11
ENDBRANCH   3   6
TORSDOF 4
ENDMDL
