MODEL        1
REMARK 921   NORMALIZED FREE ENERGY PREDICTED BY IDOCK:   -8.76 KCAL/MOL
REMARK 922        TOTAL FREE ENERGY PREDICTED BY IDOCK:  -14.33 KCAL/MOL
REMARK 923 INTER-LIGAND FREE ENERGY PREDICTED BY IDOCK:  -12.35 KCAL/MOL
REMARK 924 INTRA-LIGAND FREE ENERGY PREDICTED BY IDOCK:   -1.99 KCAL/MOL
REMARK 927      BINDING AFFINITY PREDICTED BY RF-SCORE:    0.00 PKD
ROOT
HETATM    1  C   UNL     1     -10.410  17.571  66.575  1.00  0.00    -0.325 C  
HETATM    2  N   UNL     1     -10.527  16.226  66.083  1.00  0.00    -0.329 N  
HETATM    3  C   UNL     1     -11.095  15.963  64.855  1.00  0.00    -0.389 C  
HETATM    4  H   UNL     1     -10.185  15.452  66.652  1.00  0.00     0.000 HD 
HETATM    5  O   UNL     1     -11.484  16.836  64.086  1.00  0.00    -1.171 OA 
ENDROOT
BRANCH   3   6
HETATM    6  C   UNL     1     -11.218  14.511  64.508  1.00  0.00    -0.294 A  
HETATM    7  C   UNL     1     -10.218  13.642  64.919  1.00  0.00    -0.363 A  
HETATM    8  C   UNL     1     -10.367  12.293  64.626  1.00  0.00    -0.301 A  
HETATM    9  C   UNL     1     -11.466  11.869  63.885  1.00  0.00    -0.511 A  
HETATM   10  N   UNL     1     -12.318  14.129  63.801  1.00  0.00    -0.759 NA 
HETATM   11  C   UNL     1     -12.407  12.814  63.503  1.00  0.00    -0.467 A  
BRANCH   8  12
HETATM   12  O   UNL     1      -9.438  11.334  64.960  1.00  0.00    -0.222 OA 
BRANCH  12  13
HETATM   13  C   UNL     1      -9.574  10.638  66.143  1.00  0.00    -0.188 A  
HETATM   14  C   UNL     1     -10.256   9.422  66.068  1.00  0.00    -0.204 A  
HETATM   15  C   UNL     1     -10.481   8.689  67.230  1.00  0.00    -0.289 A  
HETATM   16  F   UNL     1     -11.149   7.528  67.154  1.00  0.00    -0.373 F  
HETATM   17  C   UNL     1     -10.086   9.177  68.477  1.00  0.00    -0.191 A  
HETATM   18  C   UNL     1      -9.153  11.125  67.386  1.00  0.00    -0.143 A  
HETATM   19  C   UNL     1      -9.402  10.392  68.551  1.00  0.00    -0.160 A  
BRANCH  17  20
HETATM   20  N   UNL     1     -10.404   8.438  69.639  1.00  0.00    -0.214 N  
HETATM   21  H   UNL     1     -10.246   7.430  69.660  1.00  0.00     0.000 HD 
BRANCH  20  22
HETATM   22  C   UNL     1     -10.930   9.078  70.754  1.00  0.00    -0.258 C  
HETATM   23  O   UNL     1     -10.404   9.095  71.864  1.00  0.00    -0.335 OA 
BRANCH  22  24
HETATM   24  N   UNL     1     -12.133   9.687  70.451  1.00  0.00    -0.459 N  
HETATM   25  H   UNL     1     -12.883   9.129  70.044  1.00  0.00     0.000 HD 
BRANCH  24  26
HETATM   26  C   UNL     1     -12.350  11.057  70.691  1.00  0.00    -0.386 A  
HETATM   27  C   UNL     1     -13.073  11.428  71.820  1.00  0.00    -0.523 A  
HETATM   28  C   UNL     1     -13.306  12.778  72.080  1.00  0.00    -0.593 A  
HETATM   29  C   UNL     1     -12.882  13.765  71.181  1.00  0.00    -0.335 A  
HETATM   30 CL   UNL     1     -13.259  15.393  71.613  1.00  0.00    -0.515 Cl 
HETATM   31  C   UNL     1     -12.200  13.411  70.012  1.00  0.00    -0.367 A  
HETATM   32  C   UNL     1     -11.907  12.042  69.799  1.00  0.00    -0.401 A  
HETATM   33  C   UNL     1     -11.789  14.390  68.940  1.00  0.00    -0.320 C  
HETATM   34  F   UNL     1     -10.441  14.413  68.747  1.00  0.00    -0.220 F  
HETATM   35  F   UNL     1     -12.325  14.054  67.727  1.00  0.00    -0.385 F  
HETATM   36  F   UNL     1     -12.151  15.686  69.134  1.00  0.00    -0.354 F  
ENDBRANCH  24  26
ENDBRANCH  22  24
ENDBRANCH  20  22
ENDBRANCH  17  20
ENDBRANCH  12  13
ENDBRANCH   8  12
ENDBRANCH   3   6
TORSDOF 7
ENDMDL
MODEL        2
REMARK 921   NORMALIZED FREE ENERGY PREDICTED BY IDOCK:   -7.81 KCAL/MOL
REMARK 922        TOTAL FREE ENERGY PREDICTED BY IDOCK:  -12.99 KCAL/MOL
REMARK 923 INTER-LIGAND FREE ENERGY PREDICTED BY IDOCK:  -12.20 KCAL/MOL
REMARK 924 INTRA-LIGAND FREE ENERGY PREDICTED BY IDOCK:   -0.79 KCAL/MOL
REMARK 927      BINDING AFFINITY PREDICTED BY RF-SCORE:    0.00 PKD
ROOT
HETATM    1  C   UNL     1     -11.527   5.143  72.934  1.00  0.00    -0.254 C  
HETATM    2  N   UNL     1     -11.795   6.529  72.665  1.00  0.00    -0.504 N  
HETATM    3  C   UNL     1     -11.800   7.017  71.375  1.00  0.00    -0.320 C  
HETATM    4  H   UNL     1     -11.985   7.163  73.441  1.00  0.00     0.000 HD 
HETATM    5  O   UNL     1     -11.633   6.315  70.384  1.00  0.00    -0.381 OA 
ENDROOT
BRANCH   3   6
HETATM    6  C   UNL     1     -12.020   8.493  71.254  1.00  0.00    -0.294 A  
HETATM    7  C   UNL     1     -11.171   9.227  70.437  1.00  0.00    -0.290 A  
HETATM    8  C   UNL     1     -11.413  10.588  70.303  1.00  0.00    -0.333 A  
HETATM    9  C   UNL     1     -12.444  11.176  71.029  1.00  0.00    -0.506 A  
HETATM   10  N   UNL     1     -13.051   9.031  71.962  1.00  0.00    -0.381 NA 
HETATM   11  C   UNL     1     -13.230  10.364  71.833  1.00  0.00    -0.429 A  
BRANCH   8  12
HETATM   12  O   UNL     1     -10.634  11.428  69.541  1.00  0.00    -0.128 OA 
BRANCH  12  13
HETATM   13  C   UNL     1     -11.195  12.092  68.471  1.00  0.00    -0.256 A  
HETATM   14  C   UNL     1     -11.097  11.458  67.231  1.00  0.00    -0.363 A  
HETATM   15  C   UNL     1     -11.593  12.091  66.095  1.00  0.00    -0.304 A  
HETATM   16  F   UNL     1     -11.483  11.483  64.904  1.00  0.00    -0.331 F  
HETATM   17  C   UNL     1     -12.133  13.376  66.165  1.00  0.00    -0.429 A  
HETATM   18  C   UNL     1     -11.758  13.371  68.556  1.00  0.00    -0.392 A  
HETATM   19  C   UNL     1     -12.233  14.010  67.406  1.00  0.00    -0.289 A  
BRANCH  17  20
HETATM   20  N   UNL     1     -12.551  14.015  64.975  1.00  0.00    -0.635 N  
HETATM   21  H   UNL     1     -13.380  13.681  64.484  1.00  0.00     0.000 HD 
BRANCH  20  22
HETATM   22  C   UNL     1     -11.838  15.095  64.472  1.00  0.00    -0.330 C  
HETATM   23  O   UNL     1     -12.331  16.028  63.844  1.00  0.00    -0.855 OA 
BRANCH  22  24
HETATM   24  N   UNL     1     -10.492  14.977  64.765  1.00  0.00    -0.532 N  
HETATM   25  H   UNL     1      -9.958  14.217  64.343  1.00  0.00     0.000 HD 
BRANCH  24  26
HETATM   26  C   UNL     1      -9.841  15.877  65.630  1.00  0.00    -0.302 A  
HETATM   27  C   UNL     1      -8.841  15.389  66.465  1.00  0.00    -0.347 A  
HETATM   28  C   UNL     1      -8.182  16.258  67.334  1.00  0.00    -0.181 A  
HETATM   29  C   UNL     1      -8.561  17.603  67.430  1.00  0.00    -0.226 A  
HETATM   30 CL   UNL     1      -7.680  18.558  68.564  1.00  0.00    -0.320 Cl 
HETATM   31  C   UNL     1      -9.601  18.102  66.637  1.00  0.00    -0.306 A  
HETATM   32  C   UNL     1     -10.210  17.225  65.707  1.00  0.00    -0.212 A  
HETATM   33  C   UNL     1     -10.143  19.506  66.737  1.00  0.00    -0.412 C  
HETATM   34  F   UNL     1     -10.016  20.195  65.568  1.00  0.00    -0.476 F  
HETATM   35  F   UNL     1     -11.482  19.504  67.013  1.00  0.00    -0.431 F  
HETATM   36  F   UNL     1      -9.591  20.302  67.690  1.00  0.00    -0.454 F  
ENDBRANCH  24  26
ENDBRANCH  22  24
ENDBRANCH  20  22
ENDBRANCH  17  20
ENDBRANCH  12  13
ENDBRANCH   8  12
ENDBRANCH   3   6
TORSDOF 7
ENDMDL
MODEL        3
REMARK 921   NORMALIZED FREE ENERGY PREDICTED BY IDOCK:   -7.62 KCAL/MOL
REMARK 922        TOTAL FREE ENERGY PREDICTED BY IDOCK:  -12.73 KCAL/MOL
REMARK 923 INTER-LIGAND FREE ENERGY PREDICTED BY IDOCK:  -11.35 KCAL/MOL
REMARK 924 INTRA-LIGAND FREE ENERGY PREDICTED BY IDOCK:   -1.38 KCAL/MOL
REMARK 927      BINDING AFFINITY PREDICTED BY RF-SCORE:    0.00 PKD
ROOT
HETATM    1  C   UNL     1     -10.185   4.847  69.665  1.00  0.00    -0.195 C  
HETATM    2  N   UNL     1     -10.782   6.129  69.919  1.00  0.00    -0.267 N  
HETATM    3  C   UNL     1     -11.380   6.410  71.129  1.00  0.00    -0.319 C  
HETATM    4  H   UNL     1     -10.763   6.844  69.192  1.00  0.00     0.000 HD 
HETATM    5  O   UNL     1     -11.400   5.628  72.074  1.00  0.00    -0.250 OA 
ENDROOT
BRANCH   3   6
HETATM    6  C   UNL     1     -12.024   7.758  71.223  1.00  0.00    -0.302 A  
HETATM    7  C   UNL     1     -11.288   8.875  70.850  1.00  0.00    -0.336 A  
HETATM    8  C   UNL     1     -11.914  10.114  70.903  1.00  0.00    -0.365 A  
HETATM    9  C   UNL     1     -13.217  10.204  71.381  1.00  0.00    -0.474 A  
HETATM   10  N   UNL     1     -13.308   7.807  71.673  1.00  0.00    -0.346 NA 
HETATM   11  C   UNL     1     -13.868   9.035  71.746  1.00  0.00    -0.399 A  
BRANCH   8  12
HETATM   12  O   UNL     1     -11.288  11.296  70.581  1.00  0.00    -0.054 OA 
BRANCH  12  13
HETATM   13  C   UNL     1     -11.393  11.793  69.299  1.00  0.00    -0.286 A  
HETATM   14  C   UNL     1     -11.698  13.151  69.186  1.00  0.00    -0.376 A  
HETATM   15  C   UNL     1     -11.872  13.713  67.925  1.00  0.00    -0.366 A  
HETATM   16  F   UNL     1     -12.179  15.015  67.823  1.00  0.00    -0.306 F  
HETATM   17  C   UNL     1     -11.806  12.928  66.772  1.00  0.00    -0.385 A  
HETATM   18  C   UNL     1     -11.300  11.002  68.147  1.00  0.00    -0.374 A  
HETATM   19  C   UNL     1     -11.499  11.570  66.884  1.00  0.00    -0.261 A  
BRANCH  17  20
HETATM   20  N   UNL     1     -12.069  13.523  65.517  1.00  0.00    -0.392 N  
HETATM   21  H   UNL     1     -13.033  13.658  65.211  1.00  0.00     0.000 HD 
BRANCH  20  22
HETATM   22  C   UNL     1     -11.021  13.924  64.698  1.00  0.00    -0.398 C  
HETATM   23  O   UNL     1     -10.252  13.160  64.120  1.00  0.00    -0.391 OA 
BRANCH  22  24
HETATM   24  N   UNL     1     -10.951  15.302  64.628  1.00  0.00    -0.642 N  
HETATM   25  H   UNL     1     -11.466  15.789  63.895  1.00  0.00     0.000 HD 
BRANCH  24  26
HETATM   26  C   UNL     1     -10.185  16.052  65.542  1.00  0.00    -0.360 A  
HETATM   27  C   UNL     1      -9.140  15.420  66.208  1.00  0.00    -0.355 A  
HETATM   28  C   UNL     1      -8.368  16.138  67.121  1.00  0.00    -0.225 A  
HETATM   29  C   UNL     1      -8.675  17.469  67.431  1.00  0.00    -0.228 A  
HETATM   30 CL   UNL     1      -7.655  18.229  68.597  1.00  0.00    -0.306 Cl 
HETATM   31  C   UNL     1      -9.756  18.107  66.813  1.00  0.00    -0.324 A  
HETATM   32  C   UNL     1     -10.484  17.389  65.834  1.00  0.00    -0.256 A  
HETATM   33  C   UNL     1     -10.223  19.502  67.150  1.00  0.00    -0.426 C  
HETATM   34  F   UNL     1     -10.166  20.340  66.078  1.00  0.00    -0.524 F  
HETATM   35  F   UNL     1     -11.531  19.507  67.547  1.00  0.00    -0.430 F  
HETATM   36  F   UNL     1      -9.553  20.139  68.146  1.00  0.00    -0.432 F  
ENDBRANCH  24  26
ENDBRANCH  22  24
ENDBRANCH  20  22
ENDBRANCH  17  20
ENDBRANCH  12  13
ENDBRANCH   8  12
ENDBRANCH   3   6
TORSDOF 7
ENDMDL
MODEL        4
REMARK 921   NORMALIZED FREE ENERGY PREDICTED BY IDOCK:   -7.56 KCAL/MOL
REMARK 922        TOTAL FREE ENERGY PREDICTED BY IDOCK:  -12.64 KCAL/MOL
REMARK 923 INTER-LIGAND FREE ENERGY PREDICTED BY IDOCK:  -10.35 KCAL/MOL
REMARK 924 INTRA-LIGAND FREE ENERGY PREDICTED BY IDOCK:   -2.30 KCAL/MOL
REMARK 927      BINDING AFFINITY PREDICTED BY RF-SCORE:    0.00 PKD
ROOT
HETATM    1  C   UNL     1     -14.363   8.076  71.824  1.00  0.00    -0.478 C  
HETATM    2  N   UNL     1     -13.355   7.552  70.944  1.00  0.00    -0.592 N  
HETATM    3  C   UNL     1     -12.014   7.725  71.213  1.00  0.00    -0.302 C  
HETATM    4  H   UNL     1     -13.637   7.042  70.107  1.00  0.00     0.000 HD 
HETATM    5  O   UNL     1     -11.591   8.279  72.222  1.00  0.00    -0.332 OA 
ENDROOT
BRANCH   3   6
HETATM    6  C   UNL     1     -11.082   7.190  70.171  1.00  0.00    -0.272 A  
HETATM    7  C   UNL     1     -10.233   8.074  69.520  1.00  0.00    -0.209 A  
HETATM    8  C   UNL     1      -9.346   7.557  68.586  1.00  0.00    -0.143 A  
HETATM    9  C   UNL     1      -9.378   6.198  68.289  1.00  0.00    -0.116 A  
HETATM   10  N   UNL     1     -11.125   5.852  69.921  1.00  0.00    -0.375 NA 
HETATM   11  C   UNL     1     -10.273   5.394  68.979  1.00  0.00    -0.221 A  
BRANCH   8  12
HETATM   12  O   UNL     1      -8.469   8.329  67.860  1.00  0.00    -0.130 OA 
BRANCH  12  13
HETATM   13  C   UNL     1      -8.829   9.609  67.497  1.00  0.00    -0.125 A  
HETATM   14  C   UNL     1      -9.667   9.723  66.386  1.00  0.00    -0.275 A  
HETATM   15  C   UNL     1     -10.031  10.986  65.927  1.00  0.00    -0.240 A  
HETATM   16  F   UNL     1     -10.825  11.089  64.850  1.00  0.00    -0.359 F  
HETATM   17  C   UNL     1      -9.524  12.142  66.523  1.00  0.00    -0.231 A  
HETATM   18  C   UNL     1      -8.335  10.763  68.117  1.00  0.00    -0.120 A  
HETATM   19  C   UNL     1      -8.688  12.029  67.636  1.00  0.00    -0.166 A  
BRANCH  17  20
HETATM   20  N   UNL     1      -9.855  13.403  65.975  1.00  0.00    -0.359 N  
HETATM   21  H   UNL     1      -9.214  13.859  65.326  1.00  0.00     0.000 HD 
BRANCH  20  22
HETATM   22  C   UNL     1     -11.050  14.023  66.317  1.00  0.00    -0.307 C  
HETATM   23  O   UNL     1     -12.103  13.906  65.696  1.00  0.00    -0.374 OA 
BRANCH  22  24
HETATM   24  N   UNL     1     -10.894  14.802  67.448  1.00  0.00    -0.292 N  
HETATM   25  H   UNL     1     -10.280  15.615  67.410  1.00  0.00     0.000 HD 
BRANCH  24  26
HETATM   26  C   UNL     1     -11.562  14.502  68.651  1.00  0.00    -0.315 A  
HETATM   27  C   UNL     1     -12.011  15.554  69.442  1.00  0.00    -0.358 A  
HETATM   28  C   UNL     1     -12.673  15.286  70.639  1.00  0.00    -0.470 A  
HETATM   29  C   UNL     1     -12.828  13.970  71.095  1.00  0.00    -0.357 A  
HETATM   30 CL   UNL     1     -13.641  13.783  72.604  1.00  0.00    -0.654 Cl 
HETATM   31  C   UNL     1     -12.336  12.899  70.340  1.00  0.00    -0.333 A  
HETATM   32  C   UNL     1     -11.733  13.183  69.091  1.00  0.00    -0.376 A  
HETATM   33  C   UNL     1     -12.370  11.459  70.790  1.00  0.00    -0.386 C  
HETATM   34  F   UNL     1     -13.082  10.667  69.941  1.00  0.00    -0.284 F  
HETATM   35  F   UNL     1     -11.114  10.918  70.824  1.00  0.00    -0.293 F  
HETATM   36  F   UNL     1     -12.885  11.223  72.026  1.00  0.00    -0.507 F  
ENDBRANCH  24  26
ENDBRANCH  22  24
ENDBRANCH  20  22
ENDBRANCH  17  20
ENDBRANCH  12  13
ENDBRANCH   8  12
ENDBRANCH   3   6
TORSDOF 7
ENDMDL
MODEL        5
REMARK 921   NORMALIZED FREE ENERGY PREDICTED BY IDOCK:   -7.52 KCAL/MOL
REMARK 922        TOTAL FREE ENERGY PREDICTED BY IDOCK:  -12.58 KCAL/MOL
REMARK 923 INTER-LIGAND FREE ENERGY PREDICTED BY IDOCK:  -11.64 KCAL/MOL
REMARK 924 INTRA-LIGAND FREE ENERGY PREDICTED BY IDOCK:   -0.94 KCAL/MOL
REMARK 927      BINDING AFFINITY PREDICTED BY RF-SCORE:    0.00 PKD
ROOT
HETATM    1  C   UNL     1     -11.114   5.563  72.808  1.00  0.00    -0.291 C  
HETATM    2  N   UNL     1     -10.939   5.855  71.412  1.00  0.00    -0.272 N  
HETATM    3  C   UNL     1     -10.748   7.148  70.973  1.00  0.00    -0.232 C  
HETATM    4  H   UNL     1     -10.955   5.094  70.734  1.00  0.00     0.000 HD 
HETATM    5  O   UNL     1     -10.663   8.114  71.724  1.00  0.00    -0.227 OA 
ENDROOT
BRANCH   3   6
HETATM    6  C   UNL     1     -10.654   7.309  69.487  1.00  0.00    -0.234 A  
HETATM    7  C   UNL     1     -10.093   8.472  68.978  1.00  0.00    -0.207 A  
HETATM    8  C   UNL     1      -9.976   8.588  67.599  1.00  0.00    -0.198 A  
HETATM    9  C   UNL     1     -10.475   7.578  66.780  1.00  0.00    -0.319 A  
HETATM   10  N   UNL     1     -11.132   6.292  68.717  1.00  0.00    -0.361 NA 
HETATM   11  C   UNL     1     -11.034   6.460  67.380  1.00  0.00    -0.376 A  
BRANCH   8  12
HETATM   12  O   UNL     1      -9.458   9.696  66.970  1.00  0.00    -0.146 OA 
BRANCH  12  13
HETATM   13  C   UNL     1     -10.304  10.709  66.570  1.00  0.00    -0.241 A  
HETATM   14  C   UNL     1     -10.402  10.925  65.194  1.00  0.00    -0.344 A  
HETATM   15  C   UNL     1     -11.194  11.965  64.717  1.00  0.00    -0.297 A  
HETATM   16  F   UNL     1     -11.272  12.177  63.394  1.00  0.00    -0.425 F  
HETATM   17  C   UNL     1     -11.847  12.834  65.594  1.00  0.00    -0.425 A  
HETATM   18  C   UNL     1     -10.974  11.559  67.458  1.00  0.00    -0.308 A  
HETATM   19  C   UNL     1     -11.751  12.616  66.970  1.00  0.00    -0.438 A  
BRANCH  17  20
HETATM   20  N   UNL     1     -12.576  13.925  65.069  1.00  0.00    -0.636 N  
HETATM   21  H   UNL     1     -13.589  13.858  64.971  1.00  0.00     0.000 HD 
BRANCH  20  22
HETATM   22  C   UNL     1     -11.919  15.088  64.687  1.00  0.00    -0.358 C  
HETATM   23  O   UNL     1     -12.333  15.882  63.846  1.00  0.00    -0.776 OA 
BRANCH  22  24
HETATM   24  N   UNL     1     -10.728  15.229  65.374  1.00  0.00    -0.363 N  
HETATM   25  H   UNL     1      -9.978  14.557  65.211  1.00  0.00     0.000 HD 
BRANCH  24  26
HETATM   26  C   UNL     1     -10.523  16.276  66.293  1.00  0.00    -0.308 A  
HETATM   27  C   UNL     1     -10.769  16.035  67.641  1.00  0.00    -0.320 A  
HETATM   28  C   UNL     1     -10.578  17.055  68.572  1.00  0.00    -0.370 A  
HETATM   29  C   UNL     1     -10.210  18.343  68.161  1.00  0.00    -0.384 A  
HETATM   30 CL   UNL     1     -10.033  19.515  69.414  1.00  0.00    -0.371 Cl 
HETATM   31  C   UNL     1     -10.009  18.621  66.804  1.00  0.00    -0.381 A  
HETATM   32  C   UNL     1     -10.135  17.556  65.879  1.00  0.00    -0.197 A  
HETATM   33  C   UNL     1      -9.705  19.994  66.256  1.00  0.00    -0.433 C  
HETATM   34  F   UNL     1      -8.511  20.038  65.604  1.00  0.00    -0.340 F  
HETATM   35  F   UNL     1     -10.639  20.379  65.334  1.00  0.00    -0.468 F  
HETATM   36  F   UNL     1      -9.666  21.010  67.158  1.00  0.00    -0.596 F  
ENDBRANCH  24  26
ENDBRANCH  22  24
ENDBRANCH  20  22
ENDBRANCH  17  20
ENDBRANCH  12  13
ENDBRANCH   8  12
ENDBRANCH   3   6
TORSDOF 7
ENDMDL
MODEL        6
REMARK 921   NORMALIZED FREE ENERGY PREDICTED BY IDOCK:   -7.29 KCAL/MOL
REMARK 922        TOTAL FREE ENERGY PREDICTED BY IDOCK:  -12.27 KCAL/MOL
REMARK 923 INTER-LIGAND FREE ENERGY PREDICTED BY IDOCK:  -11.66 KCAL/MOL
REMARK 924 INTRA-LIGAND FREE ENERGY PREDICTED BY IDOCK:   -0.61 KCAL/MOL
REMARK 927      BINDING AFFINITY PREDICTED BY RF-SCORE:    0.00 PKD
ROOT
HETATM    1  C   UNL     1      -9.456   4.653  71.602  1.00  0.00    -0.153 C  
HETATM    2  N   UNL     1     -10.619   5.496  71.636  1.00  0.00    -0.231 N  
HETATM    3  C   UNL     1     -10.514   6.863  71.488  1.00  0.00    -0.212 C  
HETATM    4  H   UNL     1     -11.539   5.077  71.771  1.00  0.00     0.000 HD 
HETATM    5  O   UNL     1      -9.455   7.442  71.270  1.00  0.00    -0.154 OA 
ENDROOT
BRANCH   3   6
HETATM    6  C   UNL     1     -11.800   7.619  71.620  1.00  0.00    -0.291 A  
HETATM    7  C   UNL     1     -11.747   8.994  71.798  1.00  0.00    -0.440 A  
HETATM    8  C   UNL     1     -12.949   9.686  71.877  1.00  0.00    -0.435 A  
HETATM    9  C   UNL     1     -14.149   8.983  71.841  1.00  0.00    -0.404 A  
HETATM   10  N   UNL     1     -12.955   6.901  71.558  1.00  0.00    -0.347 NA 
HETATM   11  C   UNL     1     -14.101   7.607  71.678  1.00  0.00    -0.434 A  
BRANCH   8  12
HETATM   12  O   UNL     1     -13.033  11.045  72.073  1.00  0.00    -0.452 OA 
BRANCH  12  13
HETATM   13  C   UNL     1     -12.631  11.902  71.070  1.00  0.00    -0.283 A  
HETATM   14  C   UNL     1     -12.833  13.264  71.305  1.00  0.00    -0.398 A  
HETATM   15  C   UNL     1     -12.503  14.187  70.317  1.00  0.00    -0.353 A  
HETATM   16  F   UNL     1     -12.712  15.493  70.542  1.00  0.00    -0.398 F  
HETATM   17  C   UNL     1     -12.028  13.770  69.072  1.00  0.00    -0.360 A  
HETATM   18  C   UNL     1     -12.133  11.476  69.834  1.00  0.00    -0.389 A  
HETATM   19  C   UNL     1     -11.824  12.409  68.838  1.00  0.00    -0.350 A  
BRANCH  17  20
HETATM   20  N   UNL     1     -11.780  14.736  68.069  1.00  0.00    -0.395 N  
HETATM   21  H   UNL     1     -11.533  15.690  68.332  1.00  0.00     0.000 HD 
BRANCH  20  22
HETATM   22  C   UNL     1     -11.872  14.391  66.727  1.00  0.00    -0.410 C  
HETATM   23  O   UNL     1     -12.903  14.027  66.166  1.00  0.00    -0.394 OA 
BRANCH  22  24
HETATM   24  N   UNL     1     -10.643  14.501  66.104  1.00  0.00    -0.298 N  
HETATM   25  H   UNL     1     -10.310  13.732  65.524  1.00  0.00     0.000 HD 
BRANCH  24  26
HETATM   26  C   UNL     1      -9.840  15.649  66.251  1.00  0.00    -0.295 A  
HETATM   27  C   UNL     1      -8.490  15.481  66.542  1.00  0.00    -0.283 A  
HETATM   28  C   UNL     1      -7.672  16.600  66.695  1.00  0.00    -0.316 A  
HETATM   29  C   UNL     1      -8.206  17.894  66.631  1.00  0.00    -0.258 A  
HETATM   30 CL   UNL     1      -7.087  19.186  66.865  1.00  0.00    -0.207 Cl 
HETATM   31  C   UNL     1      -9.572  18.084  66.393  1.00  0.00    -0.301 A  
HETATM   32  C   UNL     1     -10.375  16.940  66.166  1.00  0.00    -0.327 A  
HETATM   33  C   UNL     1     -10.254  19.429  66.401  1.00  0.00    -0.465 C  
HETATM   34  F   UNL     1     -10.838  19.722  65.206  1.00  0.00    -0.576 F  
HETATM   35  F   UNL     1     -11.267  19.468  67.319  1.00  0.00    -0.580 F  
HETATM   36  F   UNL     1      -9.474  20.502  66.698  1.00  0.00    -0.469 F  
ENDBRANCH  24  26
ENDBRANCH  22  24
ENDBRANCH  20  22
ENDBRANCH  17  20
ENDBRANCH  12  13
ENDBRANCH   8  12
ENDBRANCH   3   6
TORSDOF 7
ENDMDL
MODEL        7
REMARK 921   NORMALIZED FREE ENERGY PREDICTED BY IDOCK:   -7.29 KCAL/MOL
REMARK 922        TOTAL FREE ENERGY PREDICTED BY IDOCK:  -12.25 KCAL/MOL
REMARK 923 INTER-LIGAND FREE ENERGY PREDICTED BY IDOCK:  -10.78 KCAL/MOL
REMARK 924 INTRA-LIGAND FREE ENERGY PREDICTED BY IDOCK:   -1.48 KCAL/MOL
REMARK 927      BINDING AFFINITY PREDICTED BY RF-SCORE:    0.00 PKD
ROOT
HETATM    1  C   UNL     1     -13.505  10.424  72.042  1.00  0.00    -0.255 C  
HETATM    2  N   UNL     1     -12.858  11.614  71.562  1.00  0.00    -0.401 N  
HETATM    3  C   UNL     1     -13.327  12.866  71.900  1.00  0.00    -0.435 C  
HETATM    4  H   UNL     1     -12.037  11.532  70.962  1.00  0.00     0.000 HD 
HETATM    5  O   UNL     1     -14.273  13.055  72.657  1.00  0.00    -0.609 OA 
ENDROOT
BRANCH   3   6
HETATM    6  C   UNL     1     -12.598  14.011  71.267  1.00  0.00    -0.367 A  
HETATM    7  C   UNL     1     -12.480  14.041  69.884  1.00  0.00    -0.301 A  
HETATM    8  C   UNL     1     -11.838  15.130  69.309  1.00  0.00    -0.320 A  
HETATM    9  C   UNL     1     -11.286  16.111  70.127  1.00  0.00    -0.374 A  
HETATM   10  N   UNL     1     -12.090  14.964  72.096  1.00  0.00    -0.355 NA 
HETATM   11  C   UNL     1     -11.439  15.987  71.500  1.00  0.00    -0.385 A  
BRANCH   8  12
HETATM   12  O   UNL     1     -11.639  15.268  67.955  1.00  0.00    -0.339 OA 
BRANCH  12  13
HETATM   13  C   UNL     1     -11.236  14.178  67.212  1.00  0.00    -0.316 A  
HETATM   14  C   UNL     1     -12.140  13.715  66.255  1.00  0.00    -0.477 A  
HETATM   15  C   UNL     1     -11.827  12.586  65.504  1.00  0.00    -0.439 A  
HETATM   16  F   UNL     1     -12.706  12.137  64.595  1.00  0.00    -0.493 F  
HETATM   17  C   UNL     1     -10.648  11.874  65.732  1.00  0.00    -0.267 A  
HETATM   18  C   UNL     1     -10.039  13.485  67.432  1.00  0.00    -0.237 A  
HETATM   19  C   UNL     1      -9.742  12.338  66.688  1.00  0.00    -0.229 A  
BRANCH  17  20
HETATM   20  N   UNL     1     -10.406  10.688  65.002  1.00  0.00    -0.301 N  
HETATM   21  H   UNL     1     -11.044  10.411  64.256  1.00  0.00     0.000 HD 
BRANCH  20  22
HETATM   22  C   UNL     1      -9.302   9.897  65.296  1.00  0.00    -0.251 C  
HETATM   23  O   UNL     1      -8.141  10.297  65.320  1.00  0.00    -0.143 OA 
BRANCH  22  24
HETATM   24  N   UNL     1      -9.684   8.593  65.549  1.00  0.00    -0.397 N  
HETATM   25  H   UNL     1      -9.724   7.929  64.777  1.00  0.00     0.000 HD 
BRANCH  24  26
HETATM   26  C   UNL     1     -10.017   8.158  66.846  1.00  0.00    -0.273 A  
HETATM   27  C   UNL     1     -10.714   6.963  66.987  1.00  0.00    -0.432 A  
HETATM   28  C   UNL     1     -11.061   6.510  68.260  1.00  0.00    -0.332 A  
HETATM   29  C   UNL     1     -10.779   7.279  69.397  1.00  0.00    -0.225 A  
HETATM   30 CL   UNL     1     -11.287   6.613  70.905  1.00  0.00    -0.353 Cl 
HETATM   31  C   UNL     1     -10.126   8.510  69.273  1.00  0.00    -0.203 A  
HETATM   32  C   UNL     1      -9.715   8.921  67.981  1.00  0.00    -0.181 A  
HETATM   33  C   UNL     1      -9.866   9.451  70.423  1.00  0.00    -0.259 C  
HETATM   34  F   UNL     1      -8.537   9.689  70.607  1.00  0.00    -0.224 F  
HETATM   35  F   UNL     1     -10.427  10.678  70.200  1.00  0.00    -0.284 F  
HETATM   36  F   UNL     1     -10.338   9.066  71.638  1.00  0.00    -0.323 F  
ENDBRANCH  24  26
ENDBRANCH  22  24
ENDBRANCH  20  22
ENDBRANCH  17  20
ENDBRANCH  12  13
ENDBRANCH   8  12
ENDBRANCH   3   6
TORSDOF 7
ENDMDL
MODEL        8
REMARK 921   NORMALIZED FREE ENERGY PREDICTED BY IDOCK:   -7.27 KCAL/MOL
REMARK 922        TOTAL FREE ENERGY PREDICTED BY IDOCK:  -12.23 KCAL/MOL
REMARK 923 INTER-LIGAND FREE ENERGY PREDICTED BY IDOCK:  -11.03 KCAL/MOL
REMARK 924 INTRA-LIGAND FREE ENERGY PREDICTED BY IDOCK:   -1.20 KCAL/MOL
REMARK 927      BINDING AFFINITY PREDICTED BY RF-SCORE:    0.00 PKD
ROOT
HETATM    1  C   UNL     1     -10.292  18.202  66.135  1.00  0.00    -0.385 C  
HETATM    2  N   UNL     1     -10.501  16.781  66.098  1.00  0.00    -0.307 N  
HETATM    3  C   UNL     1     -11.091  16.175  65.008  1.00  0.00    -0.294 C  
HETATM    4  H   UNL     1     -10.208  16.209  66.890  1.00  0.00     0.000 HD 
HETATM    5  O   UNL     1     -11.425  16.780  63.995  1.00  0.00    -1.198 OA 
ENDROOT
BRANCH   3   6
HETATM    6  C   UNL     1     -11.312  14.700  65.142  1.00  0.00    -0.375 A  
HETATM    7  C   UNL     1     -10.478  13.977  65.983  1.00  0.00    -0.307 A  
HETATM    8  C   UNL     1     -10.722  12.617  66.128  1.00  0.00    -0.267 A  
HETATM    9  C   UNL     1     -11.738  12.019  65.388  1.00  0.00    -0.317 A  
HETATM   10  N   UNL     1     -12.329  14.153  64.420  1.00  0.00    -0.636 NA 
HETATM   11  C   UNL     1     -12.509  12.821  64.560  1.00  0.00    -0.428 A  
BRANCH   8  12
HETATM   12  O   UNL     1      -9.957  11.786  66.914  1.00  0.00    -0.196 OA 
BRANCH  12  13
HETATM   13  C   UNL     1     -10.441  11.372  68.137  1.00  0.00    -0.187 A  
HETATM   14  C   UNL     1      -9.647  10.462  68.838  1.00  0.00    -0.197 A  
HETATM   15  C   UNL     1     -10.094   9.957  70.055  1.00  0.00    -0.260 A  
HETATM   16  F   UNL     1      -9.334   9.072  70.718  1.00  0.00    -0.197 F  
HETATM   17  C   UNL     1     -11.350  10.300  70.559  1.00  0.00    -0.341 A  
HETATM   18  C   UNL     1     -11.691  11.741  68.645  1.00  0.00    -0.389 A  
HETATM   19  C   UNL     1     -12.144  11.212  69.859  1.00  0.00    -0.418 A  
BRANCH  17  20
HETATM   20  N   UNL     1     -11.799   9.702  71.759  1.00  0.00    -0.375 N  
HETATM   21  H   UNL     1     -11.277   9.844  72.624  1.00  0.00     0.000 HD 
BRANCH  20  22
HETATM   22  C   UNL     1     -12.949   8.923  71.766  1.00  0.00    -0.367 C  
HETATM   23  O   UNL     1     -13.903   9.090  72.522  1.00  0.00    -0.473 OA 
BRANCH  22  24
HETATM   24  N   UNL     1     -12.873   7.924  70.814  1.00  0.00    -0.462 N  
HETATM   25  H   UNL     1     -13.518   7.941  70.025  1.00  0.00     0.000 HD 
BRANCH  24  26
HETATM   26  C   UNL     1     -11.929   6.884  70.907  1.00  0.00    -0.381 A  
HETATM   27  C   UNL     1     -11.565   6.427  72.170  1.00  0.00    -0.357 A  
HETATM   28  C   UNL     1     -10.630   5.400  72.290  1.00  0.00    -0.280 A  
HETATM   29  C   UNL     1      -9.996   4.869  71.159  1.00  0.00    -0.208 A  
HETATM   30 CL   UNL     1      -8.841   3.622  71.455  1.00  0.00    -0.132 Cl 
HETATM   31  C   UNL     1     -10.308   5.351  69.883  1.00  0.00    -0.377 A  
HETATM   32  C   UNL     1     -11.313   6.343  69.771  1.00  0.00    -0.494 A  
HETATM   33  C   UNL     1      -9.612   4.912  68.618  1.00  0.00    -0.154 C  
HETATM   34  F   UNL     1     -10.472   4.349  67.724  1.00  0.00    -0.067 F  
HETATM   35  F   UNL     1      -9.051   5.974  67.964  1.00  0.00    -0.120 F  
HETATM   36  F   UNL     1      -8.600   4.017  68.764  1.00  0.00    -0.088 F  
ENDBRANCH  24  26
ENDBRANCH  22  24
ENDBRANCH  20  22
ENDBRANCH  17  20
ENDBRANCH  12  13
ENDBRANCH   8  12
ENDBRANCH   3   6
TORSDOF 7
ENDMDL
MODEL        9
REMARK 921   NORMALIZED FREE ENERGY PREDICTED BY IDOCK:   -7.26 KCAL/MOL
REMARK 922        TOTAL FREE ENERGY PREDICTED BY IDOCK:  -12.21 KCAL/MOL
REMARK 923 INTER-LIGAND FREE ENERGY PREDICTED BY IDOCK:  -10.35 KCAL/MOL
REMARK 924 INTRA-LIGAND FREE ENERGY PREDICTED BY IDOCK:   -1.86 KCAL/MOL
REMARK 927      BINDING AFFINITY PREDICTED BY RF-SCORE:    0.00 PKD
ROOT
HETATM    1  C   UNL     1     -13.881  13.576  72.422  1.00  0.00    -0.586 C  
HETATM    2  N   UNL     1     -13.654  12.160  72.328  1.00  0.00    -0.518 N  
HETATM    3  C   UNL     1     -12.746  11.641  71.430  1.00  0.00    -0.339 C  
HETATM    4  H   UNL     1     -14.174  11.527  72.936  1.00  0.00     0.000 HD 
HETATM    5  O   UNL     1     -12.043  12.332  70.700  1.00  0.00    -0.363 OA 
ENDROOT
BRANCH   3   6
HETATM    6  C   UNL     1     -12.671  10.146  71.392  1.00  0.00    -0.425 A  
HETATM    7  C   UNL     1     -11.486   9.549  70.986  1.00  0.00    -0.420 A  
HETATM    8  C   UNL     1     -11.419   8.162  70.996  1.00  0.00    -0.279 A  
HETATM    9  C   UNL     1     -12.545   7.423  71.346  1.00  0.00    -0.405 A  
HETATM   10  N   UNL     1     -13.785   9.455  71.762  1.00  0.00    -0.370 NA 
HETATM   11  C   UNL     1     -13.691   8.108  71.722  1.00  0.00    -0.374 A  
BRANCH   8  12
HETATM   12  O   UNL     1     -10.310   7.451  70.597  1.00  0.00    -0.209 OA 
BRANCH  12  13
HETATM   13  C   UNL     1      -9.925   7.477  69.274  1.00  0.00    -0.179 A  
HETATM   14  C   UNL     1      -8.571   7.713  69.029  1.00  0.00    -0.136 A  
HETATM   15  C   UNL     1      -8.116   7.807  67.717  1.00  0.00    -0.125 A  
HETATM   16  F   UNL     1      -6.816   8.048  67.488  1.00  0.00    -0.062 F  
HETATM   17  C   UNL     1      -9.002   7.727  66.641  1.00  0.00    -0.149 A  
HETATM   18  C   UNL     1     -10.818   7.371  68.201  1.00  0.00    -0.100 A  
HETATM   19  C   UNL     1     -10.356   7.488  66.885  1.00  0.00    -0.379 A  
BRANCH  17  20
HETATM   20  N   UNL     1      -8.510   7.907  65.328  1.00  0.00    -0.256 N  
HETATM   21  H   UNL     1      -8.310   7.094  64.744  1.00  0.00     0.000 HD 
BRANCH  20  22
HETATM   22  C   UNL     1      -8.299   9.185  64.828  1.00  0.00    -0.169 C  
HETATM   23  O   UNL     1      -7.332   9.892  65.099  1.00  0.00    -0.120 OA 
BRANCH  22  24
HETATM   24  N   UNL     1      -9.331   9.564  63.990  1.00  0.00    -0.409 N  
HETATM   25  H   UNL     1      -9.498   9.030  63.137  1.00  0.00     0.000 HD 
BRANCH  24  26
HETATM   26  C   UNL     1     -10.156  10.666  64.283  1.00  0.00    -0.343 A  
HETATM   27  C   UNL     1     -10.565  11.486  63.236  1.00  0.00    -0.405 A  
HETATM   28  C   UNL     1     -11.380  12.587  63.498  1.00  0.00    -0.556 A  
HETATM   29  C   UNL     1     -11.734  12.922  64.811  1.00  0.00    -0.346 A  
HETATM   30 CL   UNL     1     -12.724  14.323  64.993  1.00  0.00    -0.374 Cl 
HETATM   31  C   UNL     1     -11.289  12.141  65.884  1.00  0.00    -0.407 A  
HETATM   32  C   UNL     1     -10.524  10.985  65.596  1.00  0.00    -0.293 A  
HETATM   33  C   UNL     1     -11.537  12.474  67.334  1.00  0.00    -0.370 C  
HETATM   34  F   UNL     1     -12.239  11.499  67.977  1.00  0.00    -0.299 F  
HETATM   35  F   UNL     1     -10.363  12.593  68.025  1.00  0.00    -0.203 F  
HETATM   36  F   UNL     1     -12.208  13.630  67.584  1.00  0.00    -0.385 F  
ENDBRANCH  24  26
ENDBRANCH  22  24
ENDBRANCH  20  22
ENDBRANCH  17  20
ENDBRANCH  12  13
ENDBRANCH   8  12
ENDBRANCH   3   6
TORSDOF 7
ENDMDL
MODEL       10
REMARK 921   NORMALIZED FREE ENERGY PREDICTED BY IDOCK:   -7.25 KCAL/MOL
REMARK 922        TOTAL FREE ENERGY PREDICTED BY IDOCK:  -12.21 KCAL/MOL
REMARK 923 INTER-LIGAND FREE ENERGY PREDICTED BY IDOCK:  -10.24 KCAL/MOL
REMARK 924 INTRA-LIGAND FREE ENERGY PREDICTED BY IDOCK:   -1.97 KCAL/MOL
REMARK 927      BINDING AFFINITY PREDICTED BY RF-SCORE:    0.00 PKD
ROOT
HETATM    1  C   UNL     1     -11.389   6.357  69.179  1.00  0.00    -0.296 C  
HETATM    2  N   UNL     1     -10.893   6.967  67.976  1.00  0.00    -0.402 N  
HETATM    3  C   UNL     1      -9.624   7.503  67.920  1.00  0.00    -0.143 C  
HETATM    4  H   UNL     1     -11.489   7.003  67.149  1.00  0.00     0.000 HD 
HETATM    5  O   UNL     1      -8.825   7.455  68.850  1.00  0.00    -0.132 OA 
ENDROOT
BRANCH   3   6
HETATM    6  C   UNL     1      -9.272   8.171  66.627  1.00  0.00    -0.180 A  
HETATM    7  C   UNL     1     -10.015   9.271  66.222  1.00  0.00    -0.357 A  
HETATM    8  C   UNL     1      -9.649   9.904  65.041  1.00  0.00    -0.297 A  
HETATM    9  C   UNL     1      -8.607   9.386  64.279  1.00  0.00    -0.216 A  
HETATM   10  N   UNL     1      -8.232   7.651  65.918  1.00  0.00    -0.125 NA 
HETATM   11  C   UNL     1      -7.932   8.272  64.756  1.00  0.00    -0.146 A  
BRANCH   8  12
HETATM   12  O   UNL     1     -10.316  10.990  64.522  1.00  0.00    -0.315 OA 
BRANCH  12  13
HETATM   13  C   UNL     1     -10.530  12.098  65.314  1.00  0.00    -0.276 A  
HETATM   14  C   UNL     1     -11.786  12.700  65.208  1.00  0.00    -0.452 A  
HETATM   15  C   UNL     1     -12.058  13.855  65.935  1.00  0.00    -0.433 A  
HETATM   16  F   UNL     1     -13.262  14.436  65.818  1.00  0.00    -0.476 F  
HETATM   17  C   UNL     1     -11.076  14.457  66.724  1.00  0.00    -0.323 A  
HETATM   18  C   UNL     1      -9.546  12.680  66.121  1.00  0.00    -0.222 A  
HETATM   19  C   UNL     1      -9.820  13.854  66.832  1.00  0.00    -0.268 A  
BRANCH  17  20
HETATM   20  N   UNL     1     -11.369  15.672  67.383  1.00  0.00    -0.230 N  
HETATM   21  H   UNL     1     -11.712  16.470  66.847  1.00  0.00     0.000 HD 
BRANCH  20  22
HETATM   22  C   UNL     1     -11.192  15.786  68.755  1.00  0.00    -0.342 C  
HETATM   23  O   UNL     1     -10.147  16.133  69.300  1.00  0.00    -0.232 OA 
BRANCH  22  24
HETATM   24  N   UNL     1     -12.348  15.445  69.431  1.00  0.00    -0.592 N  
HETATM   25  H   UNL     1     -13.115  16.116  69.473  1.00  0.00     0.000 HD 
BRANCH  24  26
HETATM   26  C   UNL     1     -12.494  14.195  70.064  1.00  0.00    -0.296 A  
HETATM   27  C   UNL     1     -13.161  14.142  71.284  1.00  0.00    -0.420 A  
HETATM   28  C   UNL     1     -13.316  12.918  71.933  1.00  0.00    -0.530 A  
HETATM   29  C   UNL     1     -12.749  11.750  71.410  1.00  0.00    -0.308 A  
HETATM   30 CL   UNL     1     -12.996  10.311  72.329  1.00  0.00    -0.399 Cl 
HETATM   31  C   UNL     1     -12.029  11.790  70.211  1.00  0.00    -0.429 A  
HETATM   32  C   UNL     1     -11.942  13.026  69.525  1.00  0.00    -0.350 A  
HETATM   33  C   UNL     1     -11.302  10.608  69.618  1.00  0.00    -0.294 C  
HETATM   34  F   UNL     1     -11.766  10.282  68.380  1.00  0.00    -0.282 F  
HETATM   35  F   UNL     1      -9.972  10.875  69.449  1.00  0.00    -0.227 F  
HETATM   36  F   UNL     1     -11.338   9.454  70.336  1.00  0.00    -0.255 F  
ENDBRANCH  24  26
ENDBRANCH  22  24
ENDBRANCH  20  22
ENDBRANCH  17  20
ENDBRANCH  12  13
ENDBRANCH   8  12
ENDBRANCH   3   6
TORSDOF 7
ENDMDL
MODEL       11
REMARK 921   NORMALIZED FREE ENERGY PREDICTED BY IDOCK:   -7.22 KCAL/MOL
REMARK 922        TOTAL FREE ENERGY PREDICTED BY IDOCK:  -12.16 KCAL/MOL
REMARK 923 INTER-LIGAND FREE ENERGY PREDICTED BY IDOCK:  -10.98 KCAL/MOL
REMARK 924 INTRA-LIGAND FREE ENERGY PREDICTED BY IDOCK:   -1.18 KCAL/MOL
REMARK 927      BINDING AFFINITY PREDICTED BY RF-SCORE:    0.00 PKD
ROOT
HETATM    1  C   UNL     1      -7.837  10.128  64.132  1.00  0.00    -0.145 C  
HETATM    2  N   UNL     1      -8.827  10.918  64.811  1.00  0.00    -0.324 N  
HETATM    3  C   UNL     1      -9.811  11.582  64.111  1.00  0.00    -0.255 C  
HETATM    4  H   UNL     1      -8.801  10.989  65.828  1.00  0.00     0.000 HD 
HETATM    5  O   UNL     1      -9.946  11.509  62.894  1.00  0.00    -0.330 OA 
ENDROOT
BRANCH   3   6
HETATM    6  C   UNL     1     -10.726  12.426  64.944  1.00  0.00    -0.294 A  
HETATM    7  C   UNL     1     -10.461  12.553  66.301  1.00  0.00    -0.268 A  
HETATM    8  C   UNL     1     -11.295  13.372  67.052  1.00  0.00    -0.317 A  
HETATM    9  C   UNL     1     -12.389  13.980  66.444  1.00  0.00    -0.468 A  
HETATM   10  N   UNL     1     -11.774  13.024  64.312  1.00  0.00    -0.365 NA 
HETATM   11  C   UNL     1     -12.582  13.781  65.085  1.00  0.00    -0.433 A  
BRANCH   8  12
HETATM   12  O   UNL     1     -11.152  13.565  68.407  1.00  0.00    -0.248 OA 
BRANCH  12  13
HETATM   13  C   UNL     1     -11.750  12.686  69.285  1.00  0.00    -0.322 A  
HETATM   14  C   UNL     1     -12.260  13.241  70.461  1.00  0.00    -0.416 A  
HETATM   15  C   UNL     1     -12.830  12.410  71.421  1.00  0.00    -0.260 A  
HETATM   16  F   UNL     1     -13.305  12.947  72.555  1.00  0.00    -0.598 F  
HETATM   17  C   UNL     1     -12.848  11.024  71.255  1.00  0.00    -0.425 A  
HETATM   18  C   UNL     1     -11.785  11.300  69.098  1.00  0.00    -0.410 A  
HETATM   19  C   UNL     1     -12.340  10.469  70.078  1.00  0.00    -0.290 A  
BRANCH  17  20
HETATM   20  N   UNL     1     -13.364  10.211  72.290  1.00  0.00    -0.590 N  
HETATM   21  H   UNL     1     -13.680  10.638  73.161  1.00  0.00     0.000 HD 
BRANCH  20  22
HETATM   22  C   UNL     1     -13.444   8.835  72.125  1.00  0.00    -0.427 C  
HETATM   23  O   UNL     1     -14.386   8.245  71.602  1.00  0.00    -0.432 OA 
BRANCH  22  24
HETATM   24  N   UNL     1     -12.323   8.211  72.641  1.00  0.00    -0.606 N  
HETATM   25  H   UNL     1     -11.959   8.512  73.545  1.00  0.00     0.000 HD 
BRANCH  24  26
HETATM   26  C   UNL     1     -11.671   7.172  71.950  1.00  0.00    -0.292 A  
HETATM   27  C   UNL     1     -11.277   6.045  72.664  1.00  0.00    -0.326 A  
HETATM   28  C   UNL     1     -10.627   5.002  72.006  1.00  0.00    -0.243 A  
HETATM   29  C   UNL     1     -10.299   5.103  70.647  1.00  0.00    -0.235 A  
HETATM   30 CL   UNL     1      -9.472   3.752  69.965  1.00  0.00    -0.251 Cl 
HETATM   31  C   UNL     1     -10.639   6.251  69.922  1.00  0.00    -0.308 A  
HETATM   32  C   UNL     1     -11.365   7.270  70.587  1.00  0.00    -0.311 A  
HETATM   33  C   UNL     1     -10.247   6.494  68.486  1.00  0.00    -0.172 C  
HETATM   34  F   UNL     1     -11.329   6.651  67.673  1.00  0.00    -0.359 F  
HETATM   35  F   UNL     1      -9.523   7.646  68.355  1.00  0.00    -0.147 F  
HETATM   36  F   UNL     1      -9.486   5.534  67.896  1.00  0.00    -0.111 F  
ENDBRANCH  24  26
ENDBRANCH  22  24
ENDBRANCH  20  22
ENDBRANCH  17  20
ENDBRANCH  12  13
ENDBRANCH   8  12
ENDBRANCH   3   6
TORSDOF 7
ENDMDL
MODEL       12
REMARK 921   NORMALIZED FREE ENERGY PREDICTED BY IDOCK:   -7.19 KCAL/MOL
REMARK 922        TOTAL FREE ENERGY PREDICTED BY IDOCK:  -12.12 KCAL/MOL
REMARK 923 INTER-LIGAND FREE ENERGY PREDICTED BY IDOCK:  -11.16 KCAL/MOL
REMARK 924 INTRA-LIGAND FREE ENERGY PREDICTED BY IDOCK:   -0.96 KCAL/MOL
REMARK 927      BINDING AFFINITY PREDICTED BY RF-SCORE:    0.00 PKD
ROOT
HETATM    1  C   UNL     1     -10.652  14.348  64.956  1.00  0.00    -0.432 C  
HETATM    2  N   UNL     1     -10.033  13.052  65.002  1.00  0.00    -0.510 N  
HETATM    3  C   UNL     1     -10.715  11.953  65.479  1.00  0.00    -0.283 C  
HETATM    4  H   UNL     1      -9.073  12.942  64.675  1.00  0.00     0.000 HD 
HETATM    5  O   UNL     1     -11.886  11.986  65.842  1.00  0.00    -0.499 OA 
ENDROOT
BRANCH   3   6
HETATM    6  C   UNL     1      -9.919  10.686  65.537  1.00  0.00    -0.272 A  
HETATM    7  C   UNL     1      -9.583  10.168  66.780  1.00  0.00    -0.222 A  
HETATM    8  C   UNL     1      -8.881   8.970  66.818  1.00  0.00    -0.127 A  
HETATM    9  C   UNL     1      -8.486   8.369  65.627  1.00  0.00    -0.179 A  
HETATM   10  N   UNL     1      -9.569  10.113  64.353  1.00  0.00    -0.305 NA 
HETATM   11  C   UNL     1      -8.854   8.969  64.432  1.00  0.00    -0.066 A  
BRANCH   8  12
HETATM   12  O   UNL     1      -8.471   8.365  67.983  1.00  0.00    -0.129 OA 
BRANCH  12  13
HETATM   13  C   UNL     1      -9.304   8.371  69.082  1.00  0.00    -0.151 A  
HETATM   14  C   UNL     1     -10.335   7.430  69.082  1.00  0.00    -0.208 A  
HETATM   15  C   UNL     1     -11.249   7.412  70.131  1.00  0.00    -0.218 A  
HETATM   16  F   UNL     1     -12.247   6.514  70.118  1.00  0.00    -0.451 F  
HETATM   17  C   UNL     1     -11.187   8.357  71.157  1.00  0.00    -0.263 A  
HETATM   18  C   UNL     1      -9.218   9.309  70.119  1.00  0.00    -0.254 A  
HETATM   19  C   UNL     1     -10.154   9.297  71.159  1.00  0.00    -0.374 A  
BRANCH  17  20
HETATM   20  N   UNL     1     -12.181   8.353  72.161  1.00  0.00    -0.351 N  
HETATM   21  H   UNL     1     -12.016   7.856  73.037  1.00  0.00     0.000 HD 
BRANCH  20  22
HETATM   22  C   UNL     1     -13.381   9.022  71.961  1.00  0.00    -0.438 C  
HETATM   23  O   UNL     1     -14.342   8.569  71.343  1.00  0.00    -0.405 OA 
BRANCH  22  24
HETATM   24  N   UNL     1     -13.350  10.275  72.543  1.00  0.00    -0.504 N  
HETATM   25  H   UNL     1     -13.575  10.369  73.533  1.00  0.00     0.000 HD 
BRANCH  24  26
HETATM   26  C   UNL     1     -13.015  11.426  71.804  1.00  0.00    -0.414 A  
HETATM   27  C   UNL     1     -12.448  11.264  70.543  1.00  0.00    -0.398 A  
HETATM   28  C   UNL     1     -12.104  12.387  69.791  1.00  0.00    -0.292 A  
HETATM   29  C   UNL     1     -12.255  13.677  70.316  1.00  0.00    -0.353 A  
HETATM   30 CL   UNL     1     -11.765  14.973  69.289  1.00  0.00    -0.328 Cl 
HETATM   31  C   UNL     1     -12.773  13.860  71.603  1.00  0.00    -0.416 A  
HETATM   32  C   UNL     1     -13.187  12.715  72.325  1.00  0.00    -0.465 A  
HETATM   33  C   UNL     1     -12.884  15.199  72.289  1.00  0.00    -0.343 C  
HETATM   34  F   UNL     1     -14.170  15.512  72.611  1.00  0.00    -0.570 F  
HETATM   35  F   UNL     1     -12.200  15.209  73.473  1.00  0.00    -0.460 F  
HETATM   36  F   UNL     1     -12.409  16.272  71.603  1.00  0.00    -0.478 F  
ENDBRANCH  24  26
ENDBRANCH  22  24
ENDBRANCH  20  22
ENDBRANCH  17  20
ENDBRANCH  12  13
ENDBRANCH   8  12
ENDBRANCH   3   6
TORSDOF 7
ENDMDL
MODEL       13
REMARK 921   NORMALIZED FREE ENERGY PREDICTED BY IDOCK:   -7.19 KCAL/MOL
REMARK 922        TOTAL FREE ENERGY PREDICTED BY IDOCK:  -12.12 KCAL/MOL
REMARK 923 INTER-LIGAND FREE ENERGY PREDICTED BY IDOCK:  -11.02 KCAL/MOL
REMARK 924 INTRA-LIGAND FREE ENERGY PREDICTED BY IDOCK:   -1.10 KCAL/MOL
REMARK 927      BINDING AFFINITY PREDICTED BY RF-SCORE:    0.00 PKD
ROOT
HETATM    1  C   UNL     1     -10.177  18.242  66.171  1.00  0.00    -0.381 C  
HETATM    2  N   UNL     1     -10.391  16.821  66.176  1.00  0.00    -0.337 N  
HETATM    3  C   UNL     1     -10.996  16.187  65.111  1.00  0.00    -0.316 C  
HETATM    4  H   UNL     1     -10.090  16.271  66.980  1.00  0.00     0.000 HD 
HETATM    5  O   UNL     1     -11.341  16.764  64.085  1.00  0.00    -1.194 OA 
ENDROOT
BRANCH   3   6
HETATM    6  C   UNL     1     -11.220  14.718  65.289  1.00  0.00    -0.366 A  
HETATM    7  C   UNL     1     -10.423  14.027  66.191  1.00  0.00    -0.297 A  
HETATM    8  C   UNL     1     -10.670  12.673  66.374  1.00  0.00    -0.255 A  
HETATM    9  C   UNL     1     -11.652  12.046  65.614  1.00  0.00    -0.356 A  
HETATM   10  N   UNL     1     -12.205  14.141  64.544  1.00  0.00    -0.538 NA 
HETATM   11  C   UNL     1     -12.388  12.815  64.725  1.00  0.00    -0.478 A  
BRANCH   8  12
HETATM   12  O   UNL     1      -9.938  11.874  67.222  1.00  0.00    -0.186 OA 
BRANCH  12  13
HETATM   13  C   UNL     1     -10.557  11.284  68.304  1.00  0.00    -0.197 A  
HETATM   14  C   UNL     1     -11.245  12.142  69.165  1.00  0.00    -0.303 A  
HETATM   15  C   UNL     1     -11.850  11.627  70.308  1.00  0.00    -0.326 A  
HETATM   16  F   UNL     1     -12.498  12.458  71.139  1.00  0.00    -0.440 F  
HETATM   17  C   UNL     1     -11.730  10.276  70.640  1.00  0.00    -0.348 A  
HETATM   18  C   UNL     1     -10.452   9.923  68.615  1.00  0.00    -0.231 A  
HETATM   19  C   UNL     1     -11.044   9.418  69.778  1.00  0.00    -0.193 A  
BRANCH  17  20
HETATM   20  N   UNL     1     -12.292   9.811  71.850  1.00  0.00    -0.368 N  
HETATM   21  H   UNL     1     -12.208  10.372  72.698  1.00  0.00     0.000 HD 
BRANCH  20  22
HETATM   22  C   UNL     1     -12.957   8.592  71.891  1.00  0.00    -0.372 C  
HETATM   23  O   UNL     1     -14.011   8.351  71.310  1.00  0.00    -0.286 OA 
BRANCH  22  24
HETATM   24  N   UNL     1     -12.278   7.687  72.684  1.00  0.00    -0.566 N  
HETATM   25  H   UNL     1     -12.289   7.808  73.697  1.00  0.00     0.000 HD 
BRANCH  24  26
HETATM   26  C   UNL     1     -11.571   6.602  72.130  1.00  0.00    -0.298 A  
HETATM   27  C   UNL     1     -11.144   5.585  72.978  1.00  0.00    -0.350 A  
HETATM   28  C   UNL     1     -10.440   4.501  72.457  1.00  0.00    -0.251 A  
HETATM   29  C   UNL     1     -10.092   4.455  71.100  1.00  0.00    -0.126 A  
HETATM   30 CL   UNL     1      -9.198   3.069  70.595  1.00  0.00    -0.194 Cl 
HETATM   31  C   UNL     1     -10.466   5.493  70.240  1.00  0.00    -0.365 A  
HETATM   32  C   UNL     1     -11.245   6.551  70.770  1.00  0.00    -0.377 A  
HETATM   33  C   UNL     1     -10.058   5.581  68.790  1.00  0.00    -0.191 C  
HETATM   34  F   UNL     1     -11.131   5.595  67.951  1.00  0.00    -0.285 F  
HETATM   35  F   UNL     1      -9.380   6.740  68.533  1.00  0.00    -0.129 F  
HETATM   36  F   UNL     1      -9.248   4.592  68.329  1.00  0.00    -0.118 F  
ENDBRANCH  24  26
ENDBRANCH  22  24
ENDBRANCH  20  22
ENDBRANCH  17  20
ENDBRANCH  12  13
ENDBRANCH   8  12
ENDBRANCH   3   6
TORSDOF 7
ENDMDL
MODEL       14
REMARK 921   NORMALIZED FREE ENERGY PREDICTED BY IDOCK:   -7.12 KCAL/MOL
REMARK 922        TOTAL FREE ENERGY PREDICTED BY IDOCK:  -12.02 KCAL/MOL
REMARK 923 INTER-LIGAND FREE ENERGY PREDICTED BY IDOCK:  -11.50 KCAL/MOL
REMARK 924 INTRA-LIGAND FREE ENERGY PREDICTED BY IDOCK:   -0.52 KCAL/MOL
REMARK 927      BINDING AFFINITY PREDICTED BY RF-SCORE:    0.00 PKD
ROOT
HETATM    1  C   UNL     1     -13.759   9.032  72.316  1.00  0.00    -0.492 C  
HETATM    2  N   UNL     1     -13.054   8.433  71.217  1.00  0.00    -0.505 N  
HETATM    3  C   UNL     1     -11.686   8.267  71.253  1.00  0.00    -0.283 C  
HETATM    4  H   UNL     1     -13.574   8.124  70.396  1.00  0.00     0.000 HD 
HETATM    5  O   UNL     1     -10.992   8.562  72.220  1.00  0.00    -0.338 OA 
ENDROOT
BRANCH   3   6
HETATM    6  C   UNL     1     -11.081   7.698  70.007  1.00  0.00    -0.191 A  
HETATM    7  C   UNL     1     -10.301   8.524  69.209  1.00  0.00    -0.227 A  
HETATM    8  C   UNL     1      -9.713   7.970  68.079  1.00  0.00    -0.160 A  
HETATM    9  C   UNL     1      -9.971   6.643  67.751  1.00  0.00    -0.158 A  
HETATM   10  N   UNL     1     -11.336   6.389  69.729  1.00  0.00    -0.416 NA 
HETATM   11  C   UNL     1     -10.777   5.900  68.601  1.00  0.00    -0.269 A  
BRANCH   8  12
HETATM   12  O   UNL     1      -8.937   8.686  67.197  1.00  0.00    -0.129 OA 
BRANCH  12  13
HETATM   13  C   UNL     1      -9.541   9.521  66.281  1.00  0.00    -0.226 A  
HETATM   14  C   UNL     1      -9.104   9.407  64.960  1.00  0.00    -0.271 A  
HETATM   15  C   UNL     1      -9.629  10.254  63.988  1.00  0.00    -0.304 A  
HETATM   16  F   UNL     1      -9.195  10.149  62.722  1.00  0.00    -0.213 F  
HETATM   17  C   UNL     1     -10.542  11.256  64.322  1.00  0.00    -0.358 A  
HETATM   18  C   UNL     1     -10.475  10.506  66.623  1.00  0.00    -0.290 A  
HETATM   19  C   UNL     1     -10.981  11.368  65.644  1.00  0.00    -0.254 A  
BRANCH  17  20
HETATM   20  N   UNL     1     -10.989  12.145  63.319  1.00  0.00    -0.673 N  
HETATM   21  H   UNL     1     -10.376  12.380  62.538  1.00  0.00     0.000 HD 
BRANCH  20  22
HETATM   22  C   UNL     1     -12.259  12.702  63.392  1.00  0.00    -0.517 C  
HETATM   23  O   UNL     1     -13.307  12.080  63.231  1.00  0.00    -0.524 OA 
BRANCH  22  24
HETATM   24  N   UNL     1     -12.189  14.056  63.659  1.00  0.00    -1.021 N  
HETATM   25  H   UNL     1     -12.399  14.720  62.914  1.00  0.00     0.000 HD 
BRANCH  24  26
HETATM   26  C   UNL     1     -11.837  14.542  64.933  1.00  0.00    -0.416 A  
HETATM   27  C   UNL     1     -12.403  13.942  66.053  1.00  0.00    -0.511 A  
HETATM   28  C   UNL     1     -12.074  14.405  67.326  1.00  0.00    -0.358 A  
HETATM   29  C   UNL     1     -11.235  15.514  67.492  1.00  0.00    -0.272 A  
HETATM   30 CL   UNL     1     -10.932  15.997  69.120  1.00  0.00    -0.274 Cl 
HETATM   31  C   UNL     1     -10.696  16.166  66.377  1.00  0.00    -0.211 A  
HETATM   32  C   UNL     1     -10.981  15.638  65.093  1.00  0.00    -0.411 A  
HETATM   33  C   UNL     1      -9.863  17.421  66.449  1.00  0.00    -0.302 C  
HETATM   34  F   UNL     1      -8.616  17.246  65.929  1.00  0.00    -0.259 F  
HETATM   35  F   UNL     1     -10.423  18.433  65.720  1.00  0.00    -0.411 F  
HETATM   36  F   UNL     1      -9.670  17.949  67.687  1.00  0.00    -0.261 F  
ENDBRANCH  24  26
ENDBRANCH  22  24
ENDBRANCH  20  22
ENDBRANCH  17  20
ENDBRANCH  12  13
ENDBRANCH   8  12
ENDBRANCH   3   6
TORSDOF 7
ENDMDL
MODEL       15
REMARK 921   NORMALIZED FREE ENERGY PREDICTED BY IDOCK:   -7.12 KCAL/MOL
REMARK 922        TOTAL FREE ENERGY PREDICTED BY IDOCK:  -12.02 KCAL/MOL
REMARK 923 INTER-LIGAND FREE ENERGY PREDICTED BY IDOCK:  -11.35 KCAL/MOL
REMARK 924 INTRA-LIGAND FREE ENERGY PREDICTED BY IDOCK:   -0.67 KCAL/MOL
REMARK 927      BINDING AFFINITY PREDICTED BY RF-SCORE:    0.00 PKD
ROOT
HETATM    1  C   UNL     1     -13.602   8.326  71.816  1.00  0.00    -0.361 C  
HETATM    2  N   UNL     1     -12.492   8.646  70.962  1.00  0.00    -0.477 N  
HETATM    3  C   UNL     1     -11.208   8.716  71.459  1.00  0.00    -0.290 C  
HETATM    4  H   UNL     1     -12.656   8.825  69.972  1.00  0.00     0.000 HD 
HETATM    5  O   UNL     1     -10.916   8.466  72.623  1.00  0.00    -0.353 OA 
ENDROOT
BRANCH   3   6
HETATM    6  C   UNL     1     -10.164   9.134  70.469  1.00  0.00    -0.235 A  
HETATM    7  C   UNL     1     -10.487   9.123  69.119  1.00  0.00    -0.230 A  
HETATM    8  C   UNL     1      -9.522   9.552  68.216  1.00  0.00    -0.133 A  
HETATM    9  C   UNL     1      -8.261   9.913  68.680  1.00  0.00    -0.108 A  
HETATM   10  N   UNL     1      -8.949   9.502  70.960  1.00  0.00    -0.219 NA 
HETATM   11  C   UNL     1      -8.026   9.876  70.046  1.00  0.00    -0.180 A  
BRANCH   8  12
HETATM   12  O   UNL     1      -9.710   9.570  66.853  1.00  0.00    -0.162 OA 
BRANCH  12  13
HETATM   13  C   UNL     1     -10.306  10.664  66.263  1.00  0.00    -0.234 A  
HETATM   14  C   UNL     1     -11.078  11.472  67.100  1.00  0.00    -0.355 A  
HETATM   15  C   UNL     1     -11.755  12.564  66.566  1.00  0.00    -0.391 A  
HETATM   16  F   UNL     1     -12.507  13.330  67.372  1.00  0.00    -0.314 F  
HETATM   17  C   UNL     1     -11.723  12.831  65.195  1.00  0.00    -0.360 A  
HETATM   18  C   UNL     1     -10.248  10.937  64.891  1.00  0.00    -0.381 A  
HETATM   19  C   UNL     1     -10.950  12.024  64.359  1.00  0.00    -0.385 A  
BRANCH  17  20
HETATM   20  N   UNL     1     -12.490  13.903  64.683  1.00  0.00    -0.620 N  
HETATM   21  H   UNL     1     -13.465  13.752  64.426  1.00  0.00     0.000 HD 
BRANCH  20  22
HETATM   22  C   UNL     1     -11.920  15.160  64.528  1.00  0.00    -0.319 C  
HETATM   23  O   UNL     1     -12.392  16.062  63.841  1.00  0.00    -0.855 OA 
BRANCH  22  24
HETATM   24  N   UNL     1     -10.741  15.258  65.242  1.00  0.00    -0.385 N  
HETATM   25  H   UNL     1     -10.011  14.563  65.093  1.00  0.00     0.000 HD 
BRANCH  24  26
HETATM   26  C   UNL     1     -10.524  16.294  66.172  1.00  0.00    -0.322 A  
HETATM   27  C   UNL     1     -10.807  16.054  67.512  1.00  0.00    -0.292 A  
HETATM   28  C   UNL     1     -10.604  17.063  68.453  1.00  0.00    -0.375 A  
HETATM   29  C   UNL     1     -10.186  18.340  68.058  1.00  0.00    -0.385 A  
HETATM   30 CL   UNL     1     -10.000  19.500  69.321  1.00  0.00    -0.446 Cl 
HETATM   31  C   UNL     1      -9.946  18.618  66.707  1.00  0.00    -0.381 A  
HETATM   32  C   UNL     1     -10.086  17.563  65.773  1.00  0.00    -0.119 A  
HETATM   33  C   UNL     1      -9.587  19.983  66.174  1.00  0.00    -0.373 C  
HETATM   34  F   UNL     1      -8.378  19.993  65.548  1.00  0.00    -0.307 F  
HETATM   35  F   UNL     1     -10.487  20.403  65.234  1.00  0.00    -0.471 F  
HETATM   36  F   UNL     1      -9.535  20.993  67.082  1.00  0.00    -0.532 F  
ENDBRANCH  24  26
ENDBRANCH  22  24
ENDBRANCH  20  22
ENDBRANCH  17  20
ENDBRANCH  12  13
ENDBRANCH   8  12
ENDBRANCH   3   6
TORSDOF 7
ENDMDL
MODEL       16
REMARK 921   NORMALIZED FREE ENERGY PREDICTED BY IDOCK:   -7.10 KCAL/MOL
REMARK 922        TOTAL FREE ENERGY PREDICTED BY IDOCK:  -11.99 KCAL/MOL
REMARK 923 INTER-LIGAND FREE ENERGY PREDICTED BY IDOCK:  -10.86 KCAL/MOL
REMARK 924 INTRA-LIGAND FREE ENERGY PREDICTED BY IDOCK:   -1.13 KCAL/MOL
REMARK 927      BINDING AFFINITY PREDICTED BY RF-SCORE:    0.00 PKD
ROOT
HETATM    1  C   UNL     1     -10.094  20.054  67.951  1.00  0.00    -0.420 C  
HETATM    2  N   UNL     1     -10.189  18.726  67.409  1.00  0.00    -0.371 N  
HETATM    3  C   UNL     1     -10.438  18.519  66.069  1.00  0.00    -0.400 C  
HETATM    4  H   UNL     1     -10.071  17.923  68.026  1.00  0.00     0.000 HD 
HETATM    5  O   UNL     1     -10.542  19.427  65.250  1.00  0.00    -0.393 OA 
ENDROOT
BRANCH   3   6
HETATM    6  C   UNL     1     -10.585  17.086  65.662  1.00  0.00    -0.197 A  
HETATM    7  C   UNL     1      -9.956  16.111  66.424  1.00  0.00    -0.315 A  
HETATM    8  C   UNL     1     -10.135  14.783  66.058  1.00  0.00    -0.308 A  
HETATM    9  C   UNL     1     -10.876  14.479  64.920  1.00  0.00    -0.436 A  
HETATM   10  N   UNL     1     -11.334  16.823  64.556  1.00  0.00    -0.993 NA 
HETATM   11  C   UNL     1     -11.453  15.522  64.212  1.00  0.00    -0.180 A  
BRANCH   8  12
HETATM   12  O   UNL     1      -9.551  13.727  66.718  1.00  0.00    -0.261 OA 
BRANCH  12  13
HETATM   13  C   UNL     1     -10.342  12.840  67.417  1.00  0.00    -0.222 A  
HETATM   14  C   UNL     1     -11.006  13.352  68.534  1.00  0.00    -0.292 A  
HETATM   15  C   UNL     1     -11.779  12.505  69.321  1.00  0.00    -0.321 A  
HETATM   16  F   UNL     1     -12.404  12.999  70.401  1.00  0.00    -0.391 F  
HETATM   17  C   UNL     1     -11.856  11.138  69.047  1.00  0.00    -0.348 A  
HETATM   18  C   UNL     1     -10.432  11.475  67.119  1.00  0.00    -0.259 A  
HETATM   19  C   UNL     1     -11.194  10.625  67.929  1.00  0.00    -0.376 A  
BRANCH  17  20
HETATM   20  N   UNL     1     -12.588  10.299  69.918  1.00  0.00    -0.550 N  
HETATM   21  H   UNL     1     -13.608  10.310  69.895  1.00  0.00     0.000 HD 
BRANCH  20  22
HETATM   22  C   UNL     1     -11.926   9.461  70.805  1.00  0.00    -0.231 C  
HETATM   23  O   UNL     1     -10.994   9.803  71.528  1.00  0.00    -0.309 OA 
BRANCH  22  24
HETATM   24  N   UNL     1     -12.449   8.182  70.758  1.00  0.00    -0.494 N  
HETATM   25  H   UNL     1     -13.460   8.061  70.718  1.00  0.00     0.000 HD 
BRANCH  24  26
HETATM   26  C   UNL     1     -11.621   7.043  70.766  1.00  0.00    -0.338 A  
HETATM   27  C   UNL     1     -11.148   6.558  69.551  1.00  0.00    -0.425 A  
HETATM   28  C   UNL     1     -10.329   5.430  69.528  1.00  0.00    -0.350 A  
HETATM   29  C   UNL     1     -10.033   4.734  70.708  1.00  0.00    -0.221 A  
HETATM   30 CL   UNL     1      -9.030   3.341  70.533  1.00  0.00    -0.150 Cl 
HETATM   31  C   UNL     1     -10.542   5.174  71.935  1.00  0.00    -0.256 A  
HETATM   32  C   UNL     1     -11.311   6.363  71.950  1.00  0.00    -0.339 A  
HETATM   33  C   UNL     1     -10.358   4.441  73.241  1.00  0.00    -0.173 C  
HETATM   34  F   UNL     1      -9.705   5.193  74.169  1.00  0.00    -0.132 F  
HETATM   35  F   UNL     1     -11.562   4.127  73.808  1.00  0.00    -0.294 F  
HETATM   36  F   UNL     1      -9.682   3.264  73.183  1.00  0.00    -0.118 F  
ENDBRANCH  24  26
ENDBRANCH  22  24
ENDBRANCH  20  22
ENDBRANCH  17  20
ENDBRANCH  12  13
ENDBRANCH   8  12
ENDBRANCH   3   6
TORSDOF 7
ENDMDL
MODEL       17
REMARK 921   NORMALIZED FREE ENERGY PREDICTED BY IDOCK:   -7.08 KCAL/MOL
REMARK 922        TOTAL FREE ENERGY PREDICTED BY IDOCK:  -11.96 KCAL/MOL
REMARK 923 INTER-LIGAND FREE ENERGY PREDICTED BY IDOCK:  -10.70 KCAL/MOL
REMARK 924 INTRA-LIGAND FREE ENERGY PREDICTED BY IDOCK:   -1.26 KCAL/MOL
REMARK 927      BINDING AFFINITY PREDICTED BY RF-SCORE:    0.00 PKD
ROOT
HETATM    1  C   UNL     1     -10.130  19.903  68.080  1.00  0.00    -0.441 C  
HETATM    2  N   UNL     1     -10.215  18.607  67.466  1.00  0.00    -0.364 N  
HETATM    3  C   UNL     1     -10.449  18.472  66.114  1.00  0.00    -0.413 C  
HETATM    4  H   UNL     1     -10.101  17.771  68.040  1.00  0.00     0.000 HD 
HETATM    5  O   UNL     1     -10.547  19.422  65.345  1.00  0.00    -0.475 OA 
ENDROOT
BRANCH   3   6
HETATM    6  C   UNL     1     -10.588  17.062  65.630  1.00  0.00    -0.197 A  
HETATM    7  C   UNL     1      -9.953  16.050  66.337  1.00  0.00    -0.312 A  
HETATM    8  C   UNL     1     -10.124  14.744  65.898  1.00  0.00    -0.321 A  
HETATM    9  C   UNL     1     -10.864  14.498  64.745  1.00  0.00    -0.410 A  
HETATM   10  N   UNL     1     -11.336  16.856  64.511  1.00  0.00    -1.002 NA 
HETATM   11  C   UNL     1     -11.447  15.576  64.096  1.00  0.00    -0.053 A  
BRANCH   8  12
HETATM   12  O   UNL     1      -9.533  13.656  66.499  1.00  0.00    -0.269 OA 
BRANCH  12  13
HETATM   13  C   UNL     1     -10.304  12.786  67.240  1.00  0.00    -0.232 A  
HETATM   14  C   UNL     1     -10.860  13.299  68.413  1.00  0.00    -0.279 A  
HETATM   15  C   UNL     1     -11.606  12.466  69.242  1.00  0.00    -0.319 A  
HETATM   16  F   UNL     1     -12.125  12.961  70.376  1.00  0.00    -0.396 F  
HETATM   17  C   UNL     1     -11.759  11.109  68.949  1.00  0.00    -0.337 A  
HETATM   18  C   UNL     1     -10.473  11.432  66.924  1.00  0.00    -0.278 A  
HETATM   19  C   UNL     1     -11.205  10.596  67.774  1.00  0.00    -0.383 A  
BRANCH  17  20
HETATM   20  N   UNL     1     -12.456  10.281  69.858  1.00  0.00    -0.539 N  
HETATM   21  H   UNL     1     -13.476  10.291  69.874  1.00  0.00     0.000 HD 
BRANCH  20  22
HETATM   22  C   UNL     1     -11.759   9.455  70.729  1.00  0.00    -0.282 C  
HETATM   23  O   UNL     1     -10.773   9.794  71.379  1.00  0.00    -0.267 OA 
BRANCH  22  24
HETATM   24  N   UNL     1     -12.317   8.190  70.761  1.00  0.00    -0.496 N  
HETATM   25  H   UNL     1     -13.313   8.092  70.955  1.00  0.00     0.000 HD 
BRANCH  24  26
HETATM   26  C   UNL     1     -11.545   7.035  70.534  1.00  0.00    -0.319 A  
HETATM   27  C   UNL     1     -11.141   6.280  71.630  1.00  0.00    -0.325 A  
HETATM   28  C   UNL     1     -10.373   5.133  71.433  1.00  0.00    -0.273 A  
HETATM   29  C   UNL     1      -9.941   4.768  70.151  1.00  0.00    -0.251 A  
HETATM   30 CL   UNL     1      -8.976   3.342  70.056  1.00  0.00    -0.156 Cl 
HETATM   31  C   UNL     1     -10.292   5.543  69.041  1.00  0.00    -0.304 A  
HETATM   32  C   UNL     1     -11.134   6.664  69.248  1.00  0.00    -0.345 A  
HETATM   33  C   UNL     1      -9.799   5.287  67.638  1.00  0.00    -0.155 C  
HETATM   34  F   UNL     1     -10.817   5.045  66.767  1.00  0.00    -0.289 F  
HETATM   35  F   UNL     1      -9.141   6.376  67.136  1.00  0.00    -0.118 F  
HETATM   36  F   UNL     1      -8.932   4.252  67.482  1.00  0.00    -0.104 F  
ENDBRANCH  24  26
ENDBRANCH  22  24
ENDBRANCH  20  22
ENDBRANCH  17  20
ENDBRANCH  12  13
ENDBRANCH   8  12
ENDBRANCH   3   6
TORSDOF 7
ENDMDL
MODEL       18
REMARK 921   NORMALIZED FREE ENERGY PREDICTED BY IDOCK:   -7.06 KCAL/MOL
REMARK 922        TOTAL FREE ENERGY PREDICTED BY IDOCK:  -11.93 KCAL/MOL
REMARK 923 INTER-LIGAND FREE ENERGY PREDICTED BY IDOCK:  -10.69 KCAL/MOL
REMARK 924 INTRA-LIGAND FREE ENERGY PREDICTED BY IDOCK:   -1.24 KCAL/MOL
REMARK 927      BINDING AFFINITY PREDICTED BY RF-SCORE:    0.00 PKD
ROOT
HETATM    1  C   UNL     1      -9.136   7.836  73.714  1.00  0.00    -0.273 C  
HETATM    2  N   UNL     1      -9.245   7.570  72.306  1.00  0.00    -0.134 N  
HETATM    3  C   UNL     1     -10.373   7.928  71.598  1.00  0.00    -0.204 C  
HETATM    4  H   UNL     1      -8.475   7.109  71.822  1.00  0.00     0.000 HD 
HETATM    5  O   UNL     1     -11.320   8.531  72.091  1.00  0.00    -0.328 OA 
ENDROOT
BRANCH   3   6
HETATM    6  C   UNL     1     -10.375   7.521  70.157  1.00  0.00    -0.216 A  
HETATM    7  C   UNL     1      -9.583   8.230  69.265  1.00  0.00    -0.164 A  
HETATM    8  C   UNL     1      -9.565   7.814  67.939  1.00  0.00    -0.146 A  
HETATM    9  C   UNL     1     -10.377   6.756  67.541  1.00  0.00    -0.267 A  
HETATM   10  N   UNL     1     -11.165   6.468  69.807  1.00  0.00    -0.370 NA 
HETATM   11  C   UNL     1     -11.147   6.119  68.502  1.00  0.00    -0.262 A  
BRANCH   8  12
HETATM   12  O   UNL     1      -8.839   8.443  66.955  1.00  0.00    -0.135 OA 
BRANCH  12  13
HETATM   13  C   UNL     1      -9.450   9.386  66.156  1.00  0.00    -0.226 A  
HETATM   14  C   UNL     1      -9.120   9.354  64.800  1.00  0.00    -0.248 A  
HETATM   15  C   UNL     1      -9.655  10.309  63.940  1.00  0.00    -0.293 A  
HETATM   16  F   UNL     1      -9.322  10.282  62.640  1.00  0.00    -0.232 F  
HETATM   17  C   UNL     1     -10.471  11.334  64.421  1.00  0.00    -0.345 A  
HETATM   18  C   UNL     1     -10.288  10.396  66.645  1.00  0.00    -0.292 A  
HETATM   19  C   UNL     1     -10.804  11.365  65.777  1.00  0.00    -0.290 A  
BRANCH  17  20
HETATM   20  N   UNL     1     -10.929  12.329  63.528  1.00  0.00    -0.514 N  
HETATM   21  H   UNL     1     -10.278  12.759  62.870  1.00  0.00     0.000 HD 
BRANCH  20  22
HETATM   22  C   UNL     1     -12.260  12.724  63.541  1.00  0.00    -0.525 C  
HETATM   23  O   UNL     1     -13.217  11.964  63.419  1.00  0.00    -0.649 OA 
BRANCH  22  24
HETATM   24  N   UNL     1     -12.367  14.093  63.699  1.00  0.00    -1.092 N  
HETATM   25  H   UNL     1     -12.855  14.638  62.990  1.00  0.00     0.000 HD 
BRANCH  24  26
HETATM   26  C   UNL     1     -11.818  14.753  64.815  1.00  0.00    -0.423 A  
HETATM   27  C   UNL     1     -11.050  15.893  64.601  1.00  0.00    -0.368 A  
HETATM   28  C   UNL     1     -10.492  16.565  65.688  1.00  0.00    -0.341 A  
HETATM   29  C   UNL     1     -10.634  16.068  66.990  1.00  0.00    -0.302 A  
HETATM   30 CL   UNL     1      -9.871  16.983  68.237  1.00  0.00    -0.266 Cl 
HETATM   31  C   UNL     1     -11.359  14.893  67.222  1.00  0.00    -0.355 A  
HETATM   32  C   UNL     1     -11.981  14.263  66.117  1.00  0.00    -0.422 A  
HETATM   33  C   UNL     1     -11.487  14.229  68.571  1.00  0.00    -0.298 C  
HETATM   34  F   UNL     1     -12.782  14.141  68.984  1.00  0.00    -0.231 F  
HETATM   35  F   UNL     1     -11.027  12.942  68.538  1.00  0.00    -0.234 F  
HETATM   36  F   UNL     1     -10.816  14.813  69.599  1.00  0.00    -0.244 F  
ENDBRANCH  24  26
ENDBRANCH  22  24
ENDBRANCH  20  22
ENDBRANCH  17  20
ENDBRANCH  12  13
ENDBRANCH   8  12
ENDBRANCH   3   6
TORSDOF 7
ENDMDL
MODEL       19
REMARK 921   NORMALIZED FREE ENERGY PREDICTED BY IDOCK:   -7.04 KCAL/MOL
REMARK 922        TOTAL FREE ENERGY PREDICTED BY IDOCK:  -11.91 KCAL/MOL
REMARK 923 INTER-LIGAND FREE ENERGY PREDICTED BY IDOCK:  -10.88 KCAL/MOL
REMARK 924 INTRA-LIGAND FREE ENERGY PREDICTED BY IDOCK:   -1.03 KCAL/MOL
REMARK 927      BINDING AFFINITY PREDICTED BY RF-SCORE:    0.00 PKD
ROOT
HETATM    1  C   UNL     1     -10.292  18.202  66.135  1.00  0.00    -0.385 C  
HETATM    2  N   UNL     1     -10.497  16.780  66.099  1.00  0.00    -0.307 N  
HETATM    3  C   UNL     1     -11.087  16.173  65.010  1.00  0.00    -0.294 C  
HETATM    4  H   UNL     1     -10.202  16.210  66.891  1.00  0.00     0.000 HD 
HETATM    5  O   UNL     1     -11.423  16.776  63.997  1.00  0.00    -1.198 OA 
ENDROOT
BRANCH   3   6
HETATM    6  C   UNL     1     -11.304  14.697  65.145  1.00  0.00    -0.375 A  
HETATM    7  C   UNL     1     -10.467  13.976  65.985  1.00  0.00    -0.307 A  
HETATM    8  C   UNL     1     -10.707  12.616  66.131  1.00  0.00    -0.267 A  
HETATM    9  C   UNL     1     -11.723  12.015  65.394  1.00  0.00    -0.317 A  
HETATM   10  N   UNL     1     -12.321  14.147  64.425  1.00  0.00    -0.636 NA 
HETATM   11  C   UNL     1     -12.497  12.815  64.566  1.00  0.00    -0.428 A  
BRANCH   8  12
HETATM   12  O   UNL     1      -9.940  11.788  66.917  1.00  0.00    -0.196 OA 
BRANCH  12  13
HETATM   13  C   UNL     1     -10.420  11.373  68.141  1.00  0.00    -0.187 A  
HETATM   14  C   UNL     1      -9.623  10.466  68.842  1.00  0.00    -0.197 A  
HETATM   15  C   UNL     1     -10.067   9.961  70.060  1.00  0.00    -0.260 A  
HETATM   16  F   UNL     1      -9.303   9.079  70.723  1.00  0.00    -0.197 F  
HETATM   17  C   UNL     1     -11.324  10.300  70.566  1.00  0.00    -0.341 A  
HETATM   18  C   UNL     1     -11.672  11.739  68.651  1.00  0.00    -0.389 A  
HETATM   19  C   UNL     1     -12.121  11.209  69.865  1.00  0.00    -0.418 A  
BRANCH  17  20
HETATM   20  N   UNL     1     -11.770   9.702  71.766  1.00  0.00    -0.362 N  
HETATM   21  H   UNL     1     -11.247   9.847  72.630  1.00  0.00     0.000 HD 
BRANCH  20  22
HETATM   22  C   UNL     1     -12.916   8.918  71.775  1.00  0.00    -0.367 C  
HETATM   23  O   UNL     1     -13.870   9.082  72.531  1.00  0.00    -0.473 OA 
BRANCH  22  24
HETATM   24  N   UNL     1     -12.837   7.919  70.824  1.00  0.00    -0.462 N  
HETATM   25  H   UNL     1     -13.483   7.932  70.035  1.00  0.00     0.000 HD 
BRANCH  24  26
HETATM   26  C   UNL     1     -11.888   6.882  70.917  1.00  0.00    -0.376 A  
HETATM   27  C   UNL     1     -11.534   6.200  69.758  1.00  0.00    -0.362 A  
HETATM   28  C   UNL     1     -10.599   5.167  69.822  1.00  0.00    -0.175 A  
HETATM   29  C   UNL     1     -10.064   4.758  71.050  1.00  0.00    -0.199 A  
HETATM   30 CL   UNL     1      -8.939   3.452  70.987  1.00  0.00    -0.145 Cl 
HETATM   31  C   UNL     1     -10.447   5.396  72.235  1.00  0.00    -0.272 A  
HETATM   32  C   UNL     1     -11.340   6.491  72.145  1.00  0.00    -0.321 A  
HETATM   33  C   UNL     1     -10.000   4.967  73.611  1.00  0.00    -0.159 C  
HETATM   34  F   UNL     1      -9.317   5.948  74.263  1.00  0.00    -0.126 F  
HETATM   35  F   UNL     1     -11.068   4.673  74.412  1.00  0.00    -0.284 F  
HETATM   36  F   UNL     1      -9.204   3.867  73.673  1.00  0.00    -0.097 F  
ENDBRANCH  24  26
ENDBRANCH  22  24
ENDBRANCH  20  22
ENDBRANCH  17  20
ENDBRANCH  12  13
ENDBRANCH   8  12
ENDBRANCH   3   6
TORSDOF 7
ENDMDL
MODEL       20
REMARK 921   NORMALIZED FREE ENERGY PREDICTED BY IDOCK:   -7.04 KCAL/MOL
REMARK 922        TOTAL FREE ENERGY PREDICTED BY IDOCK:  -11.90 KCAL/MOL
REMARK 923 INTER-LIGAND FREE ENERGY PREDICTED BY IDOCK:  -10.81 KCAL/MOL
REMARK 924 INTRA-LIGAND FREE ENERGY PREDICTED BY IDOCK:   -1.09 KCAL/MOL
REMARK 927      BINDING AFFINITY PREDICTED BY RF-SCORE:    0.00 PKD
ROOT
HETATM    1  C   UNL     1      -9.312   3.204  68.847  1.00  0.00    -0.162 C  
HETATM    2  N   UNL     1      -9.709   4.121  69.880  1.00  0.00    -0.212 N  
HETATM    3  C   UNL     1     -10.256   5.348  69.572  1.00  0.00    -0.266 C  
HETATM    4  H   UNL     1      -9.584   3.859  70.858  1.00  0.00     0.000 HD 
HETATM    5  O   UNL     1     -10.489   5.719  68.427  1.00  0.00    -0.197 OA 
ENDROOT
BRANCH   3   6
HETATM    6  C   UNL     1     -10.551   6.227  70.749  1.00  0.00    -0.243 A  
HETATM    7  C   UNL     1     -11.626   7.101  70.673  1.00  0.00    -0.354 A  
HETATM    8  C   UNL     1     -11.912   7.879  71.787  1.00  0.00    -0.298 A  
HETATM    9  C   UNL     1     -11.086   7.806  72.905  1.00  0.00    -0.457 A  
HETATM   10  N   UNL     1      -9.736   6.113  71.834  1.00  0.00    -0.154 NA 
HETATM   11  C   UNL     1     -10.024   6.914  72.882  1.00  0.00    -0.181 A  
BRANCH   8  12
HETATM   12  O   UNL     1     -12.935   8.797  71.832  1.00  0.00    -0.331 OA 
BRANCH  12  13
HETATM   13  C   UNL     1     -12.693  10.105  71.467  1.00  0.00    -0.436 A  
HETATM   14  C   UNL     1     -13.385  11.084  72.183  1.00  0.00    -0.285 A  
HETATM   15  C   UNL     1     -13.233  12.423  71.837  1.00  0.00    -0.382 A  
HETATM   16  F   UNL     1     -13.912  13.358  72.519  1.00  0.00    -0.588 F  
HETATM   17  C   UNL     1     -12.447  12.801  70.747  1.00  0.00    -0.271 A  
HETATM   18  C   UNL     1     -11.882  10.475  70.388  1.00  0.00    -0.431 A  
HETATM   19  C   UNL     1     -11.753  11.822  70.032  1.00  0.00    -0.386 A  
BRANCH  17  20
HETATM   20  N   UNL     1     -12.384  14.164  70.380  1.00  0.00    -0.339 N  
HETATM   21  H   UNL     1     -12.937  14.853  70.890  1.00  0.00     0.000 HD 
BRANCH  20  22
HETATM   22  C   UNL     1     -11.572  14.570  69.330  1.00  0.00    -0.302 C  
HETATM   23  O   UNL     1     -10.374  14.824  69.427  1.00  0.00    -0.217 OA 
BRANCH  22  24
HETATM   24  N   UNL     1     -12.295  14.663  68.155  1.00  0.00    -0.592 N  
HETATM   25  H   UNL     1     -13.090  15.300  68.111  1.00  0.00     0.000 HD 
BRANCH  24  26
HETATM   26  C   UNL     1     -11.962  13.900  67.019  1.00  0.00    -0.424 A  
HETATM   27  C   UNL     1     -12.477  14.286  65.786  1.00  0.00    -0.421 A  
HETATM   28  C   UNL     1     -12.166  13.547  64.645  1.00  0.00    -0.450 A  
HETATM   29  C   UNL     1     -11.400  12.377  64.734  1.00  0.00    -0.315 A  
HETATM   30 CL   UNL     1     -11.114  11.547  63.250  1.00  0.00    -0.361 Cl 
HETATM   31  C   UNL     1     -10.917  11.941  65.973  1.00  0.00    -0.355 A  
HETATM   32  C   UNL     1     -11.179  12.743  67.111  1.00  0.00    -0.336 A  
HETATM   33  C   UNL     1     -10.168  10.649  66.183  1.00  0.00    -0.248 C  
HETATM   34  F   UNL     1      -8.918  10.851  66.685  1.00  0.00    -0.151 F  
HETATM   35  F   UNL     1     -10.801   9.849  67.094  1.00  0.00    -0.313 F  
HETATM   36  F   UNL     1      -9.998   9.863  65.087  1.00  0.00    -0.351 F  
ENDBRANCH  24  26
ENDBRANCH  22  24
ENDBRANCH  20  22
ENDBRANCH  17  20
ENDBRANCH  12  13
ENDBRANCH   8  12
ENDBRANCH   3   6
TORSDOF 7
ENDMDL
MODEL       21
REMARK 921   NORMALIZED FREE ENERGY PREDICTED BY IDOCK:   -6.96 KCAL/MOL
REMARK 922        TOTAL FREE ENERGY PREDICTED BY IDOCK:  -11.80 KCAL/MOL
REMARK 923 INTER-LIGAND FREE ENERGY PREDICTED BY IDOCK:  -10.57 KCAL/MOL
REMARK 924 INTRA-LIGAND FREE ENERGY PREDICTED BY IDOCK:   -1.23 KCAL/MOL
REMARK 927      BINDING AFFINITY PREDICTED BY RF-SCORE:    0.00 PKD
ROOT
HETATM    1  C   UNL     1      -9.325   4.885  67.505  1.00  0.00    -0.133 C  
HETATM    2  N   UNL     1      -9.706   5.754  68.584  1.00  0.00    -0.126 N  
HETATM    3  C   UNL     1      -9.890   5.267  69.861  1.00  0.00    -0.211 C  
HETATM    4  H   UNL     1      -9.842   6.748  68.403  1.00  0.00     0.000 HD 
HETATM    5  O   UNL     1      -9.697   4.098  70.176  1.00  0.00    -0.193 OA 
ENDROOT
BRANCH   3   6
HETATM    6  C   UNL     1     -10.358   6.275  70.865  1.00  0.00    -0.205 A  
HETATM    7  C   UNL     1     -11.458   7.062  70.554  1.00  0.00    -0.363 A  
HETATM    8  C   UNL     1     -11.905   7.963  71.512  1.00  0.00    -0.289 A  
HETATM    9  C   UNL     1     -11.210   8.092  72.710  1.00  0.00    -0.448 A  
HETATM   10  N   UNL     1      -9.667   6.358  72.036  1.00  0.00    -0.151 NA 
HETATM   11  C   UNL     1     -10.111   7.273  72.925  1.00  0.00    -0.227 A  
BRANCH   8  12
HETATM   12  O   UNL     1     -12.969   8.813  71.319  1.00  0.00    -0.290 OA 
BRANCH  12  13
HETATM   13  C   UNL     1     -12.739  10.157  71.118  1.00  0.00    -0.396 A  
HETATM   14  C   UNL     1     -13.361  11.031  72.012  1.00  0.00    -0.393 A  
HETATM   15  C   UNL     1     -13.219  12.405  71.841  1.00  0.00    -0.382 A  
HETATM   16  F   UNL     1     -13.831  13.240  72.694  1.00  0.00    -0.620 F  
HETATM   17  C   UNL     1     -12.513  12.926  70.754  1.00  0.00    -0.286 A  
HETATM   18  C   UNL     1     -12.008  10.669  70.039  1.00  0.00    -0.408 A  
HETATM   19  C   UNL     1     -11.889  12.052  69.861  1.00  0.00    -0.405 A  
BRANCH  17  20
HETATM   20  N   UNL     1     -12.461  14.327  70.573  1.00  0.00    -0.342 N  
HETATM   21  H   UNL     1     -13.196  14.798  70.047  1.00  0.00     0.000 HD 
BRANCH  20  22
HETATM   22  C   UNL     1     -11.412  15.063  71.108  1.00  0.00    -0.309 C  
HETATM   23  O   UNL     1     -11.423  15.594  72.215  1.00  0.00    -0.418 OA 
BRANCH  22  24
HETATM   24  N   UNL     1     -10.354  15.130  70.221  1.00  0.00    -0.511 N  
HETATM   25  H   UNL     1      -9.508  14.596  70.417  1.00  0.00     0.000 HD 
BRANCH  24  26
HETATM   26  C   UNL     1     -10.414  15.917  69.055  1.00  0.00    -0.234 A  
HETATM   27  C   UNL     1     -10.373  17.301  69.184  1.00  0.00    -0.290 A  
HETATM   28  C   UNL     1     -10.434  18.104  68.046  1.00  0.00    -0.387 A  
HETATM   29  C   UNL     1     -10.608  17.538  66.776  1.00  0.00    -0.201 A  
HETATM   30 CL   UNL     1     -10.694  18.648  65.459  1.00  0.00    -0.227 Cl 
HETATM   31  C   UNL     1     -10.705  16.150  66.629  1.00  0.00    -0.226 A  
HETATM   32  C   UNL     1     -10.568  15.344  67.786  1.00  0.00    -0.274 A  
HETATM   33  C   UNL     1     -10.988  15.454  65.320  1.00  0.00    -0.387 C  
HETATM   34  F   UNL     1      -9.988  14.603  64.959  1.00  0.00    -0.390 F  
HETATM   35  F   UNL     1     -12.113  14.680  65.401  1.00  0.00    -0.360 F  
HETATM   36  F   UNL     1     -11.192  16.255  64.241  1.00  0.00    -0.491 F  
ENDBRANCH  24  26
ENDBRANCH  22  24
ENDBRANCH  20  22
ENDBRANCH  17  20
ENDBRANCH  12  13
ENDBRANCH   8  12
ENDBRANCH   3   6
TORSDOF 7
ENDMDL
MODEL       22
REMARK 921   NORMALIZED FREE ENERGY PREDICTED BY IDOCK:   -6.84 KCAL/MOL
REMARK 922        TOTAL FREE ENERGY PREDICTED BY IDOCK:  -11.62 KCAL/MOL
REMARK 923 INTER-LIGAND FREE ENERGY PREDICTED BY IDOCK:  -10.35 KCAL/MOL
REMARK 924 INTRA-LIGAND FREE ENERGY PREDICTED BY IDOCK:   -1.28 KCAL/MOL
REMARK 927      BINDING AFFINITY PREDICTED BY RF-SCORE:    0.00 PKD
ROOT
HETATM    1  C   UNL     1     -14.394  15.397  72.329  1.00  0.00    -0.483 C  
HETATM    2  N   UNL     1     -13.718  15.257  71.068  1.00  0.00    -0.693 N  
HETATM    3  C   UNL     1     -12.376  15.546  70.943  1.00  0.00    -0.422 C  
HETATM    4  H   UNL     1     -14.240  14.937  70.253  1.00  0.00     0.000 HD 
HETATM    5  O   UNL     1     -11.664  15.885  71.882  1.00  0.00    -0.425 OA 
ENDROOT
BRANCH   3   6
HETATM    6  C   UNL     1     -11.826  15.426  69.555  1.00  0.00    -0.349 A  
HETATM    7  C   UNL     1     -12.280  14.392  68.747  1.00  0.00    -0.200 A  
HETATM    8  C   UNL     1     -11.791  14.319  67.449  1.00  0.00    -0.409 A  
HETATM    9  C   UNL     1     -10.829  15.230  67.026  1.00  0.00    -0.321 A  
HETATM   10  N   UNL     1     -10.903  16.348  69.167  1.00  0.00    -0.310 NA 
HETATM   11  C   UNL     1     -10.424  16.219  67.910  1.00  0.00    -0.295 A  
BRANCH   8  12
HETATM   12  O   UNL     1     -12.146  13.333  66.558  1.00  0.00    -0.395 OA 
BRANCH  12  13
HETATM   13  C   UNL     1     -11.440  12.149  66.537  1.00  0.00    -0.369 A  
HETATM   14  C   UNL     1     -10.985  11.723  65.287  1.00  0.00    -0.350 A  
HETATM   15  C   UNL     1     -10.312  10.510  65.178  1.00  0.00    -0.240 A  
HETATM   16  F   UNL     1      -9.889  10.100  63.972  1.00  0.00    -0.356 F  
HETATM   17  C   UNL     1     -10.134   9.683  66.288  1.00  0.00    -0.252 A  
HETATM   18  C   UNL     1     -11.246  11.338  67.661  1.00  0.00    -0.357 A  
HETATM   19  C   UNL     1     -10.587  10.109  67.539  1.00  0.00    -0.327 A  
BRANCH  17  20
HETATM   20  N   UNL     1      -9.516   8.423  66.119  1.00  0.00    -0.331 N  
HETATM   21  H   UNL     1      -8.719   8.329  65.488  1.00  0.00     0.000 HD 
BRANCH  20  22
HETATM   22  C   UNL     1      -9.987   7.313  66.806  1.00  0.00    -0.217 C  
HETATM   23  O   UNL     1     -11.085   6.791  66.626  1.00  0.00    -0.243 OA 
BRANCH  22  24
HETATM   24  N   UNL     1      -9.059   6.876  67.732  1.00  0.00    -0.119 N  
HETATM   25  H   UNL     1      -8.074   6.841  67.470  1.00  0.00     0.000 HD 
BRANCH  24  26
HETATM   26  C   UNL     1      -9.438   6.477  69.029  1.00  0.00    -0.130 A  
HETATM   27  C   UNL     1      -9.538   5.117  69.302  1.00  0.00    -0.223 A  
HETATM   28  C   UNL     1      -9.915   4.694  70.576  1.00  0.00    -0.295 A  
HETATM   29  C   UNL     1     -10.264   5.621  71.567  1.00  0.00    -0.208 A  
HETATM   30 CL   UNL     1     -10.736   4.960  73.089  1.00  0.00    -0.284 Cl 
HETATM   31  C   UNL     1     -10.221   6.993  71.296  1.00  0.00    -0.203 A  
HETATM   32  C   UNL     1      -9.766   7.409  70.021  1.00  0.00    -0.175 A  
HETATM   33  C   UNL     1     -10.668   8.062  72.263  1.00  0.00    -0.296 C  
HETATM   34  F   UNL     1      -9.662   8.923  72.585  1.00  0.00    -0.318 F  
HETATM   35  F   UNL     1     -11.655   8.840  71.724  1.00  0.00    -0.321 F  
HETATM   36  F   UNL     1     -11.172   7.632  73.450  1.00  0.00    -0.431 F  
ENDBRANCH  24  26
ENDBRANCH  22  24
ENDBRANCH  20  22
ENDBRANCH  17  20
ENDBRANCH  12  13
ENDBRANCH   8  12
ENDBRANCH   3   6
TORSDOF 7
ENDMDL
MODEL       23
REMARK 921   NORMALIZED FREE ENERGY PREDICTED BY IDOCK:   -6.82 KCAL/MOL
REMARK 922        TOTAL FREE ENERGY PREDICTED BY IDOCK:  -11.59 KCAL/MOL
REMARK 923 INTER-LIGAND FREE ENERGY PREDICTED BY IDOCK:   -9.62 KCAL/MOL
REMARK 924 INTRA-LIGAND FREE ENERGY PREDICTED BY IDOCK:   -1.97 KCAL/MOL
REMARK 927      BINDING AFFINITY PREDICTED BY RF-SCORE:    0.00 PKD
ROOT
HETATM    1  C   UNL     1     -10.294  13.764  64.930  1.00  0.00    -0.398 C  
HETATM    2  N   UNL     1      -9.611  12.515  65.131  1.00  0.00    -0.468 N  
HETATM    3  C   UNL     1     -10.283  11.314  65.053  1.00  0.00    -0.284 C  
HETATM    4  H   UNL     1      -8.611  12.518  65.334  1.00  0.00     0.000 HD 
HETATM    5  O   UNL     1     -11.471  11.219  64.763  1.00  0.00    -0.081 OA 
ENDROOT
BRANCH   3   6
HETATM    6  C   UNL     1      -9.458  10.102  65.359  1.00  0.00    -0.239 A  
HETATM    7  C   UNL     1      -9.210   9.785  66.687  1.00  0.00    -0.184 A  
HETATM    8  C   UNL     1      -8.478   8.635  66.955  1.00  0.00    -0.110 A  
HETATM    9  C   UNL     1      -7.971   7.883  65.900  1.00  0.00    -0.106 A  
HETATM   10  N   UNL     1      -8.997   9.378  64.302  1.00  0.00    -0.200 NA 
HETATM   11  C   UNL     1      -8.257   8.288  64.605  1.00  0.00    -0.142 A  
BRANCH   8  12
HETATM   12  O   UNL     1      -8.147   8.223  68.225  1.00  0.00    -0.120 OA 
BRANCH  12  13
HETATM   13  C   UNL     1      -9.078   8.325  69.238  1.00  0.00    -0.151 A  
HETATM   14  C   UNL     1     -10.051   7.324  69.285  1.00  0.00    -0.183 A  
HETATM   15  C   UNL     1     -11.056   7.389  70.246  1.00  0.00    -0.258 A  
HETATM   16  F   UNL     1     -11.996   6.432  70.278  1.00  0.00    -0.456 F  
HETATM   17  C   UNL     1     -11.142   8.470  71.126  1.00  0.00    -0.260 A  
HETATM   18  C   UNL     1      -9.142   9.401  70.131  1.00  0.00    -0.262 A  
HETATM   19  C   UNL     1     -10.168   9.470  71.080  1.00  0.00    -0.332 A  
BRANCH  17  20
HETATM   20  N   UNL     1     -12.225   8.537  72.033  1.00  0.00    -0.341 N  
HETATM   21  H   UNL     1     -12.154   8.080  72.942  1.00  0.00     0.000 HD 
BRANCH  20  22
HETATM   22  C   UNL     1     -13.383   9.222  71.691  1.00  0.00    -0.394 C  
HETATM   23  O   UNL     1     -14.215   8.830  70.877  1.00  0.00    -0.073 OA 
BRANCH  22  24
HETATM   24  N   UNL     1     -13.472  10.415  72.384  1.00  0.00    -0.548 N  
HETATM   25  H   UNL     1     -13.787  10.402  73.354  1.00  0.00     0.000 HD 
BRANCH  24  26
HETATM   26  C   UNL     1     -13.142  11.645  71.785  1.00  0.00    -0.382 A  
HETATM   27  C   UNL     1     -13.613  12.816  72.370  1.00  0.00    -0.507 A  
HETATM   28  C   UNL     1     -13.303  14.049  71.795  1.00  0.00    -0.465 A  
HETATM   29  C   UNL     1     -12.582  14.121  70.596  1.00  0.00    -0.351 A  
HETATM   30 CL   UNL     1     -12.292  15.707  69.983  1.00  0.00    -0.361 Cl 
HETATM   31  C   UNL     1     -12.144  12.952  69.963  1.00  0.00    -0.357 A  
HETATM   32  C   UNL     1     -12.403  11.713  70.597  1.00  0.00    -0.437 A  
HETATM   33  C   UNL     1     -11.448  12.923  68.625  1.00  0.00    -0.308 C  
HETATM   34  F   UNL     1     -10.203  12.375  68.701  1.00  0.00    -0.215 F  
HETATM   35  F   UNL     1     -12.130  12.153  67.725  1.00  0.00    -0.390 F  
HETATM   36  F   UNL     1     -11.281  14.121  68.004  1.00  0.00    -0.257 F  
ENDBRANCH  24  26
ENDBRANCH  22  24
ENDBRANCH  20  22
ENDBRANCH  17  20
ENDBRANCH  12  13
ENDBRANCH   8  12
ENDBRANCH   3   6
TORSDOF 7
ENDMDL
MODEL       24
REMARK 921   NORMALIZED FREE ENERGY PREDICTED BY IDOCK:   -6.81 KCAL/MOL
REMARK 922        TOTAL FREE ENERGY PREDICTED BY IDOCK:  -11.58 KCAL/MOL
REMARK 923 INTER-LIGAND FREE ENERGY PREDICTED BY IDOCK:  -10.83 KCAL/MOL
REMARK 924 INTRA-LIGAND FREE ENERGY PREDICTED BY IDOCK:   -0.75 KCAL/MOL
REMARK 927      BINDING AFFINITY PREDICTED BY RF-SCORE:    0.00 PKD
ROOT
HETATM    1  C   UNL     1     -12.714  11.869  63.576  1.00  0.00    -0.405 C  
HETATM    2  N   UNL     1     -12.197  12.559  64.725  1.00  0.00    -0.456 N  
HETATM    3  C   UNL     1     -12.118  13.935  64.755  1.00  0.00    -0.419 C  
HETATM    4  H   UNL     1     -11.884  12.022  65.534  1.00  0.00     0.000 HD 
HETATM    5  O   UNL     1     -12.520  14.658  63.850  1.00  0.00    -0.813 OA 
ENDROOT
BRANCH   3   6
HETATM    6  C   UNL     1     -11.490  14.510  65.987  1.00  0.00    -0.348 A  
HETATM    7  C   UNL     1     -12.071  14.240  67.218  1.00  0.00    -0.390 A  
HETATM    8  C   UNL     1     -11.453  14.745  68.354  1.00  0.00    -0.314 A  
HETATM    9  C   UNL     1     -10.324  15.548  68.222  1.00  0.00    -0.235 A  
HETATM   10  N   UNL     1     -10.373  15.272  65.822  1.00  0.00    -0.318 NA 
HETATM   11  C   UNL     1      -9.825  15.777  66.948  1.00  0.00    -0.236 A  
BRANCH   8  12
HETATM   12  O   UNL     1     -11.940  14.566  69.629  1.00  0.00    -0.293 OA 
BRANCH  12  13
HETATM   13  C   UNL     1     -12.157  13.289  70.100  1.00  0.00    -0.333 A  
HETATM   14  C   UNL     1     -11.683  12.247  69.301  1.00  0.00    -0.388 A  
HETATM   15  C   UNL     1     -11.912  10.929  69.684  1.00  0.00    -0.343 A  
HETATM   16  F   UNL     1     -11.467   9.931  68.905  1.00  0.00    -0.213 F  
HETATM   17  C   UNL     1     -12.660  10.630  70.825  1.00  0.00    -0.386 A  
HETATM   18  C   UNL     1     -12.887  13.000  71.259  1.00  0.00    -0.370 A  
HETATM   19  C   UNL     1     -13.133  11.672  71.626  1.00  0.00    -0.456 A  
BRANCH  17  20
HETATM   20  N   UNL     1     -12.938   9.279  71.134  1.00  0.00    -0.496 N  
HETATM   21  H   UNL     1     -13.857   8.889  70.925  1.00  0.00     0.000 HD 
BRANCH  20  22
HETATM   22  C   UNL     1     -11.965   8.481  71.722  1.00  0.00    -0.332 C  
HETATM   23  O   UNL     1     -10.980   8.904  72.322  1.00  0.00    -0.337 OA 
BRANCH  22  24
HETATM   24  N   UNL     1     -12.246   7.141  71.532  1.00  0.00    -0.339 N  
HETATM   25  H   UNL     1     -13.064   6.736  71.987  1.00  0.00     0.000 HD 
BRANCH  24  26
HETATM   26  C   UNL     1     -11.433   6.321  70.726  1.00  0.00    -0.316 A  
HETATM   27  C   UNL     1     -10.721   5.291  71.332  1.00  0.00    -0.203 A  
HETATM   28  C   UNL     1      -9.905   4.466  70.558  1.00  0.00    -0.285 A  
HETATM   29  C   UNL     1      -9.737   4.704  69.188  1.00  0.00    -0.185 A  
HETATM   30 CL   UNL     1      -8.680   3.624  68.357  1.00  0.00    -0.121 Cl 
HETATM   31  C   UNL     1     -10.403   5.767  68.568  1.00  0.00    -0.274 A  
HETATM   32  C   UNL     1     -11.285   6.551  69.352  1.00  0.00    -0.418 A  
HETATM   33  C   UNL     1     -10.212   6.161  67.124  1.00  0.00    -0.199 C  
HETATM   34  F   UNL     1     -11.371   6.089  66.411  1.00  0.00    -0.287 F  
HETATM   35  F   UNL     1      -9.796   7.458  67.012  1.00  0.00    -0.191 F  
HETATM   36  F   UNL     1      -9.303   5.440  66.416  1.00  0.00    -0.132 F  
ENDBRANCH  24  26
ENDBRANCH  22  24
ENDBRANCH  20  22
ENDBRANCH  17  20
ENDBRANCH  12  13
ENDBRANCH   8  12
ENDBRANCH   3   6
TORSDOF 7
ENDMDL
MODEL       25
REMARK 921   NORMALIZED FREE ENERGY PREDICTED BY IDOCK:   -6.77 KCAL/MOL
REMARK 922        TOTAL FREE ENERGY PREDICTED BY IDOCK:  -11.53 KCAL/MOL
REMARK 923 INTER-LIGAND FREE ENERGY PREDICTED BY IDOCK:  -10.14 KCAL/MOL
REMARK 924 INTRA-LIGAND FREE ENERGY PREDICTED BY IDOCK:   -1.39 KCAL/MOL
REMARK 927      BINDING AFFINITY PREDICTED BY RF-SCORE:    0.00 PKD
ROOT
HETATM    1  C   UNL     1     -13.765  15.855  72.903  1.00  0.00    -0.511 C  
HETATM    2  N   UNL     1     -13.401  15.100  71.736  1.00  0.00    -0.377 N  
HETATM    3  C   UNL     1     -12.286  15.428  70.994  1.00  0.00    -0.392 C  
HETATM    4  H   UNL     1     -13.977  14.308  71.451  1.00  0.00     0.000 HD 
HETATM    5  O   UNL     1     -11.512  16.330  71.295  1.00  0.00    -0.423 OA 
ENDROOT
BRANCH   3   6
HETATM    6  C   UNL     1     -12.075  14.600  69.764  1.00  0.00    -0.324 A  
HETATM    7  C   UNL     1     -12.161  13.219  69.868  1.00  0.00    -0.377 A  
HETATM    8  C   UNL     1     -12.003  12.468  68.711  1.00  0.00    -0.238 A  
HETATM    9  C   UNL     1     -11.705  13.109  67.512  1.00  0.00    -0.414 A  
HETATM   10  N   UNL     1     -11.807  15.262  68.604  1.00  0.00    -0.334 NA 
HETATM   11  C   UNL     1     -11.622  14.493  67.508  1.00  0.00    -0.381 A  
BRANCH   8  12
HETATM   12  O   UNL     1     -12.046  11.093  68.684  1.00  0.00    -0.556 OA 
BRANCH  12  13
HETATM   13  C   UNL     1     -11.757  10.381  69.830  1.00  0.00    -0.237 A  
HETATM   14  C   UNL     1     -10.429   9.981  69.990  1.00  0.00    -0.337 A  
HETATM   15  C   UNL     1     -10.072   9.213  71.094  1.00  0.00    -0.314 A  
HETATM   16  F   UNL     1      -8.798   8.818  71.235  1.00  0.00    -0.185 F  
HETATM   17  C   UNL     1     -11.032   8.785  72.014  1.00  0.00    -0.368 A  
HETATM   18  C   UNL     1     -12.723   9.979  70.760  1.00  0.00    -0.355 A  
HETATM   19  C   UNL     1     -12.360   9.188  71.856  1.00  0.00    -0.455 A  
BRANCH  17  20
HETATM   20  N   UNL     1     -10.640   7.940  73.077  1.00  0.00    -0.365 N  
HETATM   21  H   UNL     1     -10.764   8.247  74.042  1.00  0.00     0.000 HD 
BRANCH  20  22
HETATM   22  C   UNL     1     -10.087   6.694  72.814  1.00  0.00    -0.177 C  
HETATM   23  O   UNL     1      -8.983   6.321  73.202  1.00  0.00    -0.130 OA 
BRANCH  22  24
HETATM   24  N   UNL     1     -10.943   5.927  72.046  1.00  0.00    -0.255 N  
HETATM   25  H   UNL     1     -11.898   5.772  72.371  1.00  0.00     0.000 HD 
BRANCH  24  26
HETATM   26  C   UNL     1     -10.532   5.356  70.826  1.00  0.00    -0.247 A  
HETATM   27  C   UNL     1      -9.888   4.123  70.854  1.00  0.00    -0.247 A  
HETATM   28  C   UNL     1      -9.467   3.536  69.662  1.00  0.00    -0.235 A  
HETATM   29  C   UNL     1      -9.620   4.203  68.439  1.00  0.00    -0.125 A  
HETATM   30 CL   UNL     1      -9.032   3.374  67.046  1.00  0.00    -0.157 Cl 
HETATM   31  C   UNL     1     -10.218   5.468  68.395  1.00  0.00    -0.242 A  
HETATM   32  C   UNL     1     -10.706   6.018  69.605  1.00  0.00    -0.405 A  
HETATM   33  C   UNL     1     -10.341   6.304  67.145  1.00  0.00    -0.229 C  
HETATM   34  F   UNL     1     -11.637   6.580  66.831  1.00  0.00    -0.411 F  
HETATM   35  F   UNL     1      -9.737   7.521  67.299  1.00  0.00    -0.160 F  
HETATM   36  F   UNL     1      -9.795   5.784  66.014  1.00  0.00    -0.176 F  
ENDBRANCH  24  26
ENDBRANCH  22  24
ENDBRANCH  20  22
ENDBRANCH  17  20
ENDBRANCH  12  13
ENDBRANCH   8  12
ENDBRANCH   3   6
TORSDOF 7
ENDMDL
MODEL       26
REMARK 921   NORMALIZED FREE ENERGY PREDICTED BY IDOCK:   -6.77 KCAL/MOL
REMARK 922        TOTAL FREE ENERGY PREDICTED BY IDOCK:  -11.53 KCAL/MOL
REMARK 923 INTER-LIGAND FREE ENERGY PREDICTED BY IDOCK:  -10.31 KCAL/MOL
REMARK 924 INTRA-LIGAND FREE ENERGY PREDICTED BY IDOCK:   -1.22 KCAL/MOL
REMARK 927      BINDING AFFINITY PREDICTED BY RF-SCORE:    0.00 PKD
ROOT
HETATM    1  C   UNL     1     -12.145   6.787  70.738  1.00  0.00    -0.347 C  
HETATM    2  N   UNL     1     -11.471   6.987  69.485  1.00  0.00    -0.543 N  
HETATM    3  C   UNL     1     -10.281   7.681  69.419  1.00  0.00    -0.206 C  
HETATM    4  H   UNL     1     -11.878   6.609  68.630  1.00  0.00     0.000 HD 
HETATM    5  O   UNL     1      -9.698   8.123  70.403  1.00  0.00    -0.177 OA 
ENDROOT
BRANCH   3   6
HETATM    6  C   UNL     1      -9.733   7.875  68.039  1.00  0.00    -0.159 A  
HETATM    7  C   UNL     1     -10.251   8.897  67.255  1.00  0.00    -0.326 A  
HETATM    8  C   UNL     1      -9.704   9.091  65.993  1.00  0.00    -0.269 A  
HETATM    9  C   UNL     1      -8.713   8.228  65.536  1.00  0.00    -0.173 A  
HETATM   10  N   UNL     1      -8.749   7.027  67.632  1.00  0.00    -0.121 NA 
HETATM   11  C   UNL     1      -8.270   7.225  66.384  1.00  0.00    -0.120 A  
BRANCH   8  12
HETATM   12  O   UNL     1     -10.142  10.054  65.114  1.00  0.00    -0.325 OA 
BRANCH  12  13
HETATM   13  C   UNL     1     -10.096  11.382  65.481  1.00  0.00    -0.247 A  
HETATM   14  C   UNL     1     -10.957  12.242  64.797  1.00  0.00    -0.346 A  
HETATM   15  C   UNL     1     -10.930  13.605  65.075  1.00  0.00    -0.346 A  
HETATM   16  F   UNL     1     -11.750  14.429  64.404  1.00  0.00    -0.380 F  
HETATM   17  C   UNL     1     -10.013  14.136  65.985  1.00  0.00    -0.322 A  
HETATM   18  C   UNL     1      -9.190  11.901  66.414  1.00  0.00    -0.218 A  
HETATM   19  C   UNL     1      -9.153  13.276  66.671  1.00  0.00    -0.181 A  
BRANCH  17  20
HETATM   20  N   UNL     1      -9.964  15.536  66.178  1.00  0.00    -0.286 N  
HETATM   21  H   UNL     1      -9.828  16.154  65.379  1.00  0.00     0.000 HD 
BRANCH  20  22
HETATM   22  C   UNL     1     -10.101  16.072  67.452  1.00  0.00    -0.258 C  
HETATM   23  O   UNL     1      -9.190  16.587  68.096  1.00  0.00    -0.210 OA 
BRANCH  22  24
HETATM   24  N   UNL     1     -11.400  15.940  67.906  1.00  0.00    -0.300 N  
HETATM   25  H   UNL     1     -12.133  16.507  67.482  1.00  0.00     0.000 HD 
BRANCH  24  26
HETATM   26  C   UNL     1     -11.736  15.043  68.938  1.00  0.00    -0.328 A  
HETATM   27  C   UNL     1     -11.940  13.705  68.615  1.00  0.00    -0.395 A  
HETATM   28  C   UNL     1     -12.277  12.796  69.616  1.00  0.00    -0.188 A  
HETATM   29  C   UNL     1     -12.483  13.223  70.935  1.00  0.00    -0.342 A  
HETATM   30 CL   UNL     1     -12.922  11.998  72.067  1.00  0.00    -0.451 Cl 
HETATM   31  C   UNL     1     -12.335  14.573  71.271  1.00  0.00    -0.418 A  
HETATM   32  C   UNL     1     -11.921  15.472  70.258  1.00  0.00    -0.401 A  
HETATM   33  C   UNL     1     -12.628  15.144  72.637  1.00  0.00    -0.375 C  
HETATM   34  F   UNL     1     -11.533  15.726  73.200  1.00  0.00    -0.483 F  
HETATM   35  F   UNL     1     -13.572  16.131  72.572  1.00  0.00    -0.515 F  
HETATM   36  F   UNL     1     -13.097  14.272  73.568  1.00  0.00    -0.554 F  
ENDBRANCH  24  26
ENDBRANCH  22  24
ENDBRANCH  20  22
ENDBRANCH  17  20
ENDBRANCH  12  13
ENDBRANCH   8  12
ENDBRANCH   3   6
TORSDOF 7
ENDMDL
MODEL       27
REMARK 921   NORMALIZED FREE ENERGY PREDICTED BY IDOCK:   -6.74 KCAL/MOL
REMARK 922        TOTAL FREE ENERGY PREDICTED BY IDOCK:  -11.48 KCAL/MOL
REMARK 923 INTER-LIGAND FREE ENERGY PREDICTED BY IDOCK:  -10.63 KCAL/MOL
REMARK 924 INTRA-LIGAND FREE ENERGY PREDICTED BY IDOCK:   -0.85 KCAL/MOL
REMARK 927      BINDING AFFINITY PREDICTED BY RF-SCORE:    0.00 PKD
ROOT
HETATM    1  C   UNL     1      -9.178   3.445  68.896  1.00  0.00    -0.165 C  
HETATM    2  N   UNL     1      -9.556   4.449  69.852  1.00  0.00    -0.188 N  
HETATM    3  C   UNL     1     -10.227   5.588  69.462  1.00  0.00    -0.261 C  
HETATM    4  H   UNL     1      -9.325   4.317  70.836  1.00  0.00     0.000 HD 
HETATM    5  O   UNL     1     -10.589   5.801  68.309  1.00  0.00    -0.218 OA 
ENDROOT
BRANCH   3   6
HETATM    6  C   UNL     1     -10.489   6.579  70.554  1.00  0.00    -0.207 A  
HETATM    7  C   UNL     1     -11.584   7.423  70.437  1.00  0.00    -0.210 A  
HETATM    8  C   UNL     1     -11.837   8.308  71.478  1.00  0.00    -0.293 A  
HETATM    9  C   UNL     1     -10.963   8.363  72.559  1.00  0.00    -0.388 A  
HETATM   10  N   UNL     1      -9.625   6.590  71.607  1.00  0.00    -0.161 NA 
HETATM   11  C   UNL     1      -9.885   7.491  72.580  1.00  0.00    -0.176 A  
BRANCH   8  12
HETATM   12  O   UNL     1     -12.876   9.209  71.475  1.00  0.00    -0.323 OA 
BRANCH  12  13
HETATM   13  C   UNL     1     -12.635  10.524  71.139  1.00  0.00    -0.417 A  
HETATM   14  C   UNL     1     -13.216  11.489  71.965  1.00  0.00    -0.443 A  
HETATM   15  C   UNL     1     -13.062  12.837  71.659  1.00  0.00    -0.331 A  
HETATM   16  F   UNL     1     -13.634  13.759  72.449  1.00  0.00    -0.473 F  
HETATM   17  C   UNL     1     -12.386  13.242  70.506  1.00  0.00    -0.316 A  
HETATM   18  C   UNL     1     -11.935  10.920  69.993  1.00  0.00    -0.429 A  
HETATM   19  C   UNL     1     -11.803  12.277  69.681  1.00  0.00    -0.393 A  
BRANCH  17  20
HETATM   20  N   UNL     1     -12.322  14.618  70.191  1.00  0.00    -0.354 N  
HETATM   21  H   UNL     1     -13.052  15.042  69.618  1.00  0.00     0.000 HD 
BRANCH  20  22
HETATM   22  C   UNL     1     -11.269  15.395  70.656  1.00  0.00    -0.342 C  
HETATM   23  O   UNL     1     -11.346  16.190  71.590  1.00  0.00    -0.332 OA 
BRANCH  22  24
HETATM   24  N   UNL     1     -10.122  15.163  69.922  1.00  0.00    -0.467 N  
HETATM   25  H   UNL     1      -9.783  14.206  69.821  1.00  0.00     0.000 HD 
BRANCH  24  26
HETATM   26  C   UNL     1      -9.410  16.212  69.309  1.00  0.00    -0.227 A  
HETATM   27  C   UNL     1      -8.026  16.107  69.211  1.00  0.00    -0.194 A  
HETATM   28  C   UNL     1      -7.296  17.133  68.612  1.00  0.00    -0.238 A  
HETATM   29  C   UNL     1      -7.929  18.302  68.171  1.00  0.00    -0.284 A  
HETATM   30 CL   UNL     1      -6.903  19.501  67.474  1.00  0.00    -0.236 Cl 
HETATM   31  C   UNL     1      -9.314  18.451  68.309  1.00  0.00    -0.342 A  
HETATM   32  C   UNL     1     -10.051  17.370  68.852  1.00  0.00    -0.330 A  
HETATM   33  C   UNL     1     -10.071  19.707  67.954  1.00  0.00    -0.422 C  
HETATM   34  F   UNL     1     -11.012  19.490  66.993  1.00  0.00    -0.555 F  
HETATM   35  F   UNL     1     -10.757  20.196  69.031  1.00  0.00    -0.417 F  
HETATM   36  F   UNL     1      -9.329  20.755  67.508  1.00  0.00    -0.499 F  
ENDBRANCH  24  26
ENDBRANCH  22  24
ENDBRANCH  20  22
ENDBRANCH  17  20
ENDBRANCH  12  13
ENDBRANCH   8  12
ENDBRANCH   3   6
TORSDOF 7
ENDMDL
MODEL       28
REMARK 921   NORMALIZED FREE ENERGY PREDICTED BY IDOCK:   -6.72 KCAL/MOL
REMARK 922        TOTAL FREE ENERGY PREDICTED BY IDOCK:  -11.45 KCAL/MOL
REMARK 923 INTER-LIGAND FREE ENERGY PREDICTED BY IDOCK:  -10.47 KCAL/MOL
REMARK 924 INTRA-LIGAND FREE ENERGY PREDICTED BY IDOCK:   -0.98 KCAL/MOL
REMARK 927      BINDING AFFINITY PREDICTED BY RF-SCORE:    0.00 PKD
ROOT
HETATM    1  C   UNL     1     -11.310   5.593  72.852  1.00  0.00    -0.273 C  
HETATM    2  N   UNL     1     -10.954   5.840  71.482  1.00  0.00    -0.259 N  
HETATM    3  C   UNL     1     -11.219   7.053  70.884  1.00  0.00    -0.282 C  
HETATM    4  H   UNL     1     -10.497   5.105  70.942  1.00  0.00     0.000 HD 
HETATM    5  O   UNL     1     -11.717   8.006  71.474  1.00  0.00    -0.267 OA 
ENDROOT
BRANCH   3   6
HETATM    6  C   UNL     1     -10.860   7.140  69.433  1.00  0.00    -0.206 A  
HETATM    7  C   UNL     1     -10.116   8.226  68.995  1.00  0.00    -0.208 A  
HETATM    8  C   UNL     1      -9.756   8.271  67.654  1.00  0.00    -0.159 A  
HETATM    9  C   UNL     1     -10.199   7.273  66.791  1.00  0.00    -0.305 A  
HETATM   10  N   UNL     1     -11.291   6.134  68.621  1.00  0.00    -0.202 NA 
HETATM   11  C   UNL     1     -10.952   6.235  67.317  1.00  0.00    -0.366 A  
BRANCH   8  12
HETATM   12  O   UNL     1      -9.039   9.302  67.093  1.00  0.00    -0.128 OA 
BRANCH  12  13
HETATM   13  C   UNL     1      -9.683  10.223  66.294  1.00  0.00    -0.209 A  
HETATM   14  C   UNL     1     -10.687  10.977  66.907  1.00  0.00    -0.325 A  
HETATM   15  C   UNL     1     -11.418  11.888  66.152  1.00  0.00    -0.288 A  
HETATM   16  F   UNL     1     -12.391  12.599  66.742  1.00  0.00    -0.396 F  
HETATM   17  C   UNL     1     -11.205  12.021  64.778  1.00  0.00    -0.318 A  
HETATM   18  C   UNL     1      -9.445  10.366  64.922  1.00  0.00    -0.320 A  
HETATM   19  C   UNL     1     -10.200  11.269  64.166  1.00  0.00    -0.391 A  
BRANCH  17  20
HETATM   20  N   UNL     1     -12.025  12.900  64.034  1.00  0.00    -0.416 N  
HETATM   21  H   UNL     1     -12.697  12.524  63.365  1.00  0.00     0.000 HD 
BRANCH  20  22
HETATM   22  C   UNL     1     -11.918  14.273  64.209  1.00  0.00    -0.425 C  
HETATM   23  O   UNL     1     -12.783  15.088  63.896  1.00  0.00    -0.775 OA 
BRANCH  22  24
HETATM   24  N   UNL     1     -10.702  14.605  64.776  1.00  0.00    -0.558 N  
HETATM   25  H   UNL     1      -9.859  14.127  64.457  1.00  0.00     0.000 HD 
BRANCH  24  26
HETATM   26  C   UNL     1     -10.597  15.585  65.782  1.00  0.00    -0.356 A  
HETATM   27  C   UNL     1      -9.966  16.786  65.475  1.00  0.00    -0.054 A  
HETATM   28  C   UNL     1      -9.845  17.773  66.453  1.00  0.00    -0.328 A  
HETATM   29  C   UNL     1     -10.287  17.544  67.762  1.00  0.00    -0.367 A  
HETATM   30 CL   UNL     1     -10.052  18.839  68.877  1.00  0.00    -0.421 Cl 
HETATM   31  C   UNL     1     -10.877  16.323  68.106  1.00  0.00    -0.342 A  
HETATM   32  C   UNL     1     -11.060  15.359  67.084  1.00  0.00    -0.291 A  
HETATM   33  C   UNL     1     -11.296  15.948  69.506  1.00  0.00    -0.335 C  
HETATM   34  F   UNL     1     -12.630  15.685  69.594  1.00  0.00    -0.334 F  
HETATM   35  F   UNL     1     -10.672  14.805  69.923  1.00  0.00    -0.250 F  
HETATM   36  F   UNL     1     -11.039  16.861  70.479  1.00  0.00    -0.314 F  
ENDBRANCH  24  26
ENDBRANCH  22  24
ENDBRANCH  20  22
ENDBRANCH  17  20
ENDBRANCH  12  13
ENDBRANCH   8  12
ENDBRANCH   3   6
TORSDOF 7
ENDMDL
MODEL       29
REMARK 921   NORMALIZED FREE ENERGY PREDICTED BY IDOCK:   -6.70 KCAL/MOL
REMARK 922        TOTAL FREE ENERGY PREDICTED BY IDOCK:  -11.43 KCAL/MOL
REMARK 923 INTER-LIGAND FREE ENERGY PREDICTED BY IDOCK:  -10.07 KCAL/MOL
REMARK 924 INTRA-LIGAND FREE ENERGY PREDICTED BY IDOCK:   -1.35 KCAL/MOL
REMARK 927      BINDING AFFINITY PREDICTED BY RF-SCORE:    0.00 PKD
ROOT
HETATM    1  C   UNL     1      -9.780   3.260  69.807  1.00  0.00     0.033 C  
HETATM    2  N   UNL     1      -9.956   4.461  70.576  1.00  0.00    -0.213 N  
HETATM    3  C   UNL     1     -10.547   5.579  70.028  1.00  0.00    -0.314 C  
HETATM    4  H   UNL     1      -9.639   4.486  71.545  1.00  0.00     0.000 HD 
HETATM    5  O   UNL     1     -11.002   5.616  68.890  1.00  0.00    -0.235 OA 
ENDROOT
BRANCH   3   6
HETATM    6  C   UNL     1     -10.595   6.778  70.924  1.00  0.00    -0.220 A  
HETATM    7  C   UNL     1     -11.730   7.576  70.905  1.00  0.00    -0.307 A  
HETATM    8  C   UNL     1     -11.776   8.661  71.772  1.00  0.00    -0.331 A  
HETATM    9  C   UNL     1     -10.675   8.946  72.573  1.00  0.00     0.097 A  
HETATM   10  N   UNL     1      -9.509   7.014  71.710  1.00  0.00    -0.152 NA 
HETATM   11  C   UNL     1      -9.578   8.100  72.511  1.00  0.00    -0.277 A  
BRANCH   8  12
HETATM   12  O   UNL     1     -12.834   9.539  71.836  1.00  0.00    -0.363 OA 
BRANCH  12  13
HETATM   13  C   UNL     1     -12.692  10.813  71.328  1.00  0.00    -0.441 A  
HETATM   14  C   UNL     1     -13.289  11.840  72.061  1.00  0.00    -0.417 A  
HETATM   15  C   UNL     1     -13.235  13.146  71.583  1.00  0.00    -0.346 A  
HETATM   16  F   UNL     1     -13.823  14.127  72.285  1.00  0.00    -0.450 F  
HETATM   17  C   UNL     1     -12.644  13.438  70.353  1.00  0.00    -0.167 A  
HETATM   18  C   UNL     1     -12.075  11.099  70.104  1.00  0.00    -0.443 A  
HETATM   19  C   UNL     1     -12.044  12.411  69.620  1.00  0.00    -0.271 A  
BRANCH  17  20
HETATM   20  N   UNL     1     -12.681  14.765  69.867  1.00  0.00    -0.579 N  
HETATM   21  H   UNL     1     -13.576  15.245  69.769  1.00  0.00     0.000 HD 
BRANCH  20  22
HETATM   22  C   UNL     1     -11.505  15.418  69.523  1.00  0.00    -0.319 C  
HETATM   23  O   UNL     1     -10.647  15.784  70.323  1.00  0.00    -0.314 OA 
BRANCH  22  24
HETATM   24  N   UNL     1     -11.431  15.614  68.157  1.00  0.00    -0.347 N  
HETATM   25  H   UNL     1     -11.679  16.525  67.772  1.00  0.00     0.000 HD 
BRANCH  24  26
HETATM   26  C   UNL     1     -11.022  14.588  67.284  1.00  0.00    -0.305 A  
HETATM   27  C   UNL     1      -9.754  14.039  67.451  1.00  0.00    -0.233 A  
HETATM   28  C   UNL     1      -9.322  13.024  66.598  1.00  0.00    -0.242 A  
HETATM   29  C   UNL     1     -10.120  12.597  65.529  1.00  0.00    -0.265 A  
HETATM   30 CL   UNL     1      -9.452  11.353  64.537  1.00  0.00    -0.202 Cl 
HETATM   31  C   UNL     1     -11.377  13.173  65.310  1.00  0.00    -0.321 A  
HETATM   32  C   UNL     1     -11.832  14.150  66.229  1.00  0.00    -0.427 A  
HETATM   33  C   UNL     1     -12.265  12.848  64.135  1.00  0.00    -0.414 C  
HETATM   34  F   UNL     1     -13.469  12.341  64.519  1.00  0.00    -0.364 F  
HETATM   35  F   UNL     1     -12.557  13.969  63.408  1.00  0.00    -0.433 F  
HETATM   36  F   UNL     1     -11.770  11.964  63.229  1.00  0.00    -0.490 F  
ENDBRANCH  24  26
ENDBRANCH  22  24
ENDBRANCH  20  22
ENDBRANCH  17  20
ENDBRANCH  12  13
ENDBRANCH   8  12
ENDBRANCH   3   6
TORSDOF 7
ENDMDL
MODEL       30
REMARK 921   NORMALIZED FREE ENERGY PREDICTED BY IDOCK:   -6.69 KCAL/MOL
REMARK 922        TOTAL FREE ENERGY PREDICTED BY IDOCK:  -11.42 KCAL/MOL
REMARK 923 INTER-LIGAND FREE ENERGY PREDICTED BY IDOCK:  -11.05 KCAL/MOL
REMARK 924 INTRA-LIGAND FREE ENERGY PREDICTED BY IDOCK:   -0.37 KCAL/MOL
REMARK 927      BINDING AFFINITY PREDICTED BY RF-SCORE:    0.00 PKD
ROOT
HETATM    1  C   UNL     1      -9.104  15.753  69.188  1.00  0.00    -0.262 C  
HETATM    2  N   UNL     1     -10.169  15.178  69.961  1.00  0.00    -0.489 N  
HETATM    3  C   UNL     1     -11.489  15.403  69.635  1.00  0.00    -0.320 C  
HETATM    4  H   UNL     1      -9.945  14.592  70.765  1.00  0.00     0.000 HD 
HETATM    5  O   UNL     1     -11.845  16.050  68.656  1.00  0.00    -0.367 OA 
ENDROOT
BRANCH   3   6
HETATM    6  C   UNL     1     -12.489  14.802  70.573  1.00  0.00    -0.352 A  
HETATM    7  C   UNL     1     -12.372  13.457  70.897  1.00  0.00    -0.436 A  
HETATM    8  C   UNL     1     -13.282  12.924  71.801  1.00  0.00    -0.384 A  
HETATM    9  C   UNL     1     -14.305  13.725  72.298  1.00  0.00    -0.462 A  
HETATM   10  N   UNL     1     -13.464  15.620  71.058  1.00  0.00    -0.563 NA 
HETATM   11  C   UNL     1     -14.351  15.054  71.904  1.00  0.00    -0.584 A  
BRANCH   8  12
HETATM   12  O   UNL     1     -13.286  11.604  72.188  1.00  0.00    -0.504 OA 
BRANCH  12  13
HETATM   13  C   UNL     1     -12.608  10.671  71.431  1.00  0.00    -0.421 A  
HETATM   14  C   UNL     1     -12.656   9.353  71.887  1.00  0.00    -0.481 A  
HETATM   15  C   UNL     1     -11.951   8.364  71.207  1.00  0.00    -0.288 A  
HETATM   16  F   UNL     1     -11.990   7.101  71.658  1.00  0.00    -0.286 F  
HETATM   17  C   UNL     1     -11.148   8.679  70.109  1.00  0.00    -0.192 A  
HETATM   18  C   UNL     1     -11.825  10.994  70.316  1.00  0.00    -0.456 A  
HETATM   19  C   UNL     1     -11.101   9.998  69.651  1.00  0.00    -0.300 A  
BRANCH  17  20
HETATM   20  N   UNL     1     -10.387   7.658  69.495  1.00  0.00    -0.213 N  
HETATM   21  H   UNL     1      -9.771   7.074  70.062  1.00  0.00     0.000 HD 
BRANCH  20  22
HETATM   22  C   UNL     1     -10.473   7.447  68.126  1.00  0.00    -0.193 C  
HETATM   23  O   UNL     1     -11.371   6.822  67.569  1.00  0.00    -0.242 OA 
BRANCH  22  24
HETATM   24  N   UNL     1      -9.404   8.027  67.469  1.00  0.00    -0.145 N  
HETATM   25  H   UNL     1      -8.458   7.713  67.686  1.00  0.00     0.000 HD 
BRANCH  24  26
HETATM   26  C   UNL     1      -9.586   9.041  66.509  1.00  0.00    -0.223 A  
HETATM   27  C   UNL     1      -9.117   8.825  65.218  1.00  0.00    -0.156 A  
HETATM   28  C   UNL     1      -9.281   9.814  64.248  1.00  0.00    -0.286 A  
HETATM   29  C   UNL     1      -9.850  11.052  64.574  1.00  0.00    -0.290 A  
HETATM   30 CL   UNL     1      -9.969  12.192  63.285  1.00  0.00    -0.357 Cl 
HETATM   31  C   UNL     1     -10.280  11.310  65.881  1.00  0.00    -0.298 A  
HETATM   32  C   UNL     1     -10.174  10.270  66.836  1.00  0.00    -0.286 A  
HETATM   33  C   UNL     1     -10.815  12.640  66.350  1.00  0.00    -0.269 C  
HETATM   34  F   UNL     1     -12.091  12.550  66.818  1.00  0.00    -0.442 F  
HETATM   35  F   UNL     1     -10.079  13.133  67.392  1.00  0.00    -0.220 F  
HETATM   36  F   UNL     1     -10.835  13.642  65.432  1.00  0.00    -0.280 F  
ENDBRANCH  24  26
ENDBRANCH  22  24
ENDBRANCH  20  22
ENDBRANCH  17  20
ENDBRANCH  12  13
ENDBRANCH   8  12
ENDBRANCH   3   6
TORSDOF 7
ENDMDL
MODEL       31
REMARK 921   NORMALIZED FREE ENERGY PREDICTED BY IDOCK:   -6.66 KCAL/MOL
REMARK 922        TOTAL FREE ENERGY PREDICTED BY IDOCK:  -11.37 KCAL/MOL
REMARK 923 INTER-LIGAND FREE ENERGY PREDICTED BY IDOCK:  -10.25 KCAL/MOL
REMARK 924 INTRA-LIGAND FREE ENERGY PREDICTED BY IDOCK:   -1.11 KCAL/MOL
REMARK 927      BINDING AFFINITY PREDICTED BY RF-SCORE:    0.00 PKD
ROOT
HETATM    1  C   UNL     1      -8.468   2.761  63.998  1.00  0.00    -0.086 C  
HETATM    2  N   UNL     1      -9.081   3.737  64.857  1.00  0.00    -0.132 N  
HETATM    3  C   UNL     1      -8.716   5.065  64.802  1.00  0.00    -0.149 C  
HETATM    4  H   UNL     1      -9.798   3.441  65.519  1.00  0.00     0.000 HD 
HETATM    5  O   UNL     1      -7.901   5.512  64.001  1.00  0.00    -0.090 OA 
ENDROOT
BRANCH   3   6
HETATM    6  C   UNL     1      -9.384   5.951  65.807  1.00  0.00     0.006 A  
HETATM    7  C   UNL     1      -8.901   7.240  65.983  1.00  0.00    -0.161 A  
HETATM    8  C   UNL     1      -9.557   8.063  66.889  1.00  0.00    -0.204 A  
HETATM    9  C   UNL     1     -10.622   7.558  67.628  1.00  0.00    -0.303 A  
HETATM   10  N   UNL     1     -10.437   5.431  66.496  1.00  0.00    -0.279 NA 
HETATM   11  C   UNL     1     -11.024   6.251  67.395  1.00  0.00    -0.356 A  
BRANCH   8  12
HETATM   12  O   UNL     1      -9.165   9.352  67.168  1.00  0.00    -0.132 OA 
BRANCH  12  13
HETATM   13  C   UNL     1      -9.906  10.408  66.682  1.00  0.00    -0.202 A  
HETATM   14  C   UNL     1     -10.579  11.179  67.633  1.00  0.00    -0.250 A  
HETATM   15  C   UNL     1     -11.391  12.229  67.215  1.00  0.00    -0.328 A  
HETATM   16  F   UNL     1     -12.047  12.957  68.132  1.00  0.00    -0.359 F  
HETATM   17  C   UNL     1     -11.590  12.489  65.858  1.00  0.00    -0.405 A  
HETATM   18  C   UNL     1     -10.079  10.677  65.319  1.00  0.00    -0.363 A  
HETATM   19  C   UNL     1     -10.915  11.721  64.907  1.00  0.00    -0.358 A  
BRANCH  17  20
HETATM   20  N   UNL     1     -12.485  13.515  65.475  1.00  0.00    -0.477 N  
HETATM   21  H   UNL     1     -13.486  13.403  65.640  1.00  0.00     0.000 HD 
BRANCH  20  22
HETATM   22  C   UNL     1     -12.008  14.673  64.877  1.00  0.00    -0.400 C  
HETATM   23  O   UNL     1     -12.609  15.317  64.020  1.00  0.00    -0.750 OA 
BRANCH  22  24
HETATM   24  N   UNL     1     -10.759  15.003  65.368  1.00  0.00    -0.345 N  
HETATM   25  H   UNL     1      -9.952  14.449  65.083  1.00  0.00     0.000 HD 
BRANCH  24  26
HETATM   26  C   UNL     1     -10.572  16.084  66.250  1.00  0.00    -0.285 A  
HETATM   27  C   UNL     1     -10.723  15.861  67.615  1.00  0.00    -0.312 A  
HETATM   28  C   UNL     1     -10.547  16.915  68.511  1.00  0.00    -0.367 A  
HETATM   29  C   UNL     1     -10.291  18.213  68.052  1.00  0.00    -0.391 A  
HETATM   30 CL   UNL     1     -10.121  19.426  69.267  1.00  0.00    -0.369 Cl 
HETATM   31  C   UNL     1     -10.188  18.470  66.680  1.00  0.00    -0.429 A  
HETATM   32  C   UNL     1     -10.295  17.376  65.787  1.00  0.00    -0.226 A  
HETATM   33  C   UNL     1     -10.009  19.845  66.086  1.00  0.00    -0.487 C  
HETATM   34  F   UNL     1      -8.859  19.952  65.363  1.00  0.00    -0.132 F  
HETATM   35  F   UNL     1     -11.017  20.145  65.213  1.00  0.00    -0.529 F  
HETATM   36  F   UNL     1      -9.986  20.884  66.962  1.00  0.00    -0.602 F  
ENDBRANCH  24  26
ENDBRANCH  22  24
ENDBRANCH  20  22
ENDBRANCH  17  20
ENDBRANCH  12  13
ENDBRANCH   8  12
ENDBRANCH   3   6
TORSDOF 7
ENDMDL
MODEL       32
REMARK 921   NORMALIZED FREE ENERGY PREDICTED BY IDOCK:   -6.65 KCAL/MOL
REMARK 922        TOTAL FREE ENERGY PREDICTED BY IDOCK:  -11.36 KCAL/MOL
REMARK 923 INTER-LIGAND FREE ENERGY PREDICTED BY IDOCK:  -10.09 KCAL/MOL
REMARK 924 INTRA-LIGAND FREE ENERGY PREDICTED BY IDOCK:   -1.26 KCAL/MOL
REMARK 927      BINDING AFFINITY PREDICTED BY RF-SCORE:    0.00 PKD
ROOT
HETATM    1  C   UNL     1      -9.795  18.655  68.379  1.00  0.00    -0.384 C  
HETATM    2  N   UNL     1     -10.515  17.642  69.101  1.00  0.00    -0.405 N  
HETATM    3  C   UNL     1      -9.984  16.382  69.281  1.00  0.00    -0.259 C  
HETATM    4  H   UNL     1     -11.434  17.858  69.486  1.00  0.00     0.000 HD 
HETATM    5  O   UNL     1      -8.867  16.055  68.897  1.00  0.00    -0.205 OA 
ENDROOT
BRANCH   3   6
HETATM    6  C   UNL     1     -10.879  15.410  69.987  1.00  0.00    -0.305 A  
HETATM    7  C   UNL     1     -11.129  14.182  69.390  1.00  0.00    -0.261 A  
HETATM    8  C   UNL     1     -11.927  13.276  70.075  1.00  0.00    -0.329 A  
HETATM    9  C   UNL     1     -12.494  13.644  71.292  1.00  0.00    -0.412 A  
HETATM   10  N   UNL     1     -11.398  15.795  71.185  1.00  0.00    -0.379 NA 
HETATM   11  C   UNL     1     -12.200  14.899  71.802  1.00  0.00    -0.348 A  
BRANCH   8  12
HETATM   12  O   UNL     1     -12.266  12.036  69.584  1.00  0.00    -0.235 OA 
BRANCH  12  13
HETATM   13  C   UNL     1     -12.049  10.915  70.357  1.00  0.00    -0.363 A  
HETATM   14  C   UNL     1     -13.143  10.448  71.088  1.00  0.00    -0.474 A  
HETATM   15  C   UNL     1     -12.987   9.354  71.933  1.00  0.00    -0.417 A  
HETATM   16  F   UNL     1     -14.038   8.918  72.644  1.00  0.00    -0.464 F  
HETATM   17  C   UNL     1     -11.740   8.750  72.107  1.00  0.00    -0.363 A  
HETATM   18  C   UNL     1     -10.799  10.302  70.505  1.00  0.00    -0.281 A  
HETATM   19  C   UNL     1     -10.646   9.215  71.374  1.00  0.00    -0.412 A  
BRANCH  17  20
HETATM   20  N   UNL     1     -11.609   7.692  73.035  1.00  0.00    -0.621 N  
HETATM   21  H   UNL     1     -12.189   7.677  73.874  1.00  0.00     0.000 HD 
BRANCH  20  22
HETATM   22  C   UNL     1     -10.693   6.672  72.810  1.00  0.00    -0.243 C  
HETATM   23  O   UNL     1      -9.557   6.636  73.275  1.00  0.00    -0.148 OA 
BRANCH  22  24
HETATM   24  N   UNL     1     -11.228   5.704  71.982  1.00  0.00    -0.240 N  
HETATM   25  H   UNL     1     -12.092   5.237  72.257  1.00  0.00     0.000 HD 
BRANCH  24  26
HETATM   26  C   UNL     1     -10.611   5.345  70.768  1.00  0.00    -0.223 A  
HETATM   27  C   UNL     1      -9.773   4.235  70.752  1.00  0.00    -0.274 A  
HETATM   28  C   UNL     1      -9.146   3.859  69.565  1.00  0.00    -0.196 A  
HETATM   29  C   UNL     1      -9.291   4.626  68.401  1.00  0.00    -0.137 A  
HETATM   30 CL   UNL     1      -8.440   4.062  67.012  1.00  0.00    -0.100 Cl 
HETATM   31  C   UNL     1     -10.088   5.777  68.409  1.00  0.00    -0.216 A  
HETATM   32  C   UNL     1     -10.776   6.104  69.603  1.00  0.00    -0.385 A  
HETATM   33  C   UNL     1     -10.229   6.717  67.238  1.00  0.00    -0.210 C  
HETATM   34  F   UNL     1     -11.517   6.818  66.807  1.00  0.00    -0.460 F  
HETATM   35  F   UNL     1      -9.858   7.990  67.574  1.00  0.00    -0.166 F  
HETATM   36  F   UNL     1      -9.497   6.421  66.132  1.00  0.00    -0.181 F  
ENDBRANCH  24  26
ENDBRANCH  22  24
ENDBRANCH  20  22
ENDBRANCH  17  20
ENDBRANCH  12  13
ENDBRANCH   8  12
ENDBRANCH   3   6
TORSDOF 7
ENDMDL
MODEL       33
REMARK 921   NORMALIZED FREE ENERGY PREDICTED BY IDOCK:   -6.63 KCAL/MOL
REMARK 922        TOTAL FREE ENERGY PREDICTED BY IDOCK:  -11.34 KCAL/MOL
REMARK 923 INTER-LIGAND FREE ENERGY PREDICTED BY IDOCK:   -9.27 KCAL/MOL
REMARK 924 INTRA-LIGAND FREE ENERGY PREDICTED BY IDOCK:   -2.06 KCAL/MOL
REMARK 927      BINDING AFFINITY PREDICTED BY RF-SCORE:    0.00 PKD
ROOT
HETATM    1  C   UNL     1      -9.206  19.786  67.115  1.00  0.00    -0.342 C  
HETATM    2  N   UNL     1      -8.663  18.600  67.717  1.00  0.00    -0.276 N  
HETATM    3  C   UNL     1      -8.367  17.487  66.959  1.00  0.00    -0.219 C  
HETATM    4  H   UNL     1      -8.492  18.580  68.722  1.00  0.00     0.000 HD 
HETATM    5  O   UNL     1      -8.493  17.443  65.739  1.00  0.00    -0.532 OA 
ENDROOT
BRANCH   3   6
HETATM    6  C   UNL     1      -7.879  16.301  67.732  1.00  0.00    -0.142 A  
HETATM    7  C   UNL     1      -7.903  15.054  67.123  1.00  0.00    -0.224 A  
HETATM    8  C   UNL     1      -7.408  13.971  67.839  1.00  0.00    -0.157 A  
HETATM    9  C   UNL     1      -6.970  14.155  69.146  1.00  0.00    -0.111 A  
HETATM   10  N   UNL     1      -7.437  16.522  69.001  1.00  0.00    -0.223 NA 
HETATM   11  C   UNL     1      -7.000  15.436  69.677  1.00  0.00    -0.184 A  
BRANCH   8  12
HETATM   12  O   UNL     1      -7.395  12.683  67.356  1.00  0.00    -0.140 OA 
BRANCH  12  13
HETATM   13  C   UNL     1      -8.234  11.740  67.910  1.00  0.00    -0.147 A  
HETATM   14  C   UNL     1      -9.554  11.744  67.453  1.00  0.00    -0.173 A  
HETATM   15  C   UNL     1     -10.474  10.857  68.005  1.00  0.00    -0.191 A  
HETATM   16  F   UNL     1     -11.744  10.875  67.571  1.00  0.00    -0.351 F  
HETATM   17  C   UNL     1     -10.114  10.004  69.050  1.00  0.00    -0.200 A  
HETATM   18  C   UNL     1      -7.858  10.871  68.941  1.00  0.00    -0.142 A  
HETATM   19  C   UNL     1      -8.794   9.999  69.506  1.00  0.00    -0.209 A  
BRANCH  17  20
HETATM   20  N   UNL     1     -11.100   9.176  69.635  1.00  0.00    -0.405 N  
HETATM   21  H   UNL     1     -11.422   8.343  69.142  1.00  0.00     0.000 HD 
BRANCH  20  22
HETATM   22  C   UNL     1     -11.630   9.492  70.879  1.00  0.00    -0.326 C  
HETATM   23  O   UNL     1     -11.124   9.183  71.955  1.00  0.00    -0.357 OA 
BRANCH  22  24
HETATM   24  N   UNL     1     -12.814  10.193  70.746  1.00  0.00    -0.488 N  
HETATM   25  H   UNL     1     -13.643   9.707  70.404  1.00  0.00     0.000 HD 
BRANCH  24  26
HETATM   26  C   UNL     1     -12.905  11.560  71.071  1.00  0.00    -0.263 A  
HETATM   27  C   UNL     1     -13.778  11.946  72.083  1.00  0.00    -0.029 A  
HETATM   28  C   UNL     1     -13.890  13.293  72.422  1.00  0.00    -0.630 A  
HETATM   29  C   UNL     1     -13.188  14.274  71.710  1.00  0.00    -0.367 A  
HETATM   30 CL   UNL     1     -13.439  15.904  72.218  1.00  0.00    -0.471 Cl 
HETATM   31  C   UNL     1     -12.345  13.913  70.654  1.00  0.00    -0.451 A  
HETATM   32  C   UNL     1     -12.185  12.535  70.369  1.00  0.00    -0.368 A  
HETATM   33  C   UNL     1     -11.623  14.899  69.769  1.00  0.00    -0.303 C  
HETATM   34  F   UNL     1     -10.270  14.751  69.823  1.00  0.00    -0.199 F  
HETATM   35  F   UNL     1     -11.956  14.725  68.454  1.00  0.00    -0.330 F  
HETATM   36  F   UNL     1     -11.855  16.215  70.016  1.00  0.00    -0.322 F  
ENDBRANCH  24  26
ENDBRANCH  22  24
ENDBRANCH  20  22
ENDBRANCH  17  20
ENDBRANCH  12  13
ENDBRANCH   8  12
ENDBRANCH   3   6
TORSDOF 7
ENDMDL
MODEL       34
REMARK 921   NORMALIZED FREE ENERGY PREDICTED BY IDOCK:   -6.62 KCAL/MOL
REMARK 922        TOTAL FREE ENERGY PREDICTED BY IDOCK:  -11.32 KCAL/MOL
REMARK 923 INTER-LIGAND FREE ENERGY PREDICTED BY IDOCK:  -10.08 KCAL/MOL
REMARK 924 INTRA-LIGAND FREE ENERGY PREDICTED BY IDOCK:   -1.24 KCAL/MOL
REMARK 927      BINDING AFFINITY PREDICTED BY RF-SCORE:    0.00 PKD
ROOT
HETATM    1  C   UNL     1      -9.641  20.214  66.971  1.00  0.00    -0.424 C  
HETATM    2  N   UNL     1     -10.018  18.844  66.755  1.00  0.00    -0.337 N  
HETATM    3  C   UNL     1      -9.156  17.955  66.150  1.00  0.00    -0.097 C  
HETATM    4  H   UNL     1     -10.938  18.524  67.056  1.00  0.00     0.000 HD 
HETATM    5  O   UNL     1      -8.015  18.244  65.806  1.00  0.00    -0.513 OA 
ENDROOT
BRANCH   3   6
HETATM    6  C   UNL     1      -9.712  16.583  65.924  1.00  0.00    -0.270 A  
HETATM    7  C   UNL     1      -9.235  15.536  66.701  1.00  0.00    -0.299 A  
HETATM    8  C   UNL     1      -9.790  14.278  66.508  1.00  0.00    -0.288 A  
HETATM    9  C   UNL     1     -10.747  14.095  65.515  1.00  0.00    -0.330 A  
HETATM   10  N   UNL     1     -10.662  16.445  64.959  1.00  0.00    -0.681 NA 
HETATM   11  C   UNL     1     -11.149  15.198  64.777  1.00  0.00    -0.382 A  
BRANCH   8  12
HETATM   12  O   UNL     1      -9.391  13.157  67.198  1.00  0.00    -0.218 OA 
BRANCH  12  13
HETATM   13  C   UNL     1     -10.269  12.545  68.068  1.00  0.00    -0.225 A  
HETATM   14  C   UNL     1     -10.236  11.149  68.098  1.00  0.00    -0.198 A  
HETATM   15  C   UNL     1     -11.130  10.459  68.911  1.00  0.00    -0.247 A  
HETATM   16  F   UNL     1     -11.103   9.117  68.925  1.00  0.00    -0.184 F  
HETATM   17  C   UNL     1     -12.100  11.136  69.653  1.00  0.00    -0.336 A  
HETATM   18  C   UNL     1     -11.221  13.235  68.827  1.00  0.00    -0.317 A  
HETATM   19  C   UNL     1     -12.131  12.533  69.624  1.00  0.00    -0.272 A  
BRANCH  17  20
HETATM   20  N   UNL     1     -13.039  10.393  70.403  1.00  0.00    -0.500 N  
HETATM   21  H   UNL     1     -13.641   9.715  69.934  1.00  0.00     0.000 HD 
BRANCH  20  22
HETATM   22  C   UNL     1     -13.147  10.581  71.774  1.00  0.00    -0.464 C  
HETATM   23  O   UNL     1     -13.338  11.665  72.320  1.00  0.00    -0.443 OA 
BRANCH  22  24
HETATM   24  N   UNL     1     -13.000   9.384  72.449  1.00  0.00    -0.384 N  
HETATM   25  H   UNL     1     -13.618   9.177  73.233  1.00  0.00     0.000 HD 
BRANCH  24  26
HETATM   26  C   UNL     1     -12.018   8.443  72.082  1.00  0.00    -0.374 A  
HETATM   27  C   UNL     1     -12.431   7.193  71.632  1.00  0.00    -0.405 A  
HETATM   28  C   UNL     1     -11.480   6.242  71.265  1.00  0.00    -0.352 A  
HETATM   29  C   UNL     1     -10.111   6.502  71.411  1.00  0.00    -0.191 A  
HETATM   30 CL   UNL     1      -9.046   5.228  70.944  1.00  0.00    -0.159 Cl 
HETATM   31  C   UNL     1      -9.675   7.734  71.911  1.00  0.00    -0.216 A  
HETATM   32  C   UNL     1     -10.650   8.716  72.209  1.00  0.00    -0.375 A  
HETATM   33  C   UNL     1      -8.232   8.071  72.192  1.00  0.00    -0.137 C  
HETATM   34  F   UNL     1      -7.797   9.137  71.463  1.00  0.00    -0.151 F  
HETATM   35  F   UNL     1      -8.049   8.426  73.500  1.00  0.00    -0.230 F  
HETATM   36  F   UNL     1      -7.325   7.083  71.969  1.00  0.00    -0.078 F  
ENDBRANCH  24  26
ENDBRANCH  22  24
ENDBRANCH  20  22
ENDBRANCH  17  20
ENDBRANCH  12  13
ENDBRANCH   8  12
ENDBRANCH   3   6
TORSDOF 7
ENDMDL
MODEL       35
REMARK 921   NORMALIZED FREE ENERGY PREDICTED BY IDOCK:   -6.62 KCAL/MOL
REMARK 922        TOTAL FREE ENERGY PREDICTED BY IDOCK:  -11.31 KCAL/MOL
REMARK 923 INTER-LIGAND FREE ENERGY PREDICTED BY IDOCK:  -10.32 KCAL/MOL
REMARK 924 INTRA-LIGAND FREE ENERGY PREDICTED BY IDOCK:   -0.99 KCAL/MOL
REMARK 927      BINDING AFFINITY PREDICTED BY RF-SCORE:    0.00 PKD
ROOT
HETATM    1  C   UNL     1     -10.582   3.793  73.516  1.00  0.00    -0.196 C  
HETATM    2  N   UNL     1     -11.314   4.969  73.135  1.00  0.00    -0.352 N  
HETATM    3  C   UNL     1     -10.976   5.685  72.006  1.00  0.00    -0.243 C  
HETATM    4  H   UNL     1     -12.098   5.280  73.709  1.00  0.00     0.000 HD 
HETATM    5  O   UNL     1     -10.083   5.352  71.234  1.00  0.00    -0.191 OA 
ENDROOT
BRANCH   3   6
HETATM    6  C   UNL     1     -11.779   6.928  71.776  1.00  0.00    -0.302 A  
HETATM    7  C   UNL     1     -11.113   8.097  71.438  1.00  0.00    -0.291 A  
HETATM    8  C   UNL     1     -11.875   9.231  71.187  1.00  0.00    -0.325 A  
HETATM    9  C   UNL     1     -13.256   9.177  71.342  1.00  0.00    -0.359 A  
HETATM   10  N   UNL     1     -13.131   6.833  71.915  1.00  0.00    -0.239 NA 
HETATM   11  C   UNL     1     -13.832   7.968  71.700  1.00  0.00    -0.379 A  
BRANCH   8  12
HETATM   12  O   UNL     1     -11.335  10.454  70.863  1.00  0.00    -0.335 OA 
BRANCH  12  13
HETATM   13  C   UNL     1     -11.421  10.914  69.566  1.00  0.00    -0.301 A  
HETATM   14  C   UNL     1     -11.034  10.019  68.567  1.00  0.00    -0.255 A  
HETATM   15  C   UNL     1     -11.042  10.428  67.237  1.00  0.00    -0.179 A  
HETATM   16  F   UNL     1     -10.655   9.569  66.282  1.00  0.00    -0.277 F  
HETATM   17  C   UNL     1     -11.375  11.739  66.890  1.00  0.00    -0.320 A  
HETATM   18  C   UNL     1     -11.780  12.224  69.226  1.00  0.00    -0.388 A  
HETATM   19  C   UNL     1     -11.764  12.635  67.889  1.00  0.00    -0.412 A  
BRANCH  17  20
HETATM   20  N   UNL     1     -11.293  12.137  65.536  1.00  0.00    -0.339 N  
HETATM   21  H   UNL     1     -10.765  11.571  64.871  1.00  0.00     0.000 HD 
BRANCH  20  22
HETATM   22  C   UNL     1     -11.929  13.294  65.105  1.00  0.00    -0.381 C  
HETATM   23  O   UNL     1     -13.144  13.420  64.979  1.00  0.00    -0.734 OA 
BRANCH  22  24
HETATM   24  N   UNL     1     -11.009  14.287  64.827  1.00  0.00    -0.436 N  
HETATM   25  H   UNL     1     -10.377  14.171  64.035  1.00  0.00     0.000 HD 
BRANCH  24  26
HETATM   26  C   UNL     1     -10.921  15.455  65.610  1.00  0.00    -0.326 A  
HETATM   27  C   UNL     1     -10.702  16.669  64.968  1.00  0.00    -0.171 A  
HETATM   28  C   UNL     1     -10.608  17.841  65.719  1.00  0.00    -0.175 A  
HETATM   29  C   UNL     1     -10.658  17.803  67.118  1.00  0.00    -0.287 A  
HETATM   30 CL   UNL     1     -10.502  19.321  67.922  1.00  0.00    -0.509 Cl 
HETATM   31  C   UNL     1     -10.824  16.584  67.786  1.00  0.00    -0.304 A  
HETATM   32  C   UNL     1     -10.992  15.413  67.008  1.00  0.00    -0.306 A  
HETATM   33  C   UNL     1     -10.795  16.430  69.287  1.00  0.00    -0.327 C  
HETATM   34  F   UNL     1     -11.960  15.924  69.778  1.00  0.00    -0.323 F  
HETATM   35  F   UNL     1      -9.823  15.551  69.678  1.00  0.00    -0.227 F  
HETATM   36  F   UNL     1     -10.555  17.558  70.007  1.00  0.00    -0.134 F  
ENDBRANCH  24  26
ENDBRANCH  22  24
ENDBRANCH  20  22
ENDBRANCH  17  20
ENDBRANCH  12  13
ENDBRANCH   8  12
ENDBRANCH   3   6
TORSDOF 7
ENDMDL
MODEL       36
REMARK 921   NORMALIZED FREE ENERGY PREDICTED BY IDOCK:   -6.56 KCAL/MOL
REMARK 922        TOTAL FREE ENERGY PREDICTED BY IDOCK:  -11.23 KCAL/MOL
REMARK 923 INTER-LIGAND FREE ENERGY PREDICTED BY IDOCK:  -10.18 KCAL/MOL
REMARK 924 INTRA-LIGAND FREE ENERGY PREDICTED BY IDOCK:   -1.05 KCAL/MOL
REMARK 927      BINDING AFFINITY PREDICTED BY RF-SCORE:    0.00 PKD
ROOT
HETATM    1  C   UNL     1      -8.761   3.545  62.904  1.00  0.00    -0.093 C  
HETATM    2  N   UNL     1      -9.228   4.543  63.826  1.00  0.00    -0.259 N  
HETATM    3  C   UNL     1      -8.697   4.648  65.094  1.00  0.00    -0.140 C  
HETATM    4  H   UNL     1      -9.966   5.186  63.538  1.00  0.00     0.000 HD 
HETATM    5  O   UNL     1      -7.774   3.952  65.502  1.00  0.00    -0.084 OA 
ENDROOT
BRANCH   3   6
HETATM    6  C   UNL     1      -9.334   5.684  65.968  1.00  0.00    -0.134 A  
HETATM    7  C   UNL     1      -8.886   6.995  65.880  1.00  0.00    -0.126 A  
HETATM    8  C   UNL     1      -9.515   7.951  66.666  1.00  0.00    -0.211 A  
HETATM    9  C   UNL     1     -10.516   7.562  67.551  1.00  0.00    -0.341 A  
HETATM   10  N   UNL     1     -10.325   5.271  66.805  1.00  0.00    -0.252 NA 
HETATM   11  C   UNL     1     -10.885   6.225  67.581  1.00  0.00    -0.346 A  
BRANCH   8  12
HETATM   12  O   UNL     1      -9.152   9.278  66.686  1.00  0.00    -0.135 OA 
BRANCH  12  13
HETATM   13  C   UNL     1      -9.937  10.208  66.037  1.00  0.00    -0.256 A  
HETATM   14  C   UNL     1      -9.811  10.259  64.647  1.00  0.00    -0.396 A  
HETATM   15  C   UNL     1     -10.530  11.208  63.927  1.00  0.00    -0.381 A  
HETATM   16  F   UNL     1     -10.394  11.263  62.594  1.00  0.00    -0.192 F  
HETATM   17  C   UNL     1     -11.332  12.149  64.577  1.00  0.00    -0.334 A  
HETATM   18  C   UNL     1     -10.757  11.131  66.696  1.00  0.00    -0.322 A  
HETATM   19  C   UNL     1     -11.460  12.096  65.967  1.00  0.00    -0.427 A  
BRANCH  17  20
HETATM   20  N   UNL     1     -11.982  13.146  63.815  1.00  0.00    -0.496 N  
HETATM   21  H   UNL     1     -12.145  12.998  62.818  1.00  0.00     0.000 HD 
BRANCH  20  22
HETATM   22  C   UNL     1     -12.401  14.326  64.415  1.00  0.00    -0.391 C  
HETATM   23  O   UNL     1     -13.374  14.426  65.159  1.00  0.00    -0.542 OA 
BRANCH  22  24
HETATM   24  N   UNL     1     -11.581  15.379  64.057  1.00  0.00    -0.808 N  
HETATM   25  H   UNL     1     -11.614  15.731  63.100  1.00  0.00     0.000 HD 
BRANCH  24  26
HETATM   26  C   UNL     1     -10.702  15.979  64.979  1.00  0.00    -0.378 A  
HETATM   27  C   UNL     1      -9.667  15.213  65.506  1.00  0.00    -0.303 A  
HETATM   28  C   UNL     1      -8.784  15.781  66.423  1.00  0.00    -0.372 A  
HETATM   29  C   UNL     1      -8.966  17.093  66.877  1.00  0.00    -0.235 A  
HETATM   30 CL   UNL     1      -7.815  17.661  68.031  1.00  0.00    -0.228 Cl 
HETATM   31  C   UNL     1     -10.031  17.865  66.400  1.00  0.00    -0.358 A  
HETATM   32  C   UNL     1     -10.876  17.299  65.414  1.00  0.00    -0.024 A  
HETATM   33  C   UNL     1     -10.365  19.249  66.898  1.00  0.00    -0.426 C  
HETATM   34  F   UNL     1     -10.314  20.182  65.907  1.00  0.00    -0.530 F  
HETATM   35  F   UNL     1     -11.640  19.308  67.387  1.00  0.00    -0.274 F  
HETATM   36  F   UNL     1      -9.584  19.737  67.898  1.00  0.00    -0.390 F  
ENDBRANCH  24  26
ENDBRANCH  22  24
ENDBRANCH  20  22
ENDBRANCH  17  20
ENDBRANCH  12  13
ENDBRANCH   8  12
ENDBRANCH   3   6
TORSDOF 7
ENDMDL
MODEL       37
REMARK 921   NORMALIZED FREE ENERGY PREDICTED BY IDOCK:   -6.55 KCAL/MOL
REMARK 922        TOTAL FREE ENERGY PREDICTED BY IDOCK:  -11.22 KCAL/MOL
REMARK 923 INTER-LIGAND FREE ENERGY PREDICTED BY IDOCK:  -10.63 KCAL/MOL
REMARK 924 INTRA-LIGAND FREE ENERGY PREDICTED BY IDOCK:   -0.59 KCAL/MOL
REMARK 927      BINDING AFFINITY PREDICTED BY RF-SCORE:    0.00 PKD
ROOT
HETATM    1  C   UNL     1      -9.897   3.853  72.398  1.00  0.00    -0.157 C  
HETATM    2  N   UNL     1     -10.879   4.868  72.130  1.00  0.00    -0.125 N  
HETATM    3  C   UNL     1     -10.619   6.197  72.386  1.00  0.00    -0.210 C  
HETATM    4  H   UNL     1     -11.784   4.600  71.743  1.00  0.00     0.000 HD 
HETATM    5  O   UNL     1      -9.541   6.610  72.801  1.00  0.00    -0.146 OA 
ENDROOT
BRANCH   3   6
HETATM    6  C   UNL     1     -11.760   7.131  72.127  1.00  0.00    -0.284 A  
HETATM    7  C   UNL     1     -11.523   8.498  72.161  1.00  0.00    -0.446 A  
HETATM    8  C   UNL     1     -12.583   9.350  71.878  1.00  0.00    -0.401 A  
HETATM    9  C   UNL     1     -13.845   8.817  71.636  1.00  0.00    -0.443 A  
HETATM   10  N   UNL     1     -12.977   6.574  71.872  1.00  0.00    -0.160 NA 
HETATM   11  C   UNL     1     -13.990   7.438  71.640  1.00  0.00    -0.403 A  
BRANCH   8  12
HETATM   12  O   UNL     1     -12.482  10.722  71.899  1.00  0.00    -0.262 OA 
BRANCH  12  13
HETATM   13  C   UNL     1     -12.315  11.409  70.715  1.00  0.00    -0.386 A  
HETATM   14  C   UNL     1     -11.981  10.642  69.598  1.00  0.00    -0.340 A  
HETATM   15  C   UNL     1     -11.743  11.271  68.379  1.00  0.00    -0.294 A  
HETATM   16  F   UNL     1     -11.409  10.530  67.312  1.00  0.00    -0.361 F  
HETATM   17  C   UNL     1     -11.775  12.662  68.269  1.00  0.00    -0.342 A  
HETATM   18  C   UNL     1     -12.374  12.804  70.610  1.00  0.00    -0.381 A  
HETATM   19  C   UNL     1     -12.111  13.430  69.386  1.00  0.00    -0.321 A  
BRANCH  17  20
HETATM   20  N   UNL     1     -11.449  13.265  67.032  1.00  0.00    -0.322 N  
HETATM   21  H   UNL     1     -12.178  13.420  66.336  1.00  0.00     0.000 HD 
BRANCH  20  22
HETATM   22  C   UNL     1     -10.141  13.646  66.762  1.00  0.00    -0.269 C  
HETATM   23  O   UNL     1      -9.146  12.988  67.054  1.00  0.00    -0.216 OA 
BRANCH  22  24
HETATM   24  N   UNL     1     -10.107  14.874  66.129  1.00  0.00    -0.282 N  
HETATM   25  H   UNL     1     -10.102  14.906  65.109  1.00  0.00     0.000 HD 
BRANCH  24  26
HETATM   26  C   UNL     1     -10.079  16.081  66.854  1.00  0.00    -0.265 A  
HETATM   27  C   UNL     1     -10.281  16.033  68.230  1.00  0.00    -0.237 A  
HETATM   28  C   UNL     1     -10.262  17.213  68.972  1.00  0.00    -0.315 A  
HETATM   29  C   UNL     1     -10.113  18.456  68.342  1.00  0.00    -0.390 A  
HETATM   30 CL   UNL     1     -10.134  19.836  69.377  1.00  0.00    -0.368 Cl 
HETATM   31  C   UNL     1      -9.962  18.530  66.953  1.00  0.00    -0.370 A  
HETATM   32  C   UNL     1      -9.910  17.318  66.221  1.00  0.00    -0.299 A  
HETATM   33  C   UNL     1      -9.892  19.821  66.175  1.00  0.00    -0.448 C  
HETATM   34  F   UNL     1      -8.721  19.950  65.491  1.00  0.00    -0.258 F  
HETATM   35  F   UNL     1     -10.876  19.887  65.229  1.00  0.00    -0.587 F  
HETATM   36  F   UNL     1     -10.022  20.968  66.894  1.00  0.00    -0.540 F  
ENDBRANCH  24  26
ENDBRANCH  22  24
ENDBRANCH  20  22
ENDBRANCH  17  20
ENDBRANCH  12  13
ENDBRANCH   8  12
ENDBRANCH   3   6
TORSDOF 7
ENDMDL
MODEL       38
REMARK 921   NORMALIZED FREE ENERGY PREDICTED BY IDOCK:   -6.55 KCAL/MOL
REMARK 922        TOTAL FREE ENERGY PREDICTED BY IDOCK:  -11.22 KCAL/MOL
REMARK 923 INTER-LIGAND FREE ENERGY PREDICTED BY IDOCK:  -10.25 KCAL/MOL
REMARK 924 INTRA-LIGAND FREE ENERGY PREDICTED BY IDOCK:   -0.96 KCAL/MOL
REMARK 927      BINDING AFFINITY PREDICTED BY RF-SCORE:    0.00 PKD
ROOT
HETATM    1  C   UNL     1      -8.229   3.626  68.347  1.00  0.00    -0.077 C  
HETATM    2  N   UNL     1      -8.370   4.877  69.039  1.00  0.00    -0.082 N  
HETATM    3  C   UNL     1      -9.517   5.633  68.920  1.00  0.00    -0.126 C  
HETATM    4  H   UNL     1      -7.609   5.212  69.629  1.00  0.00     0.000 HD 
HETATM    5  O   UNL     1     -10.498   5.280  68.274  1.00  0.00    -0.151 OA 
ENDROOT
BRANCH   3   6
HETATM    6  C   UNL     1      -9.491   6.947  69.638  1.00  0.00    -0.147 A  
HETATM    7  C   UNL     1     -10.642   7.722  69.648  1.00  0.00    -0.242 A  
HETATM    8  C   UNL     1     -10.615   8.918  70.352  1.00  0.00    -0.217 A  
HETATM    9  C   UNL     1      -9.434   9.327  70.965  1.00  0.00    -0.313 A  
HETATM   10  N   UNL     1      -8.325   7.305  70.244  1.00  0.00    -0.133 NA 
HETATM   11  C   UNL     1      -8.329   8.493  70.887  1.00  0.00    -0.146 A  
BRANCH   8  12
HETATM   12  O   UNL     1     -11.681   9.785  70.422  1.00  0.00    -0.261 OA 
BRANCH  12  13
HETATM   13  C   UNL     1     -11.706  10.900  69.612  1.00  0.00    -0.331 A  
HETATM   14  C   UNL     1     -12.015  12.110  70.236  1.00  0.00    -0.389 A  
HETATM   15  C   UNL     1     -12.112  13.271  69.474  1.00  0.00    -0.258 A  
HETATM   16  F   UNL     1     -12.423  14.428  70.076  1.00  0.00    -0.350 F  
HETATM   17  C   UNL     1     -11.963  13.235  68.086  1.00  0.00    -0.304 A  
HETATM   18  C   UNL     1     -11.530  10.858  68.223  1.00  0.00    -0.376 A  
HETATM   19  C   UNL     1     -11.651  12.025  67.461  1.00  0.00    -0.401 A  
BRANCH  17  20
HETATM   20  N   UNL     1     -12.148  14.422  67.341  1.00  0.00    -0.588 N  
HETATM   21  H   UNL     1     -12.209  15.319  67.822  1.00  0.00     0.000 HD 
BRANCH  20  22
HETATM   22  C   UNL     1     -12.248  14.372  65.957  1.00  0.00    -0.336 C  
HETATM   23  O   UNL     1     -13.280  14.129  65.337  1.00  0.00    -0.741 OA 
BRANCH  22  24
HETATM   24  N   UNL     1     -11.024  14.622  65.365  1.00  0.00    -0.332 N  
HETATM   25  H   UNL     1     -10.721  14.038  64.586  1.00  0.00     0.000 HD 
BRANCH  24  26
HETATM   26  C   UNL     1     -10.185  15.662  65.811  1.00  0.00    -0.367 A  
HETATM   27  C   UNL     1      -8.923  15.335  66.297  1.00  0.00    -0.314 A  
HETATM   28  C   UNL     1      -8.073  16.344  66.748  1.00  0.00    -0.287 A  
HETATM   29  C   UNL     1      -8.499  17.678  66.786  1.00  0.00    -0.251 A  
HETATM   30 CL   UNL     1      -7.357  18.820  67.392  1.00  0.00    -0.227 Cl 
HETATM   31  C   UNL     1      -9.785  18.022  66.352  1.00  0.00    -0.324 A  
HETATM   32  C   UNL     1     -10.609  16.996  65.828  1.00  0.00    -0.218 A  
HETATM   33  C   UNL     1     -10.367  19.411  66.443  1.00  0.00    -0.483 C  
HETATM   34  F   UNL     1     -10.706  19.911  65.222  1.00  0.00    -0.556 F  
HETATM   35  F   UNL     1     -11.523  19.419  67.173  1.00  0.00    -0.438 F  
HETATM   36  F   UNL     1      -9.582  20.359  67.020  1.00  0.00    -0.484 F  
ENDBRANCH  24  26
ENDBRANCH  22  24
ENDBRANCH  20  22
ENDBRANCH  17  20
ENDBRANCH  12  13
ENDBRANCH   8  12
ENDBRANCH   3   6
TORSDOF 7
ENDMDL
MODEL       39
REMARK 921   NORMALIZED FREE ENERGY PREDICTED BY IDOCK:   -6.55 KCAL/MOL
REMARK 922        TOTAL FREE ENERGY PREDICTED BY IDOCK:  -11.21 KCAL/MOL
REMARK 923 INTER-LIGAND FREE ENERGY PREDICTED BY IDOCK:  -10.13 KCAL/MOL
REMARK 924 INTRA-LIGAND FREE ENERGY PREDICTED BY IDOCK:   -1.08 KCAL/MOL
REMARK 927      BINDING AFFINITY PREDICTED BY RF-SCORE:    0.00 PKD
ROOT
HETATM    1  C   UNL     1      -7.607  10.094  64.549  1.00  0.00    -0.130 C  
HETATM    2  N   UNL     1      -8.608  10.939  65.140  1.00  0.00    -0.331 N  
HETATM    3  C   UNL     1      -9.738  11.303  64.441  1.00  0.00    -0.254 C  
HETATM    4  H   UNL     1      -8.479  11.275  66.095  1.00  0.00     0.000 HD 
HETATM    5  O   UNL     1      -9.995  10.901  63.310  1.00  0.00    -0.322 OA 
ENDROOT
BRANCH   3   6
HETATM    6  C   UNL     1     -10.654  12.246  65.157  1.00  0.00    -0.285 A  
HETATM    7  C   UNL     1     -10.478  12.437  66.520  1.00  0.00    -0.254 A  
HETATM    8  C   UNL     1     -11.309  13.346  67.163  1.00  0.00    -0.315 A  
HETATM    9  C   UNL     1     -12.318  13.980  66.444  1.00  0.00    -0.468 A  
HETATM   10  N   UNL     1     -11.616  12.865  64.418  1.00  0.00    -0.342 NA 
HETATM   11  C   UNL     1     -12.428  13.713  65.087  1.00  0.00    -0.449 A  
BRANCH   8  12
HETATM   12  O   UNL     1     -11.250  13.610  68.511  1.00  0.00    -0.251 OA 
BRANCH  12  13
HETATM   13  C   UNL     1     -11.836  12.736  69.402  1.00  0.00    -0.300 A  
HETATM   14  C   UNL     1     -12.395  13.305  70.548  1.00  0.00    -0.389 A  
HETATM   15  C   UNL     1     -12.957  12.481  71.519  1.00  0.00    -0.280 A  
HETATM   16  F   UNL     1     -13.480  13.033  72.625  1.00  0.00    -0.612 F  
HETATM   17  C   UNL     1     -12.920  11.091  71.394  1.00  0.00    -0.414 A  
HETATM   18  C   UNL     1     -11.815  11.344  69.255  1.00  0.00    -0.417 A  
HETATM   19  C   UNL     1     -12.363  10.522  70.246  1.00  0.00    -0.377 A  
BRANCH  17  20
HETATM   20  N   UNL     1     -13.431  10.290  72.440  1.00  0.00    -0.575 N  
HETATM   21  H   UNL     1     -13.750  10.727  73.305  1.00  0.00     0.000 HD 
BRANCH  20  22
HETATM   22  C   UNL     1     -13.500   8.910  72.297  1.00  0.00    -0.455 C  
HETATM   23  O   UNL     1     -14.405   8.311  71.722  1.00  0.00    -0.431 OA 
BRANCH  22  24
HETATM   24  N   UNL     1     -12.417   8.297  72.897  1.00  0.00    -0.549 N  
HETATM   25  H   UNL     1     -12.395   8.210  73.913  1.00  0.00     0.000 HD 
BRANCH  24  26
HETATM   26  C   UNL     1     -11.342   7.789  72.142  1.00  0.00    -0.302 A  
HETATM   27  C   UNL     1     -11.610   6.845  71.156  1.00  0.00    -0.363 A  
HETATM   28  C   UNL     1     -10.564   6.323  70.396  1.00  0.00    -0.309 A  
HETATM   29  C   UNL     1      -9.236   6.683  70.659  1.00  0.00    -0.159 A  
HETATM   30 CL   UNL     1      -8.040   5.942  69.661  1.00  0.00    -0.104 Cl 
HETATM   31  C   UNL     1      -8.939   7.591  71.681  1.00  0.00    -0.137 A  
HETATM   32  C   UNL     1     -10.018   8.169  72.395  1.00  0.00    -0.345 A  
HETATM   33  C   UNL     1      -7.540   7.967  72.101  1.00  0.00    -0.104 C  
HETATM   34  F   UNL     1      -7.297   9.300  71.959  1.00  0.00     0.015 F  
HETATM   35  F   UNL     1      -7.328   7.698  73.425  1.00  0.00    -0.091 F  
HETATM   36  F   UNL     1      -6.524   7.340  71.451  1.00  0.00    -0.037 F  
ENDBRANCH  24  26
ENDBRANCH  22  24
ENDBRANCH  20  22
ENDBRANCH  17  20
ENDBRANCH  12  13
ENDBRANCH   8  12
ENDBRANCH   3   6
TORSDOF 7
ENDMDL
MODEL       40
REMARK 921   NORMALIZED FREE ENERGY PREDICTED BY IDOCK:   -6.53 KCAL/MOL
REMARK 922        TOTAL FREE ENERGY PREDICTED BY IDOCK:  -11.18 KCAL/MOL
REMARK 923 INTER-LIGAND FREE ENERGY PREDICTED BY IDOCK:   -9.67 KCAL/MOL
REMARK 924 INTRA-LIGAND FREE ENERGY PREDICTED BY IDOCK:   -1.51 KCAL/MOL
REMARK 927      BINDING AFFINITY PREDICTED BY RF-SCORE:    0.00 PKD
ROOT
HETATM    1  C   UNL     1      -6.765  10.446  65.902  1.00  0.00    -0.127 C  
HETATM    2  N   UNL     1      -7.531  11.462  66.570  1.00  0.00    -0.293 N  
HETATM    3  C   UNL     1      -6.926  12.591  67.080  1.00  0.00    -0.055 C  
HETATM    4  H   UNL     1      -8.539  11.346  66.668  1.00  0.00     0.000 HD 
HETATM    5  O   UNL     1      -5.730  12.833  66.960  1.00  0.00    -0.334 OA 
ENDROOT
BRANCH   3   6
HETATM    6  C   UNL     1      -7.838  13.524  67.814  1.00  0.00    -0.167 A  
HETATM    7  C   UNL     1      -9.198  13.246  67.836  1.00  0.00    -0.213 A  
HETATM    8  C   UNL     1     -10.025  14.099  68.556  1.00  0.00    -0.235 A  
HETATM    9  C   UNL     1      -9.483  15.224  69.170  1.00  0.00    -0.236 A  
HETATM   10  N   UNL     1      -7.271  14.603  68.423  1.00  0.00    -0.109 NA 
HETATM   11  C   UNL     1      -8.114  15.428  69.080  1.00  0.00    -0.213 A  
BRANCH   8  12
HETATM   12  O   UNL     1     -11.389  13.945  68.638  1.00  0.00    -0.245 OA 
BRANCH  12  13
HETATM   13  C   UNL     1     -11.916  12.998  69.491  1.00  0.00    -0.289 A  
HETATM   14  C   UNL     1     -12.499  13.481  70.665  1.00  0.00    -0.405 A  
HETATM   15  C   UNL     1     -13.004  12.583  71.601  1.00  0.00    -0.302 A  
HETATM   16  F   UNL     1     -13.549  13.052  72.733  1.00  0.00    -0.600 F  
HETATM   17  C   UNL     1     -12.885  11.204  71.413  1.00  0.00    -0.439 A  
HETATM   18  C   UNL     1     -11.814  11.618  69.282  1.00  0.00    -0.396 A  
HETATM   19  C   UNL     1     -12.305  10.721  70.238  1.00  0.00    -0.423 A  
BRANCH  17  20
HETATM   20  N   UNL     1     -13.340  10.328  72.424  1.00  0.00    -0.573 N  
HETATM   21  H   UNL     1     -13.588  10.697  73.342  1.00  0.00     0.000 HD 
BRANCH  20  22
HETATM   22  C   UNL     1     -13.449   8.966  72.174  1.00  0.00    -0.448 C  
HETATM   23  O   UNL     1     -14.358   8.443  71.534  1.00  0.00    -0.434 OA 
BRANCH  22  24
HETATM   24  N   UNL     1     -12.402   8.274  72.752  1.00  0.00    -0.594 N  
HETATM   25  H   UNL     1     -12.479   7.979  73.725  1.00  0.00     0.000 HD 
BRANCH  24  26
HETATM   26  C   UNL     1     -11.232   7.964  72.031  1.00  0.00    -0.287 A  
HETATM   27  C   UNL     1     -10.069   8.672  72.318  1.00  0.00    -0.363 A  
HETATM   28  C   UNL     1      -8.898   8.389  71.617  1.00  0.00    -0.246 A  
HETATM   29  C   UNL     1      -8.892   7.450  70.577  1.00  0.00    -0.148 A  
HETATM   30 CL   UNL     1      -7.381   7.216  69.777  1.00  0.00    -0.082 Cl 
HETATM   31  C   UNL     1     -10.064   6.765  70.237  1.00  0.00    -0.196 A  
HETATM   32  C   UNL     1     -11.227   7.010  71.006  1.00  0.00    -0.309 A  
HETATM   33  C   UNL     1     -10.180   5.809  69.075  1.00  0.00    -0.217 C  
HETATM   34  F   UNL     1     -10.532   4.554  69.471  1.00  0.00    -0.250 F  
HETATM   35  F   UNL     1     -11.157   6.203  68.203  1.00  0.00    -0.329 F  
HETATM   36  F   UNL     1      -9.070   5.651  68.308  1.00  0.00    -0.112 F  
ENDBRANCH  24  26
ENDBRANCH  22  24
ENDBRANCH  20  22
ENDBRANCH  17  20
ENDBRANCH  12  13
ENDBRANCH   8  12
ENDBRANCH   3   6
TORSDOF 7
ENDMDL
MODEL       41
REMARK 921   NORMALIZED FREE ENERGY PREDICTED BY IDOCK:   -6.52 KCAL/MOL
REMARK 922        TOTAL FREE ENERGY PREDICTED BY IDOCK:  -11.18 KCAL/MOL
REMARK 923 INTER-LIGAND FREE ENERGY PREDICTED BY IDOCK:   -9.77 KCAL/MOL
REMARK 924 INTRA-LIGAND FREE ENERGY PREDICTED BY IDOCK:   -1.40 KCAL/MOL
REMARK 927      BINDING AFFINITY PREDICTED BY RF-SCORE:    0.00 PKD
ROOT
HETATM    1  C   UNL     1      -8.237   8.660  62.951  1.00  0.00    -0.184 C  
HETATM    2  N   UNL     1      -9.155   9.460  63.713  1.00  0.00    -0.422 N  
HETATM    3  C   UNL     1      -9.439  10.760  63.351  1.00  0.00    -0.316 C  
HETATM    4  H   UNL     1      -9.605   9.060  64.536  1.00  0.00     0.000 HD 
HETATM    5  O   UNL     1      -8.983  11.300  62.348  1.00  0.00    -0.321 OA 
ENDROOT
BRANCH   3   6
HETATM    6  C   UNL     1     -10.355  11.494  64.280  1.00  0.00    -0.323 A  
HETATM    7  C   UNL     1      -9.952  11.690  65.594  1.00  0.00    -0.274 A  
HETATM    8  C   UNL     1     -10.794  12.409  66.433  1.00  0.00    -0.258 A  
HETATM    9  C   UNL     1     -12.025  12.849  65.956  1.00  0.00    -0.505 A  
HETATM   10  N   UNL     1     -11.542  11.930  63.774  1.00  0.00    -0.446 NA 
HETATM   11  C   UNL     1     -12.349  12.592  64.632  1.00  0.00    -0.474 A  
BRANCH   8  12
HETATM   12  O   UNL     1     -10.520  12.653  67.758  1.00  0.00    -0.215 OA 
BRANCH  12  13
HETATM   13  C   UNL     1     -10.906  11.736  68.713  1.00  0.00    -0.227 A  
HETATM   14  C   UNL     1     -11.884  12.159  69.615  1.00  0.00    -0.391 A  
HETATM   15  C   UNL     1     -12.286  11.309  70.641  1.00  0.00    -0.393 A  
HETATM   16  F   UNL     1     -13.216  11.726  71.514  1.00  0.00    -0.479 F  
HETATM   17  C   UNL     1     -11.685  10.061  70.819  1.00  0.00    -0.350 A  
HETATM   18  C   UNL     1     -10.314  10.477  68.868  1.00  0.00    -0.226 A  
HETATM   19  C   UNL     1     -10.709   9.636  69.915  1.00  0.00    -0.283 A  
BRANCH  17  20
HETATM   20  N   UNL     1     -12.067   9.262  71.920  1.00  0.00    -0.373 N  
HETATM   21  H   UNL     1     -11.576   9.356  72.810  1.00  0.00     0.000 HD 
BRANCH  20  22
HETATM   22  C   UNL     1     -13.106   8.349  71.797  1.00  0.00    -0.351 C  
HETATM   23  O   UNL     1     -14.239   8.626  71.410  1.00  0.00    -0.386 OA 
BRANCH  22  24
HETATM   24  N   UNL     1     -12.700   7.085  72.178  1.00  0.00    -0.532 N  
HETATM   25  H   UNL     1     -13.154   6.636  72.973  1.00  0.00     0.000 HD 
BRANCH  24  26
HETATM   26  C   UNL     1     -11.674   6.400  71.498  1.00  0.00    -0.313 A  
HETATM   27  C   UNL     1     -11.777   6.251  70.118  1.00  0.00    -0.274 A  
HETATM   28  C   UNL     1     -10.777   5.575  69.420  1.00  0.00    -0.312 A  
HETATM   29  C   UNL     1      -9.704   4.980  70.097  1.00  0.00    -0.210 A  
HETATM   30 CL   UNL     1      -8.554   4.153  69.113  1.00  0.00    -0.102 Cl 
HETATM   31  C   UNL     1      -9.610   5.073  71.490  1.00  0.00    -0.213 A  
HETATM   32  C   UNL     1     -10.593   5.826  72.177  1.00  0.00    -0.268 A  
HETATM   33  C   UNL     1      -8.548   4.388  72.315  1.00  0.00    -0.113 C  
HETATM   34  F   UNL     1      -7.790   5.272  73.021  1.00  0.00    -0.093 F  
HETATM   35  F   UNL     1      -9.103   3.557  73.249  1.00  0.00    -0.095 F  
HETATM   36  F   UNL     1      -7.664   3.610  71.637  1.00  0.00    -0.054 F  
ENDBRANCH  24  26
ENDBRANCH  22  24
ENDBRANCH  20  22
ENDBRANCH  17  20
ENDBRANCH  12  13
ENDBRANCH   8  12
ENDBRANCH   3   6
TORSDOF 7
ENDMDL
MODEL       42
REMARK 921   NORMALIZED FREE ENERGY PREDICTED BY IDOCK:   -6.52 KCAL/MOL
REMARK 922        TOTAL FREE ENERGY PREDICTED BY IDOCK:  -11.17 KCAL/MOL
REMARK 923 INTER-LIGAND FREE ENERGY PREDICTED BY IDOCK:  -10.01 KCAL/MOL
REMARK 924 INTRA-LIGAND FREE ENERGY PREDICTED BY IDOCK:   -1.16 KCAL/MOL
REMARK 927      BINDING AFFINITY PREDICTED BY RF-SCORE:    0.00 PKD
ROOT
HETATM    1  C   UNL     1      -5.804  16.126  69.848  1.00  0.00    -0.182 C  
HETATM    2  N   UNL     1      -6.932  16.656  69.133  1.00  0.00    -0.220 N  
HETATM    3  C   UNL     1      -7.035  18.003  68.860  1.00  0.00    -0.260 C  
HETATM    4  H   UNL     1      -7.670  16.024  68.821  1.00  0.00     0.000 HD 
HETATM    5  O   UNL     1      -6.170  18.823  69.152  1.00  0.00    -0.236 OA 
ENDROOT
BRANCH   3   6
HETATM    6  C   UNL     1      -8.299  18.420  68.175  1.00  0.00    -0.284 A  
HETATM    7  C   UNL     1      -8.831  17.589  67.198  1.00  0.00    -0.246 A  
HETATM    8  C   UNL     1     -10.026  17.969  66.601  1.00  0.00    -0.362 A  
HETATM    9  C   UNL     1     -10.612  19.182  66.949  1.00  0.00    -0.540 A  
HETATM   10  N   UNL     1      -8.857  19.602  68.556  1.00  0.00    -0.331 NA 
HETATM   11  C   UNL     1      -9.998  19.954  67.924  1.00  0.00    -0.422 A  
BRANCH   8  12
HETATM   12  O   UNL     1     -10.644  17.245  65.608  1.00  0.00    -0.516 OA 
BRANCH  12  13
HETATM   13  C   UNL     1     -10.781  15.880  65.746  1.00  0.00    -0.316 A  
HETATM   14  C   UNL     1     -11.450  15.439  66.890  1.00  0.00    -0.071 A  
HETATM   15  C   UNL     1     -11.580  14.074  67.126  1.00  0.00    -0.372 A  
HETATM   16  F   UNL     1     -12.211  13.656  68.234  1.00  0.00    -0.385 F  
HETATM   17  C   UNL     1     -11.001  13.136  66.268  1.00  0.00    -0.280 A  
HETATM   18  C   UNL     1     -10.218  14.947  64.867  1.00  0.00    -0.286 A  
HETATM   19  C   UNL     1     -10.334  13.577  65.123  1.00  0.00    -0.368 A  
BRANCH  17  20
HETATM   20  N   UNL     1     -11.088  11.762  66.588  1.00  0.00    -0.298 N  
HETATM   21  H   UNL     1     -11.858  11.203  66.219  1.00  0.00     0.000 HD 
BRANCH  20  22
HETATM   22  C   UNL     1     -10.131  11.170  67.401  1.00  0.00    -0.185 C  
HETATM   23  O   UNL     1      -9.125  11.734  67.824  1.00  0.00    -0.166 OA 
BRANCH  22  24
HETATM   24  N   UNL     1     -10.455   9.852  67.665  1.00  0.00    -0.227 N  
HETATM   25  H   UNL     1     -10.599   9.211  66.885  1.00  0.00     0.000 HD 
BRANCH  24  26
HETATM   26  C   UNL     1     -10.592   9.373  68.982  1.00  0.00    -0.213 A  
HETATM   27  C   UNL     1      -9.730   8.371  69.417  1.00  0.00    -0.177 A  
HETATM   28  C   UNL     1      -9.846   7.876  70.715  1.00  0.00    -0.188 A  
HETATM   29  C   UNL     1     -10.865   8.323  71.566  1.00  0.00    -0.249 A  
HETATM   30 CL   UNL     1     -10.908   7.607  73.135  1.00  0.00    -0.453 Cl 
HETATM   31  C   UNL     1     -11.775   9.292  71.130  1.00  0.00    -0.394 A  
HETATM   32  C   UNL     1     -11.600   9.838  69.835  1.00  0.00    -0.132 A  
HETATM   33  C   UNL     1     -12.960   9.765  71.936  1.00  0.00    -0.440 C  
HETATM   34  F   UNL     1     -12.910  11.102  72.193  1.00  0.00    -0.506 F  
HETATM   35  F   UNL     1     -14.132   9.568  71.260  1.00  0.00    -0.353 F  
HETATM   36  F   UNL     1     -13.148   9.169  73.142  1.00  0.00    -0.359 F  
ENDBRANCH  24  26
ENDBRANCH  22  24
ENDBRANCH  20  22
ENDBRANCH  17  20
ENDBRANCH  12  13
ENDBRANCH   8  12
ENDBRANCH   3   6
TORSDOF 7
ENDMDL
MODEL       43
REMARK 921   NORMALIZED FREE ENERGY PREDICTED BY IDOCK:   -6.50 KCAL/MOL
REMARK 922        TOTAL FREE ENERGY PREDICTED BY IDOCK:  -11.15 KCAL/MOL
REMARK 923 INTER-LIGAND FREE ENERGY PREDICTED BY IDOCK:   -9.95 KCAL/MOL
REMARK 924 INTRA-LIGAND FREE ENERGY PREDICTED BY IDOCK:   -1.20 KCAL/MOL
REMARK 927      BINDING AFFINITY PREDICTED BY RF-SCORE:    0.00 PKD
ROOT
HETATM    1  C   UNL     1      -5.404  14.058  71.045  1.00  0.00    -0.157 C  
HETATM    2  N   UNL     1      -6.073  12.833  70.704  1.00  0.00    -0.343 N  
HETATM    3  C   UNL     1      -6.348  12.512  69.392  1.00  0.00    -0.114 C  
HETATM    4  H   UNL     1      -6.349  12.189  71.446  1.00  0.00     0.000 HD 
HETATM    5  O   UNL     1      -6.006  13.203  68.438  1.00  0.00    -0.071 OA 
ENDROOT
BRANCH   3   6
HETATM    6  C   UNL     1      -7.115  11.241  69.195  1.00  0.00    -0.122 A  
HETATM    7  C   UNL     1      -7.670  10.986  67.949  1.00  0.00    -0.104 A  
HETATM    8  C   UNL     1      -8.343   9.784  67.770  1.00  0.00    -0.114 A  
HETATM    9  C   UNL     1      -8.493   8.915  68.846  1.00  0.00    -0.131 A  
HETATM   10  N   UNL     1      -7.223  10.404  70.264  1.00  0.00    -0.245 NA 
HETATM   11  C   UNL     1      -7.918   9.264  70.059  1.00  0.00    -0.121 A  
BRANCH   8  12
HETATM   12  O   UNL     1      -8.953   9.422  66.592  1.00  0.00    -0.140 OA 
BRANCH  12  13
HETATM   13  C   UNL     1      -9.764  10.326  65.939  1.00  0.00    -0.225 A  
HETATM   14  C   UNL     1      -9.438  10.602  64.610  1.00  0.00    -0.308 A  
HETATM   15  C   UNL     1     -10.177  11.545  63.903  1.00  0.00    -0.362 A  
HETATM   16  F   UNL     1      -9.850  11.817  62.630  1.00  0.00    -0.348 F  
HETATM   17  C   UNL     1     -11.204  12.264  64.518  1.00  0.00    -0.326 A  
HETATM   18  C   UNL     1     -10.809  11.024  66.559  1.00  0.00    -0.269 A  
HETATM   19  C   UNL     1     -11.533  11.986  65.847  1.00  0.00    -0.392 A  
BRANCH  17  20
HETATM   20  N   UNL     1     -11.878  13.269  63.787  1.00  0.00    -0.586 N  
HETATM   21  H   UNL     1     -12.012  13.162  62.781  1.00  0.00     0.000 HD 
BRANCH  20  22
HETATM   22  C   UNL     1     -12.358  14.401  64.432  1.00  0.00    -0.403 C  
HETATM   23  O   UNL     1     -13.336  14.422  65.175  1.00  0.00    -0.542 OA 
BRANCH  22  24
HETATM   24  N   UNL     1     -11.593  15.509  64.118  1.00  0.00    -0.840 N  
HETATM   25  H   UNL     1     -11.686  15.930  63.194  1.00  0.00     0.000 HD 
BRANCH  24  26
HETATM   26  C   UNL     1     -10.689  16.069  65.041  1.00  0.00    -0.378 A  
HETATM   27  C   UNL     1      -9.776  15.230  65.670  1.00  0.00    -0.360 A  
HETATM   28  C   UNL     1      -8.871  15.758  66.590  1.00  0.00    -0.324 A  
HETATM   29  C   UNL     1      -8.916  17.113  66.945  1.00  0.00    -0.235 A  
HETATM   30 CL   UNL     1      -7.758  17.627  68.114  1.00  0.00    -0.235 Cl 
HETATM   31  C   UNL     1      -9.863  17.964  66.363  1.00  0.00    -0.339 A  
HETATM   32  C   UNL     1     -10.725  17.428  65.376  1.00  0.00    -0.040 A  
HETATM   33  C   UNL     1     -10.052  19.410  66.749  1.00  0.00    -0.396 C  
HETATM   34  F   UNL     1      -9.849  20.257  65.702  1.00  0.00    -0.491 F  
HETATM   35  F   UNL     1     -11.331  19.650  67.168  1.00  0.00    -0.523 F  
HETATM   36  F   UNL     1      -9.262  19.877  67.753  1.00  0.00    -0.366 F  
ENDBRANCH  24  26
ENDBRANCH  22  24
ENDBRANCH  20  22
ENDBRANCH  17  20
ENDBRANCH  12  13
ENDBRANCH   8  12
ENDBRANCH   3   6
TORSDOF 7
ENDMDL
MODEL       44
REMARK 921   NORMALIZED FREE ENERGY PREDICTED BY IDOCK:   -6.49 KCAL/MOL
REMARK 922        TOTAL FREE ENERGY PREDICTED BY IDOCK:  -11.14 KCAL/MOL
REMARK 923 INTER-LIGAND FREE ENERGY PREDICTED BY IDOCK:  -10.87 KCAL/MOL
REMARK 924 INTRA-LIGAND FREE ENERGY PREDICTED BY IDOCK:   -0.27 KCAL/MOL
REMARK 927      BINDING AFFINITY PREDICTED BY RF-SCORE:    0.00 PKD
ROOT
HETATM    1  C   UNL     1     -10.759   5.595  69.381  1.00  0.00    -0.295 C  
HETATM    2  N   UNL     1     -11.490   6.735  69.861  1.00  0.00    -0.525 N  
HETATM    3  C   UNL     1     -10.839   7.878  70.273  1.00  0.00    -0.241 C  
HETATM    4  H   UNL     1     -12.509   6.699  69.898  1.00  0.00     0.000 HD 
HETATM    5  O   UNL     1      -9.623   8.025  70.213  1.00  0.00    -0.170 OA 
ENDROOT
BRANCH   3   6
HETATM    6  C   UNL     1     -11.726   8.955  70.818  1.00  0.00    -0.230 A  
HETATM    7  C   UNL     1     -11.395  10.279  70.567  1.00  0.00    -0.422 A  
HETATM    8  C   UNL     1     -12.249  11.265  71.044  1.00  0.00    -0.311 A  
HETATM    9  C   UNL     1     -13.359  10.903  71.801  1.00  0.00    -0.413 A  
HETATM   10  N   UNL     1     -12.815   8.564  71.536  1.00  0.00    -0.323 NA 
HETATM   11  C   UNL     1     -13.599   9.554  72.015  1.00  0.00    -0.415 A  
BRANCH   8  12
HETATM   12  O   UNL     1     -12.024  12.612  70.879  1.00  0.00    -0.177 OA 
BRANCH  12  13
HETATM   13  C   UNL     1     -11.955  13.140  69.607  1.00  0.00    -0.306 A  
HETATM   14  C   UNL     1     -11.890  12.219  68.559  1.00  0.00    -0.359 A  
HETATM   15  C   UNL     1     -11.764  12.676  67.251  1.00  0.00    -0.370 A  
HETATM   16  F   UNL     1     -11.687  11.786  66.249  1.00  0.00    -0.395 F  
HETATM   17  C   UNL     1     -11.643  14.039  66.972  1.00  0.00    -0.371 A  
HETATM   18  C   UNL     1     -11.859  14.510  69.337  1.00  0.00    -0.367 A  
HETATM   19  C   UNL     1     -11.711  14.960  68.020  1.00  0.00    -0.344 A  
BRANCH  17  20
HETATM   20  N   UNL     1     -11.437  14.455  65.637  1.00  0.00    -0.331 N  
HETATM   21  H   UNL     1     -11.985  14.038  64.885  1.00  0.00     0.000 HD 
BRANCH  20  22
HETATM   22  C   UNL     1     -10.492  15.430  65.346  1.00  0.00    -0.402 C  
HETATM   23  O   UNL     1     -10.741  16.513  64.822  1.00  0.00    -0.719 OA 
BRANCH  22  24
HETATM   24  N   UNL     1      -9.226  15.015  65.714  1.00  0.00    -0.468 N  
HETATM   25  H   UNL     1      -8.858  14.144  65.332  1.00  0.00     0.000 HD 
BRANCH  24  26
HETATM   26  C   UNL     1      -8.432  15.763  66.605  1.00  0.00    -0.288 A  
HETATM   27  C   UNL     1      -7.377  15.126  67.251  1.00  0.00    -0.216 A  
HETATM   28  C   UNL     1      -6.577  15.842  68.140  1.00  0.00    -0.136 A  
HETATM   29  C   UNL     1      -6.865  17.178  68.449  1.00  0.00    -0.191 A  
HETATM   30 CL   UNL     1      -5.810  17.936  69.584  1.00  0.00    -0.237 Cl 
HETATM   31  C   UNL     1      -7.953  17.823  67.851  1.00  0.00    -0.233 A  
HETATM   32  C   UNL     1      -8.711  17.105  66.894  1.00  0.00    -0.254 A  
HETATM   33  C   UNL     1      -8.398  19.224  68.189  1.00  0.00    -0.323 C  
HETATM   34  F   UNL     1      -8.359  20.055  67.110  1.00  0.00    -0.313 F  
HETATM   35  F   UNL     1      -9.697  19.244  68.617  1.00  0.00    -0.378 F  
HETATM   36  F   UNL     1      -7.700  19.862  69.165  1.00  0.00    -0.350 F  
ENDBRANCH  24  26
ENDBRANCH  22  24
ENDBRANCH  20  22
ENDBRANCH  17  20
ENDBRANCH  12  13
ENDBRANCH   8  12
ENDBRANCH   3   6
TORSDOF 7
ENDMDL
MODEL       45
REMARK 921   NORMALIZED FREE ENERGY PREDICTED BY IDOCK:   -6.48 KCAL/MOL
REMARK 922        TOTAL FREE ENERGY PREDICTED BY IDOCK:  -11.12 KCAL/MOL
REMARK 923 INTER-LIGAND FREE ENERGY PREDICTED BY IDOCK:   -9.74 KCAL/MOL
REMARK 924 INTRA-LIGAND FREE ENERGY PREDICTED BY IDOCK:   -1.38 KCAL/MOL
REMARK 927      BINDING AFFINITY PREDICTED BY RF-SCORE:    0.00 PKD
ROOT
HETATM    1  C   UNL     1     -10.911   3.728  73.415  1.00  0.00    -0.222 C  
HETATM    2  N   UNL     1     -10.278   4.903  72.881  1.00  0.00    -0.166 N  
HETATM    3  C   UNL     1     -11.022   5.943  72.367  1.00  0.00    -0.264 C  
HETATM    4  H   UNL     1      -9.260   4.968  72.883  1.00  0.00     0.000 HD 
HETATM    5  O   UNL     1     -12.248   5.968  72.373  1.00  0.00    -0.251 OA 
ENDROOT
BRANCH   3   6
HETATM    6  C   UNL     1     -10.225   7.066  71.778  1.00  0.00    -0.192 A  
HETATM    7  C   UNL     1     -10.704   7.695  70.638  1.00  0.00    -0.237 A  
HETATM    8  C   UNL     1      -9.975   8.762  70.129  1.00  0.00    -0.184 A  
HETATM    9  C   UNL     1      -8.772   9.120  70.730  1.00  0.00    -0.285 A  
HETATM   10  N   UNL     1      -9.064   7.404  72.406  1.00  0.00    -0.130 NA 
HETATM   11  C   UNL     1      -8.365   8.422  71.856  1.00  0.00    -0.167 A  
BRANCH   8  12
HETATM   12  O   UNL     1     -10.332   9.455  68.995  1.00  0.00    -0.198 OA 
BRANCH  12  13
HETATM   13  C   UNL     1     -10.960  10.676  69.114  1.00  0.00    -0.247 A  
HETATM   14  C   UNL     1     -10.750  11.583  68.073  1.00  0.00    -0.241 A  
HETATM   15  C   UNL     1     -11.307  12.856  68.148  1.00  0.00    -0.289 A  
HETATM   16  F   UNL     1     -11.089  13.728  67.152  1.00  0.00    -0.283 F  
HETATM   17  C   UNL     1     -12.025  13.262  69.274  1.00  0.00    -0.303 A  
HETATM   18  C   UNL     1     -11.699  11.066  70.237  1.00  0.00    -0.445 A  
HETATM   19  C   UNL     1     -12.238  12.355  70.315  1.00  0.00    -0.345 A  
BRANCH  17  20
HETATM   20  N   UNL     1     -12.506  14.590  69.345  1.00  0.00    -0.566 N  
HETATM   21  H   UNL     1     -13.067  14.968  68.581  1.00  0.00     0.000 HD 
BRANCH  20  22
HETATM   22  C   UNL     1     -12.219  15.381  70.449  1.00  0.00    -0.391 C  
HETATM   23  O   UNL     1     -13.057  15.822  71.231  1.00  0.00    -0.496 OA 
BRANCH  22  24
HETATM   24  N   UNL     1     -10.861  15.617  70.546  1.00  0.00    -0.333 N  
HETATM   25  H   UNL     1     -10.369  15.341  71.396  1.00  0.00     0.000 HD 
BRANCH  24  26
HETATM   26  C   UNL     1     -10.139  16.230  69.504  1.00  0.00    -0.221 A  
HETATM   27  C   UNL     1      -8.979  15.613  69.047  1.00  0.00    -0.239 A  
HETATM   28  C   UNL     1      -8.244  16.200  68.018  1.00  0.00    -0.152 A  
HETATM   29  C   UNL     1      -8.618  17.440  67.484  1.00  0.00    -0.218 A  
HETATM   30 CL   UNL     1      -7.604  18.063  66.235  1.00  0.00    -0.302 Cl 
HETATM   31  C   UNL     1      -9.752  18.103  67.966  1.00  0.00    -0.316 A  
HETATM   32  C   UNL     1     -10.529  17.460  68.960  1.00  0.00    -0.285 A  
HETATM   33  C   UNL     1     -10.180  19.481  67.524  1.00  0.00    -0.424 C  
HETATM   34  F   UNL     1     -11.420  19.483  66.962  1.00  0.00    -0.431 F  
HETATM   35  F   UNL     1     -10.259  20.342  68.584  1.00  0.00    -0.512 F  
HETATM   36  F   UNL     1      -9.373  20.106  66.627  1.00  0.00    -0.406 F  
ENDBRANCH  24  26
ENDBRANCH  22  24
ENDBRANCH  20  22
ENDBRANCH  17  20
ENDBRANCH  12  13
ENDBRANCH   8  12
ENDBRANCH   3   6
TORSDOF 7
ENDMDL
MODEL       46
REMARK 921   NORMALIZED FREE ENERGY PREDICTED BY IDOCK:   -6.47 KCAL/MOL
REMARK 922        TOTAL FREE ENERGY PREDICTED BY IDOCK:  -11.10 KCAL/MOL
REMARK 923 INTER-LIGAND FREE ENERGY PREDICTED BY IDOCK:   -9.62 KCAL/MOL
REMARK 924 INTRA-LIGAND FREE ENERGY PREDICTED BY IDOCK:   -1.48 KCAL/MOL
REMARK 927      BINDING AFFINITY PREDICTED BY RF-SCORE:    0.00 PKD
ROOT
HETATM    1  C   UNL     1     -10.535  20.074  65.560  1.00  0.00    -0.211 C  
HETATM    2  N   UNL     1     -10.298  19.132  66.619  1.00  0.00    -0.398 N  
HETATM    3  C   UNL     1     -10.396  17.775  66.402  1.00  0.00    -0.351 C  
HETATM    4  H   UNL     1     -10.054  19.474  67.548  1.00  0.00     0.000 HD 
HETATM    5  O   UNL     1     -10.634  17.278  65.306  1.00  0.00    -0.667 OA 
ENDROOT
BRANCH   3   6
HETATM    6  C   UNL     1     -10.197  16.920  67.615  1.00  0.00    -0.306 A  
HETATM    7  C   UNL     1     -11.300  16.289  68.173  1.00  0.00    -0.248 A  
HETATM    8  C   UNL     1     -11.093  15.467  69.273  1.00  0.00    -0.280 A  
HETATM    9  C   UNL     1      -9.815  15.352  69.812  1.00  0.00    -0.236 A  
HETATM   10  N   UNL     1      -8.930  16.813  68.103  1.00  0.00    -0.218 NA 
HETATM   11  C   UNL     1      -8.777  16.034  69.197  1.00  0.00    -0.248 A  
BRANCH   8  12
HETATM   12  O   UNL     1     -12.104  14.803  69.928  1.00  0.00    -0.303 OA 
BRANCH  12  13
HETATM   13  C   UNL     1     -12.137  13.425  69.908  1.00  0.00    -0.322 A  
HETATM   14  C   UNL     1     -12.506  12.799  71.101  1.00  0.00    -0.335 A  
HETATM   15  C   UNL     1     -12.510  11.409  71.174  1.00  0.00    -0.360 A  
HETATM   16  F   UNL     1     -12.852  10.813  72.327  1.00  0.00    -0.499 F  
HETATM   17  C   UNL     1     -12.095  10.630  70.093  1.00  0.00    -0.333 A  
HETATM   18  C   UNL     1     -11.742  12.652  68.810  1.00  0.00    -0.364 A  
HETATM   19  C   UNL     1     -11.727  11.255  68.899  1.00  0.00    -0.409 A  
BRANCH  17  20
HETATM   20  N   UNL     1     -12.038   9.225  70.236  1.00  0.00    -0.456 N  
HETATM   21  H   UNL     1     -12.888   8.701  70.445  1.00  0.00     0.000 HD 
BRANCH  20  22
HETATM   22  C   UNL     1     -10.830   8.554  70.095  1.00  0.00    -0.233 C  
HETATM   23  O   UNL     1      -9.811   8.804  70.735  1.00  0.00    -0.179 OA 
BRANCH  22  24
HETATM   24  N   UNL     1     -10.922   7.572  69.127  1.00  0.00    -0.423 N  
HETATM   25  H   UNL     1     -11.545   6.780  69.282  1.00  0.00     0.000 HD 
BRANCH  24  26
HETATM   26  C   UNL     1     -10.177   7.637  67.933  1.00  0.00    -0.198 A  
HETATM   27  C   UNL     1      -9.409   6.536  67.569  1.00  0.00    -0.124 A  
HETATM   28  C   UNL     1      -8.659   6.575  66.394  1.00  0.00    -0.136 A  
HETATM   29  C   UNL     1      -8.613   7.735  65.609  1.00  0.00    -0.127 A  
HETATM   30 CL   UNL     1      -7.626   7.654  64.197  1.00  0.00    -0.106 Cl 
HETATM   31  C   UNL     1      -9.337   8.872  65.986  1.00  0.00    -0.306 A  
HETATM   32  C   UNL     1     -10.151   8.792  67.142  1.00  0.00    -0.320 A  
HETATM   33  C   UNL     1      -9.275  10.194  65.262  1.00  0.00    -0.209 C  
HETATM   34  F   UNL     1     -10.491  10.579  64.783  1.00  0.00    -0.398 F  
HETATM   35  F   UNL     1      -8.878  11.201  66.097  1.00  0.00    -0.167 F  
HETATM   36  F   UNL     1      -8.428  10.264  64.201  1.00  0.00    -0.154 F  
ENDBRANCH  24  26
ENDBRANCH  22  24
ENDBRANCH  20  22
ENDBRANCH  17  20
ENDBRANCH  12  13
ENDBRANCH   8  12
ENDBRANCH   3   6
TORSDOF 7
ENDMDL
MODEL       47
REMARK 921   NORMALIZED FREE ENERGY PREDICTED BY IDOCK:   -6.42 KCAL/MOL
REMARK 922        TOTAL FREE ENERGY PREDICTED BY IDOCK:  -11.04 KCAL/MOL
REMARK 923 INTER-LIGAND FREE ENERGY PREDICTED BY IDOCK:   -9.81 KCAL/MOL
REMARK 924 INTRA-LIGAND FREE ENERGY PREDICTED BY IDOCK:   -1.23 KCAL/MOL
REMARK 927      BINDING AFFINITY PREDICTED BY RF-SCORE:    0.00 PKD
ROOT
HETATM    1  C   UNL     1     -10.481   3.869  64.397  1.00  0.00    -0.224 C  
HETATM    2  N   UNL     1     -10.712   4.631  65.594  1.00  0.00    -0.666 N  
HETATM    3  C   UNL     1      -9.765   5.511  66.073  1.00  0.00    -0.081 C  
HETATM    4  H   UNL     1     -11.592   4.518  66.098  1.00  0.00     0.000 HD 
HETATM    5  O   UNL     1      -8.706   5.744  65.501  1.00  0.00    -0.150 OA 
ENDROOT
BRANCH   3   6
HETATM    6  C   UNL     1     -10.113   6.177  67.368  1.00  0.00    -0.156 A  
HETATM    7  C   UNL     1      -9.548   7.413  67.653  1.00  0.00    -0.164 A  
HETATM    8  C   UNL     1      -9.912   8.036  68.839  1.00  0.00    -0.195 A  
HETATM    9  C   UNL     1     -10.770   7.386  69.721  1.00  0.00    -0.252 A  
HETATM   10  N   UNL     1     -10.972   5.522  68.197  1.00  0.00     0.019 NA 
HETATM   11  C   UNL     1     -11.271   6.145  69.358  1.00  0.00    -0.396 A  
BRANCH   8  12
HETATM   12  O   UNL     1      -9.409   9.250  69.246  1.00  0.00    -0.152 OA 
BRANCH  12  13
HETATM   13  C   UNL     1     -10.214  10.369  69.204  1.00  0.00    -0.222 A  
HETATM   14  C   UNL     1      -9.917  11.306  68.212  1.00  0.00    -0.201 A  
HETATM   15  C   UNL     1     -10.651  12.486  68.140  1.00  0.00    -0.226 A  
HETATM   16  F   UNL     1     -10.352  13.389  67.194  1.00  0.00    -0.239 F  
HETATM   17  C   UNL     1     -11.641  12.776  69.081  1.00  0.00    -0.319 A  
HETATM   18  C   UNL     1     -11.221  10.639  70.137  1.00  0.00    -0.378 A  
HETATM   19  C   UNL     1     -11.940  11.838  70.072  1.00  0.00    -0.421 A  
BRANCH  17  20
HETATM   20  N   UNL     1     -12.308  14.021  69.020  1.00  0.00    -0.501 N  
HETATM   21  H   UNL     1     -12.883  14.250  68.208  1.00  0.00     0.000 HD 
BRANCH  20  22
HETATM   22  C   UNL     1     -12.185  14.934  70.059  1.00  0.00    -0.333 C  
HETATM   23  O   UNL     1     -13.128  15.453  70.651  1.00  0.00    -0.426 OA 
BRANCH  22  24
HETATM   24  N   UNL     1     -10.855  15.190  70.335  1.00  0.00    -0.453 N  
HETATM   25  H   UNL     1     -10.430  14.772  71.163  1.00  0.00     0.000 HD 
BRANCH  24  26
HETATM   26  C   UNL     1     -10.072  16.012  69.502  1.00  0.00    -0.266 A  
HETATM   27  C   UNL     1      -8.795  15.583  69.156  1.00  0.00    -0.253 A  
HETATM   28  C   UNL     1      -7.997  16.379  68.335  1.00  0.00    -0.178 A  
HETATM   29  C   UNL     1      -8.435  17.641  67.912  1.00  0.00    -0.233 A  
HETATM   30 CL   UNL     1      -7.337  18.531  66.924  1.00  0.00    -0.220 Cl 
HETATM   31  C   UNL     1      -9.695  18.115  68.293  1.00  0.00    -0.344 A  
HETATM   32  C   UNL     1     -10.523  17.264  69.065  1.00  0.00    -0.309 A  
HETATM   33  C   UNL     1     -10.216  19.493  67.969  1.00  0.00    -0.437 C  
HETATM   34  F   UNL     1     -11.358  19.455  67.227  1.00  0.00    -0.542 F  
HETATM   35  F   UNL     1     -10.543  20.182  69.104  1.00  0.00    -0.471 F  
HETATM   36  F   UNL     1      -9.370  20.316  67.294  1.00  0.00    -0.423 F  
ENDBRANCH  24  26
ENDBRANCH  22  24
ENDBRANCH  20  22
ENDBRANCH  17  20
ENDBRANCH  12  13
ENDBRANCH   8  12
ENDBRANCH   3   6
TORSDOF 7
ENDMDL
MODEL       48
REMARK 921   NORMALIZED FREE ENERGY PREDICTED BY IDOCK:   -6.42 KCAL/MOL
REMARK 922        TOTAL FREE ENERGY PREDICTED BY IDOCK:  -11.03 KCAL/MOL
REMARK 923 INTER-LIGAND FREE ENERGY PREDICTED BY IDOCK:   -9.97 KCAL/MOL
REMARK 924 INTRA-LIGAND FREE ENERGY PREDICTED BY IDOCK:   -1.07 KCAL/MOL
REMARK 927      BINDING AFFINITY PREDICTED BY RF-SCORE:    0.00 PKD
ROOT
HETATM    1  C   UNL     1      -9.445   1.856  64.734  1.00  0.00    -0.055 C  
HETATM    2  N   UNL     1      -9.702   3.074  65.451  1.00  0.00    -0.370 N  
HETATM    3  C   UNL     1      -8.705   4.002  65.661  1.00  0.00    -0.119 C  
HETATM    4  H   UNL     1     -10.640   3.257  65.809  1.00  0.00     0.000 HD 
HETATM    5  O   UNL     1      -7.566   3.886  65.220  1.00  0.00    -0.079 OA 
ENDROOT
BRANCH   3   6
HETATM    6  C   UNL     1      -9.101   5.187  66.487  1.00  0.00    -0.127 A  
HETATM    7  C   UNL     1      -8.543   6.422  66.188  1.00  0.00    -0.144 A  
HETATM    8  C   UNL     1      -8.952   7.518  66.937  1.00  0.00    -0.135 A  
HETATM    9  C   UNL     1      -9.845   7.337  67.988  1.00  0.00    -0.167 A  
HETATM   10  N   UNL     1      -9.994   4.976  67.494  1.00  0.00    -0.171 NA 
HETATM   11  C   UNL     1     -10.336   6.061  68.222  1.00  0.00    -0.207 A  
BRANCH   8  12
HETATM   12  O   UNL     1      -8.461   8.790  66.753  1.00  0.00    -0.109 OA 
BRANCH  12  13
HETATM   13  C   UNL     1      -9.143   9.673  65.943  1.00  0.00    -0.178 A  
HETATM   14  C   UNL     1      -8.678   9.793  64.632  1.00  0.00    -0.218 A  
HETATM   15  C   UNL     1      -9.282  10.704  63.770  1.00  0.00    -0.254 A  
HETATM   16  F   UNL     1      -8.822  10.826  62.516  1.00  0.00    -0.194 F  
HETATM   17  C   UNL     1     -10.308  11.542  64.212  1.00  0.00    -0.323 A  
HETATM   18  C   UNL     1     -10.188  10.491  66.389  1.00  0.00    -0.296 A  
HETATM   19  C   UNL     1     -10.775  11.420  65.523  1.00  0.00    -0.313 A  
BRANCH  17  20
HETATM   20  N   UNL     1     -10.839  12.508  63.327  1.00  0.00    -0.645 N  
HETATM   21  H   UNL     1     -10.262  12.875  62.570  1.00  0.00     0.000 HD 
BRANCH  20  22
HETATM   22  C   UNL     1     -12.143  12.959  63.484  1.00  0.00    -0.555 C  
HETATM   23  O   UNL     1     -13.146  12.265  63.340  1.00  0.00    -0.727 OA 
BRANCH  22  24
HETATM   24  N   UNL     1     -12.164  14.301  63.813  1.00  0.00    -1.019 N  
HETATM   25  H   UNL     1     -12.477  14.978  63.118  1.00  0.00     0.000 HD 
BRANCH  24  26
HETATM   26  C   UNL     1     -11.765  14.757  65.084  1.00  0.00    -0.337 A  
HETATM   27  C   UNL     1     -12.333  14.169  66.210  1.00  0.00    -0.451 A  
HETATM   28  C   UNL     1     -11.959  14.604  67.481  1.00  0.00    -0.309 A  
HETATM   29  C   UNL     1     -11.070  15.675  67.640  1.00  0.00    -0.305 A  
HETATM   30 CL   UNL     1     -10.714  16.127  69.267  1.00  0.00    -0.271 Cl 
HETATM   31  C   UNL     1     -10.528  16.316  66.521  1.00  0.00    -0.290 A  
HETATM   32  C   UNL     1     -10.860  15.815  65.238  1.00  0.00    -0.409 A  
HETATM   33  C   UNL     1      -9.640  17.534  66.588  1.00  0.00    -0.282 C  
HETATM   34  F   UNL     1      -8.413  17.313  66.040  1.00  0.00    -0.286 F  
HETATM   35  F   UNL     1     -10.172  18.577  65.881  1.00  0.00    -0.367 F  
HETATM   36  F   UNL     1      -9.400  18.039  67.827  1.00  0.00    -0.252 F  
ENDBRANCH  24  26
ENDBRANCH  22  24
ENDBRANCH  20  22
ENDBRANCH  17  20
ENDBRANCH  12  13
ENDBRANCH   8  12
ENDBRANCH   3   6
TORSDOF 7
ENDMDL
MODEL       49
REMARK 921   NORMALIZED FREE ENERGY PREDICTED BY IDOCK:   -6.41 KCAL/MOL
REMARK 922        TOTAL FREE ENERGY PREDICTED BY IDOCK:  -11.03 KCAL/MOL
REMARK 923 INTER-LIGAND FREE ENERGY PREDICTED BY IDOCK:   -9.42 KCAL/MOL
REMARK 924 INTRA-LIGAND FREE ENERGY PREDICTED BY IDOCK:   -1.61 KCAL/MOL
REMARK 927      BINDING AFFINITY PREDICTED BY RF-SCORE:    0.00 PKD
ROOT
HETATM    1  C   UNL     1      -5.982  14.015  70.582  1.00  0.00    -0.186 C  
HETATM    2  N   UNL     1      -7.115  14.647  69.965  1.00  0.00    -0.375 N  
HETATM    3  C   UNL     1      -7.015  15.905  69.409  1.00  0.00    -0.211 C  
HETATM    4  H   UNL     1      -8.009  14.157  69.938  1.00  0.00     0.000 HD 
HETATM    5  O   UNL     1      -5.968  16.541  69.353  1.00  0.00    -0.150 OA 
ENDROOT
BRANCH   3   6
HETATM    6  C   UNL     1      -8.295  16.466  68.871  1.00  0.00    -0.234 A  
HETATM    7  C   UNL     1      -9.481  15.802  69.148  1.00  0.00    -0.255 A  
HETATM    8  C   UNL     1     -10.664  16.357  68.676  1.00  0.00    -0.317 A  
HETATM    9  C   UNL     1     -10.618  17.511  67.899  1.00  0.00    -0.390 A  
HETATM   10  N   UNL     1      -8.215  17.608  68.133  1.00  0.00    -0.249 NA 
HETATM   11  C   UNL     1      -9.383  18.095  67.661  1.00  0.00    -0.260 A  
BRANCH   8  12
HETATM   12  O   UNL     1     -11.901  15.786  68.866  1.00  0.00    -0.393 OA 
BRANCH  12  13
HETATM   13  C   UNL     1     -12.007  14.417  68.989  1.00  0.00    -0.307 A  
HETATM   14  C   UNL     1     -12.296  13.933  70.266  1.00  0.00    -0.413 A  
HETATM   15  C   UNL     1     -12.365  12.559  70.480  1.00  0.00    -0.262 A  
HETATM   16  F   UNL     1     -12.629  12.099  71.713  1.00  0.00    -0.361 F  
HETATM   17  C   UNL     1     -12.092  11.656  69.451  1.00  0.00    -0.263 A  
HETATM   18  C   UNL     1     -11.755  13.520  67.944  1.00  0.00    -0.392 A  
HETATM   19  C   UNL     1     -11.805  12.140  68.173  1.00  0.00    -0.362 A  
BRANCH  17  20
HETATM   20  N   UNL     1     -12.095  10.270  69.731  1.00  0.00    -0.490 N  
HETATM   21  H   UNL     1     -12.974   9.795  69.937  1.00  0.00     0.000 HD 
BRANCH  20  22
HETATM   22  C   UNL     1     -10.906   9.552  69.726  1.00  0.00    -0.243 C  
HETATM   23  O   UNL     1      -9.930   9.809  70.426  1.00  0.00    -0.261 OA 
BRANCH  22  24
HETATM   24  N   UNL     1     -10.962   8.512  68.818  1.00  0.00    -0.433 N  
HETATM   25  H   UNL     1     -11.558   7.709  69.020  1.00  0.00     0.000 HD 
BRANCH  24  26
HETATM   26  C   UNL     1     -10.218   8.531  67.623  1.00  0.00    -0.236 A  
HETATM   27  C   UNL     1      -9.289   7.519  67.402  1.00  0.00    -0.164 A  
HETATM   28  C   UNL     1      -8.536   7.516  66.229  1.00  0.00    -0.153 A  
HETATM   29  C   UNL     1      -8.650   8.558  65.299  1.00  0.00    -0.165 A  
HETATM   30 CL   UNL     1      -7.641   8.442  63.905  1.00  0.00    -0.126 Cl 
HETATM   31  C   UNL     1      -9.541   9.614  65.527  1.00  0.00    -0.351 A  
HETATM   32  C   UNL     1     -10.351   9.565  66.687  1.00  0.00    -0.280 A  
HETATM   33  C   UNL     1      -9.665  10.825  64.636  1.00  0.00    -0.289 C  
HETATM   34  F   UNL     1     -10.917  10.959  64.116  1.00  0.00    -0.433 F  
HETATM   35  F   UNL     1      -9.434  11.980  65.330  1.00  0.00    -0.234 F  
HETATM   36  F   UNL     1      -8.821  10.882  63.572  1.00  0.00    -0.180 F  
ENDBRANCH  24  26
ENDBRANCH  22  24
ENDBRANCH  20  22
ENDBRANCH  17  20
ENDBRANCH  12  13
ENDBRANCH   8  12
ENDBRANCH   3   6
TORSDOF 7
ENDMDL
MODEL       50
REMARK 921   NORMALIZED FREE ENERGY PREDICTED BY IDOCK:   -6.40 KCAL/MOL
REMARK 922        TOTAL FREE ENERGY PREDICTED BY IDOCK:  -11.01 KCAL/MOL
REMARK 923 INTER-LIGAND FREE ENERGY PREDICTED BY IDOCK:  -10.22 KCAL/MOL
REMARK 924 INTRA-LIGAND FREE ENERGY PREDICTED BY IDOCK:   -0.79 KCAL/MOL
REMARK 927      BINDING AFFINITY PREDICTED BY RF-SCORE:    0.00 PKD
ROOT
HETATM    1  C   UNL     1      -9.440   4.135  68.108  1.00  0.00    -0.158 C  
HETATM    2  N   UNL     1      -9.666   4.467  69.488  1.00  0.00    -0.200 N  
HETATM    3  C   UNL     1      -9.526   3.522  70.481  1.00  0.00    -0.179 C  
HETATM    4  H   UNL     1      -9.934   5.419  69.737  1.00  0.00     0.000 HD 
HETATM    5  O   UNL     1      -9.158   2.370  70.274  1.00  0.00    -0.087 OA 
ENDROOT
BRANCH   3   6
HETATM    6  C   UNL     1      -9.867   3.993  71.861  1.00  0.00    -0.177 A  
HETATM    7  C   UNL     1     -10.057   5.351  72.072  1.00  0.00    -0.240 A  
HETATM    8  C   UNL     1     -10.412   5.768  73.348  1.00  0.00    -0.244 A  
HETATM    9  C   UNL     1     -10.503   4.833  74.375  1.00  0.00    -0.331 A  
HETATM   10  N   UNL     1      -9.969   3.048  72.836  1.00  0.00    -0.127 NA 
HETATM   11  C   UNL     1     -10.279   3.499  74.072  1.00  0.00    -0.153 A  
BRANCH   8  12
HETATM   12  O   UNL     1     -10.609   7.086  73.691  1.00  0.00    -0.357 OA 
BRANCH  12  13
HETATM   13  C   UNL     1     -10.902   8.008  72.708  1.00  0.00    -0.369 A  
HETATM   14  C   UNL     1     -12.255   8.286  72.506  1.00  0.00    -0.367 A  
HETATM   15  C   UNL     1     -12.632   9.165  71.495  1.00  0.00    -0.343 A  
HETATM   16  F   UNL     1     -13.935   9.417  71.296  1.00  0.00    -0.411 F  
HETATM   17  C   UNL     1     -11.683   9.730  70.641  1.00  0.00    -0.300 A  
HETATM   18  C   UNL     1      -9.940   8.588  71.873  1.00  0.00    -0.365 A  
HETATM   19  C   UNL     1     -10.329   9.454  70.845  1.00  0.00    -0.380 A  
BRANCH  17  20
HETATM   20  N   UNL     1     -12.115  10.554  69.578  1.00  0.00    -0.515 N  
HETATM   21  H   UNL     1     -12.701  10.165  68.839  1.00  0.00     0.000 HD 
BRANCH  20  22
HETATM   22  C   UNL     1     -11.747  11.893  69.535  1.00  0.00    -0.345 C  
HETATM   23  O   UNL     1     -12.257  12.782  70.212  1.00  0.00    -0.334 OA 
BRANCH  22  24
HETATM   24  N   UNL     1     -10.732  12.095  68.618  1.00  0.00    -0.229 N  
HETATM   25  H   UNL     1      -9.843  11.613  68.748  1.00  0.00     0.000 HD 
BRANCH  24  26
HETATM   26  C   UNL     1     -10.894  12.950  67.511  1.00  0.00    -0.235 A  
HETATM   27  C   UNL     1     -10.736  14.319  67.701  1.00  0.00    -0.259 A  
HETATM   28  C   UNL     1     -10.894  15.189  66.623  1.00  0.00    -0.318 A  
HETATM   29  C   UNL     1     -11.282  14.710  65.364  1.00  0.00    -0.347 A  
HETATM   30 CL   UNL     1     -11.467  15.898  64.127  1.00  0.00    -0.246 Cl 
HETATM   31  C   UNL     1     -11.499  13.342  65.165  1.00  0.00    -0.316 A  
HETATM   32  C   UNL     1     -11.262  12.464  66.251  1.00  0.00    -0.361 A  
HETATM   33  C   UNL     1     -12.008  12.744  63.878  1.00  0.00    -0.480 C  
HETATM   34  F   UNL     1     -11.132  11.852  63.338  1.00  0.00    -0.405 F  
HETATM   35  F   UNL     1     -13.164  12.041  64.079  1.00  0.00    -0.529 F  
HETATM   36  F   UNL     1     -12.300  13.617  62.878  1.00  0.00    -0.516 F  
ENDBRANCH  24  26
ENDBRANCH  22  24
ENDBRANCH  20  22
ENDBRANCH  17  20
ENDBRANCH  12  13
ENDBRANCH   8  12
ENDBRANCH   3   6
TORSDOF 7
ENDMDL
MODEL       51
REMARK 921   NORMALIZED FREE ENERGY PREDICTED BY IDOCK:   -6.38 KCAL/MOL
REMARK 922        TOTAL FREE ENERGY PREDICTED BY IDOCK:  -10.98 KCAL/MOL
REMARK 923 INTER-LIGAND FREE ENERGY PREDICTED BY IDOCK:   -9.33 KCAL/MOL
REMARK 924 INTRA-LIGAND FREE ENERGY PREDICTED BY IDOCK:   -1.66 KCAL/MOL
REMARK 927      BINDING AFFINITY PREDICTED BY RF-SCORE:    0.00 PKD
ROOT
HETATM    1  C   UNL     1      -8.428   7.587  68.333  1.00  0.00    -0.125 C  
HETATM    2  N   UNL     1      -8.592   8.369  67.139  1.00  0.00    -0.122 N  
HETATM    3  C   UNL     1      -9.773   9.029  66.876  1.00  0.00    -0.200 C  
HETATM    4  H   UNL     1      -7.821   8.438  66.475  1.00  0.00     0.000 HD 
HETATM    5  O   UNL     1     -10.729   9.042  67.645  1.00  0.00    -0.248 OA 
ENDROOT
BRANCH   3   6
HETATM    6  C   UNL     1      -9.825   9.742  65.560  1.00  0.00    -0.308 A  
HETATM    7  C   UNL     1     -10.634  10.864  65.443  1.00  0.00    -0.243 A  
HETATM    8  C   UNL     1     -10.639  11.538  64.229  1.00  0.00    -0.347 A  
HETATM    9  C   UNL     1      -9.895  11.039  63.164  1.00  0.00    -0.398 A  
HETATM   10  N   UNL     1      -9.067   9.239  64.547  1.00  0.00    -0.160 NA 
HETATM   11  C   UNL     1      -9.129   9.902  63.371  1.00  0.00    -0.261 A  
BRANCH   8  12
HETATM   12  O   UNL     1     -11.411  12.648  63.978  1.00  0.00    -0.351 OA 
BRANCH  12  13
HETATM   13  C   UNL     1     -11.029  13.871  64.488  1.00  0.00    -0.369 A  
HETATM   14  C   UNL     1      -9.852  13.887  65.238  1.00  0.00    -0.170 A  
HETATM   15  C   UNL     1      -9.430  15.074  65.830  1.00  0.00    -0.278 A  
HETATM   16  F   UNL     1      -8.306  15.079  66.562  1.00  0.00    -0.269 F  
HETATM   17  C   UNL     1     -10.197  16.237  65.736  1.00  0.00    -0.367 A  
HETATM   18  C   UNL     1     -11.792  15.039  64.367  1.00  0.00    -0.349 A  
HETATM   19  C   UNL     1     -11.373  16.222  64.983  1.00  0.00    -0.076 A  
BRANCH  17  20
HETATM   20  N   UNL     1      -9.773  17.400  66.419  1.00  0.00    -0.287 N  
HETATM   21  H   UNL     1      -9.034  17.981  66.023  1.00  0.00     0.000 HD 
BRANCH  20  22
HETATM   22  C   UNL     1     -10.359  17.756  67.626  1.00  0.00    -0.373 C  
HETATM   23  O   UNL     1     -11.208  18.633  67.761  1.00  0.00    -0.112 OA 
BRANCH  22  24
HETATM   24  N   UNL     1      -9.851  16.996  68.663  1.00  0.00    -0.277 N  
HETATM   25  H   UNL     1      -8.876  17.116  68.936  1.00  0.00     0.000 HD 
BRANCH  24  26
HETATM   26  C   UNL     1     -10.645  16.059  69.353  1.00  0.00    -0.275 A  
HETATM   27  C   UNL     1     -11.211  16.434  70.567  1.00  0.00    -0.230 A  
HETATM   28  C   UNL     1     -11.999  15.526  71.272  1.00  0.00    -0.443 A  
HETATM   29  C   UNL     1     -12.172  14.214  70.810  1.00  0.00    -0.365 A  
HETATM   30 CL   UNL     1     -13.149  13.188  71.794  1.00  0.00    -0.493 Cl 
HETATM   31  C   UNL     1     -11.568  13.801  69.617  1.00  0.00    -0.343 A  
HETATM   32  C   UNL     1     -10.832  14.756  68.875  1.00  0.00    -0.259 A  
HETATM   33  C   UNL     1     -11.616  12.388  69.089  1.00  0.00    -0.314 C  
HETATM   34  F   UNL     1     -12.204  12.314  67.863  1.00  0.00    -0.377 F  
HETATM   35  F   UNL     1     -10.359  11.877  68.921  1.00  0.00    -0.209 F  
HETATM   36  F   UNL     1     -12.264  11.476  69.860  1.00  0.00    -0.331 F  
ENDBRANCH  24  26
ENDBRANCH  22  24
ENDBRANCH  20  22
ENDBRANCH  17  20
ENDBRANCH  12  13
ENDBRANCH   8  12
ENDBRANCH   3   6
TORSDOF 7
ENDMDL
MODEL       52
REMARK 921   NORMALIZED FREE ENERGY PREDICTED BY IDOCK:   -6.38 KCAL/MOL
REMARK 922        TOTAL FREE ENERGY PREDICTED BY IDOCK:  -10.98 KCAL/MOL
REMARK 923 INTER-LIGAND FREE ENERGY PREDICTED BY IDOCK:   -9.26 KCAL/MOL
REMARK 924 INTRA-LIGAND FREE ENERGY PREDICTED BY IDOCK:   -1.72 KCAL/MOL
REMARK 927      BINDING AFFINITY PREDICTED BY RF-SCORE:    0.00 PKD
ROOT
HETATM    1  C   UNL     1     -10.190   6.691  73.723  1.00  0.00    -0.329 C  
HETATM    2  N   UNL     1     -10.008   6.660  72.298  1.00  0.00    -0.167 N  
HETATM    3  C   UNL     1     -10.852   7.354  71.456  1.00  0.00    -0.224 C  
HETATM    4  H   UNL     1      -9.242   6.116  71.902  1.00  0.00     0.000 HD 
HETATM    5  O   UNL     1     -11.764   8.072  71.851  1.00  0.00    -0.273 OA 
ENDROOT
BRANCH   3   6
HETATM    6  C   UNL     1     -10.587   7.168  69.994  1.00  0.00    -0.232 A  
HETATM    7  C   UNL     1      -9.554   7.887  69.409  1.00  0.00    -0.160 A  
HETATM    8  C   UNL     1      -9.295   7.673  68.061  1.00  0.00    -0.140 A  
HETATM    9  C   UNL     1     -10.105   6.804  67.336  1.00  0.00    -0.225 A  
HETATM   10  N   UNL     1     -11.385   6.294  69.321  1.00  0.00    -0.407 NA 
HETATM   11  C   UNL     1     -11.124   6.142  68.004  1.00  0.00    -0.214 A  
BRANCH   8  12
HETATM   12  O   UNL     1      -8.314   8.336  67.361  1.00  0.00    -0.123 OA 
BRANCH  12  13
HETATM   13  C   UNL     1      -8.530   9.636  66.955  1.00  0.00    -0.124 A  
HETATM   14  C   UNL     1      -7.958  10.633  67.748  1.00  0.00    -0.110 A  
HETATM   15  C   UNL     1      -8.177  11.971  67.433  1.00  0.00    -0.168 A  
HETATM   16  F   UNL     1      -7.637  12.925  68.208  1.00  0.00    -0.101 F  
HETATM   17  C   UNL     1      -9.008  12.334  66.372  1.00  0.00    -0.117 A  
HETATM   18  C   UNL     1      -9.345   9.990  65.873  1.00  0.00    -0.236 A  
HETATM   19  C   UNL     1      -9.578  11.337  65.577  1.00  0.00    -0.259 A  
BRANCH  17  20
HETATM   20  N   UNL     1      -9.267  13.704  66.136  1.00  0.00    -0.490 N  
HETATM   21  H   UNL     1      -8.910  14.150  65.290  1.00  0.00     0.000 HD 
BRANCH  20  22
HETATM   22  C   UNL     1     -10.007  14.444  67.049  1.00  0.00    -0.257 C  
HETATM   23  O   UNL     1      -9.595  15.439  67.640  1.00  0.00    -0.209 OA 
BRANCH  22  24
HETATM   24  N   UNL     1     -11.269  13.906  67.213  1.00  0.00    -0.302 N  
HETATM   25  H   UNL     1     -11.925  13.933  66.433  1.00  0.00     0.000 HD 
BRANCH  24  26
HETATM   26  C   UNL     1     -11.672  13.322  68.429  1.00  0.00    -0.354 A  
HETATM   27  C   UNL     1     -11.757  11.935  68.504  1.00  0.00    -0.388 A  
HETATM   28  C   UNL     1     -12.157  11.331  69.695  1.00  0.00    -0.391 A  
HETATM   29  C   UNL     1     -12.543  12.103  70.798  1.00  0.00    -0.216 A  
HETATM   30 CL   UNL     1     -13.041  11.227  72.198  1.00  0.00    -0.463 Cl 
HETATM   31  C   UNL     1     -12.516  13.501  70.727  1.00  0.00    -0.428 A  
HETATM   32  C   UNL     1     -12.037  14.099  69.535  1.00  0.00    -0.388 A  
HETATM   33  C   UNL     1     -13.002  14.415  71.824  1.00  0.00    -0.345 C  
HETATM   34  F   UNL     1     -12.018  15.234  72.290  1.00  0.00    -0.368 F  
HETATM   35  F   UNL     1     -13.988  15.250  71.376  1.00  0.00    -0.472 F  
HETATM   36  F   UNL     1     -13.526  13.814  72.924  1.00  0.00    -0.583 F  
ENDBRANCH  24  26
ENDBRANCH  22  24
ENDBRANCH  20  22
ENDBRANCH  17  20
ENDBRANCH  12  13
ENDBRANCH   8  12
ENDBRANCH   3   6
TORSDOF 7
ENDMDL
MODEL       53
REMARK 921   NORMALIZED FREE ENERGY PREDICTED BY IDOCK:   -6.38 KCAL/MOL
REMARK 922        TOTAL FREE ENERGY PREDICTED BY IDOCK:  -10.97 KCAL/MOL
REMARK 923 INTER-LIGAND FREE ENERGY PREDICTED BY IDOCK:   -9.69 KCAL/MOL
REMARK 924 INTRA-LIGAND FREE ENERGY PREDICTED BY IDOCK:   -1.28 KCAL/MOL
REMARK 927      BINDING AFFINITY PREDICTED BY RF-SCORE:    0.00 PKD
ROOT
HETATM    1  C   UNL     1     -10.138  17.557  66.025  1.00  0.00    -0.260 C  
HETATM    2  N   UNL     1     -10.348  16.170  65.713  1.00  0.00    -0.362 N  
HETATM    3  C   UNL     1     -11.168  15.789  64.672  1.00  0.00    -0.363 C  
HETATM    4  H   UNL     1      -9.881  15.454  66.270  1.00  0.00     0.000 HD 
HETATM    5  O   UNL     1     -11.724  16.584  63.921  1.00  0.00    -1.148 OA 
ENDROOT
BRANCH   3   6
HETATM    6  C   UNL     1     -11.349  14.312  64.513  1.00  0.00    -0.334 A  
HETATM    7  C   UNL     1     -10.587  13.459  65.299  1.00  0.00    -0.333 A  
HETATM    8  C   UNL     1     -10.797  12.092  65.169  1.00  0.00    -0.300 A  
HETATM    9  C   UNL     1     -11.705  11.624  64.224  1.00  0.00    -0.262 A  
HETATM   10  N   UNL     1     -12.262  13.890  63.594  1.00  0.00    -0.656 NA 
HETATM   11  C   UNL     1     -12.409  12.552  63.471  1.00  0.00    -0.525 A  
BRANCH   8  12
HETATM   12  O   UNL     1     -10.093  11.144  65.874  1.00  0.00    -0.229 OA 
BRANCH  12  13
HETATM   13  C   UNL     1     -10.352  10.964  67.217  1.00  0.00    -0.216 A  
HETATM   14  C   UNL     1      -9.273  10.555  68.004  1.00  0.00    -0.143 A  
HETATM   15  C   UNL     1      -9.469  10.301  69.358  1.00  0.00    -0.206 A  
HETATM   16  F   UNL     1      -8.432   9.894  70.107  1.00  0.00    -0.179 F  
HETATM   17  C   UNL     1     -10.739  10.391  69.931  1.00  0.00    -0.279 A  
HETATM   18  C   UNL     1     -11.625  11.081  67.787  1.00  0.00    -0.277 A  
HETATM   19  C   UNL     1     -11.818  10.802  69.145  1.00  0.00    -0.347 A  
BRANCH  17  20
HETATM   20  N   UNL     1     -10.909  10.047  71.292  1.00  0.00    -0.196 N  
HETATM   21  H   UNL     1     -11.193  10.760  71.964  1.00  0.00     0.000 HD 
BRANCH  20  22
HETATM   22  C   UNL     1     -10.690   8.743  71.717  1.00  0.00    -0.343 C  
HETATM   23  O   UNL     1      -9.854   8.410  72.553  1.00  0.00    -0.282 OA 
BRANCH  22  24
HETATM   24  N   UNL     1     -11.534   7.864  71.064  1.00  0.00    -0.278 N  
HETATM   25  H   UNL     1     -12.541   7.954  71.194  1.00  0.00     0.000 HD 
BRANCH  24  26
HETATM   26  C   UNL     1     -11.038   6.848  70.225  1.00  0.00    -0.297 A  
HETATM   27  C   UNL     1     -11.285   6.935  68.859  1.00  0.00    -0.111 A  
HETATM   28  C   UNL     1     -10.808   5.941  68.006  1.00  0.00    -0.321 A  
HETATM   29  C   UNL     1     -10.145   4.816  68.513  1.00  0.00    -0.044 A  
HETATM   30 CL   UNL     1      -9.633   3.650  67.349  1.00  0.00    -0.240 Cl 
HETATM   31  C   UNL     1      -9.933   4.682  69.890  1.00  0.00    -0.296 A  
HETATM   32  C   UNL     1     -10.357   5.736  70.736  1.00  0.00    -0.301 A  
HETATM   33  C   UNL     1      -9.316   3.468  70.539  1.00  0.00    -0.160 C  
HETATM   34  F   UNL     1      -8.174   3.767  71.218  1.00  0.00    -0.066 F  
HETATM   35  F   UNL     1     -10.158   2.917  71.466  1.00  0.00    -0.234 F  
HETATM   36  F   UNL     1      -8.989   2.440  69.711  1.00  0.00    -0.107 F  
ENDBRANCH  24  26
ENDBRANCH  22  24
ENDBRANCH  20  22
ENDBRANCH  17  20
ENDBRANCH  12  13
ENDBRANCH   8  12
ENDBRANCH   3   6
TORSDOF 7
ENDMDL
MODEL       54
REMARK 921   NORMALIZED FREE ENERGY PREDICTED BY IDOCK:   -6.37 KCAL/MOL
REMARK 922        TOTAL FREE ENERGY PREDICTED BY IDOCK:  -10.97 KCAL/MOL
REMARK 923 INTER-LIGAND FREE ENERGY PREDICTED BY IDOCK:   -9.34 KCAL/MOL
REMARK 924 INTRA-LIGAND FREE ENERGY PREDICTED BY IDOCK:   -1.63 KCAL/MOL
REMARK 927      BINDING AFFINITY PREDICTED BY RF-SCORE:    0.00 PKD
ROOT
HETATM    1  C   UNL     1     -13.524  10.313  71.966  1.00  0.00    -0.281 C  
HETATM    2  N   UNL     1     -12.920  11.551  71.557  1.00  0.00    -0.430 N  
HETATM    3  C   UNL     1     -13.410  12.762  71.997  1.00  0.00    -0.466 C  
HETATM    4  H   UNL     1     -12.115  11.534  70.931  1.00  0.00     0.000 HD 
HETATM    5  O   UNL     1     -14.340  12.871  72.790  1.00  0.00    -0.382 OA 
ENDROOT
BRANCH   3   6
HETATM    6  C   UNL     1     -12.729  13.969  71.429  1.00  0.00    -0.364 A  
HETATM    7  C   UNL     1     -12.534  14.038  70.057  1.00  0.00    -0.339 A  
HETATM    8  C   UNL     1     -11.937  15.182  69.542  1.00  0.00    -0.321 A  
HETATM    9  C   UNL     1     -11.502  16.179  70.409  1.00  0.00    -0.344 A  
HETATM   10  N   UNL     1     -12.336  14.935  72.305  1.00  0.00    -0.342 NA 
HETATM   11  C   UNL     1     -11.725  16.013  71.768  1.00  0.00    -0.509 A  
BRANCH   8  12
HETATM   12  O   UNL     1     -11.670  15.364  68.205  1.00  0.00    -0.351 OA 
BRANCH  12  13
HETATM   13  C   UNL     1     -10.848  14.474  67.547  1.00  0.00    -0.289 A  
HETATM   14  C   UNL     1     -11.451  13.684  66.567  1.00  0.00    -0.357 A  
HETATM   15  C   UNL     1     -10.697  12.725  65.898  1.00  0.00    -0.270 A  
HETATM   16  F   UNL     1     -11.285  11.958  64.967  1.00  0.00    -0.343 F  
HETATM   17  C   UNL     1      -9.360  12.498  66.232  1.00  0.00    -0.177 A  
HETATM   18  C   UNL     1      -9.501  14.272  67.873  1.00  0.00    -0.212 A  
HETATM   19  C   UNL     1      -8.755  13.290  67.211  1.00  0.00    -0.214 A  
BRANCH  17  20
HETATM   20  N   UNL     1      -8.653  11.460  65.584  1.00  0.00    -0.382 N  
HETATM   21  H   UNL     1      -7.981  11.685  64.850  1.00  0.00     0.000 HD 
BRANCH  20  22
HETATM   22  C   UNL     1      -8.869  10.136  65.942  1.00  0.00    -0.149 C  
HETATM   23  O   UNL     1      -9.567   9.345  65.312  1.00  0.00    -0.269 OA 
BRANCH  22  24
HETATM   24  N   UNL     1      -8.199   9.826  67.110  1.00  0.00    -0.120 N  
HETATM   25  H   UNL     1      -7.192   9.980  67.161  1.00  0.00     0.000 HD 
BRANCH  24  26
HETATM   26  C   UNL     1      -8.871   9.303  68.232  1.00  0.00    -0.129 A  
HETATM   27  C   UNL     1      -8.872  10.043  69.410  1.00  0.00    -0.200 A  
HETATM   28  C   UNL     1      -9.527   9.547  70.537  1.00  0.00    -0.306 A  
HETATM   29  C   UNL     1     -10.125   8.280  70.521  1.00  0.00    -0.195 A  
HETATM   30 CL   UNL     1     -10.877   7.780  71.991  1.00  0.00    -0.276 Cl 
HETATM   31  C   UNL     1     -10.089   7.497  69.362  1.00  0.00    -0.190 A  
HETATM   32  C   UNL     1      -9.485   8.044  68.204  1.00  0.00    -0.152 A  
HETATM   33  C   UNL     1     -10.618   6.086  69.276  1.00  0.00    -0.299 C  
HETATM   34  F   UNL     1     -11.608   5.960  68.349  1.00  0.00    -0.192 F  
HETATM   35  F   UNL     1      -9.642   5.212  68.887  1.00  0.00    -0.142 F  
HETATM   36  F   UNL     1     -11.123   5.559  70.422  1.00  0.00    -0.349 F  
ENDBRANCH  24  26
ENDBRANCH  22  24
ENDBRANCH  20  22
ENDBRANCH  17  20
ENDBRANCH  12  13
ENDBRANCH   8  12
ENDBRANCH   3   6
TORSDOF 7
ENDMDL
MODEL       55
REMARK 921   NORMALIZED FREE ENERGY PREDICTED BY IDOCK:   -6.37 KCAL/MOL
REMARK 922        TOTAL FREE ENERGY PREDICTED BY IDOCK:  -10.97 KCAL/MOL
REMARK 923 INTER-LIGAND FREE ENERGY PREDICTED BY IDOCK:   -9.06 KCAL/MOL
REMARK 924 INTRA-LIGAND FREE ENERGY PREDICTED BY IDOCK:   -1.91 KCAL/MOL
REMARK 927      BINDING AFFINITY PREDICTED BY RF-SCORE:    0.00 PKD
ROOT
HETATM    1  C   UNL     1     -12.159  15.191  70.876  1.00  0.00    -0.334 C  
HETATM    2  N   UNL     1     -12.235  14.450  69.647  1.00  0.00    -0.421 N  
HETATM    3  C   UNL     1     -11.405  14.743  68.585  1.00  0.00    -0.285 C  
HETATM    4  H   UNL     1     -12.913  13.694  69.559  1.00  0.00     0.000 HD 
HETATM    5  O   UNL     1     -10.529  15.600  68.626  1.00  0.00    -0.221 OA 
ENDROOT
BRANCH   3   6
HETATM    6  C   UNL     1     -11.649  13.939  67.346  1.00  0.00    -0.368 A  
HETATM    7  C   UNL     1     -10.824  12.854  67.085  1.00  0.00    -0.278 A  
HETATM    8  C   UNL     1     -11.088  12.093  65.953  1.00  0.00    -0.318 A  
HETATM    9  C   UNL     1     -12.117  12.473  65.096  1.00  0.00    -0.503 A  
HETATM   10  N   UNL     1     -12.678  14.325  66.542  1.00  0.00    -0.082 NA 
HETATM   11  C   UNL     1     -12.879  13.582  65.432  1.00  0.00    -0.363 A  
BRANCH   8  12
HETATM   12  O   UNL     1     -10.334  11.008  65.572  1.00  0.00    -0.255 OA 
BRANCH  12  13
HETATM   13  C   UNL     1      -9.630  10.301  66.524  1.00  0.00    -0.181 A  
HETATM   14  C   UNL     1     -10.313   9.255  67.148  1.00  0.00    -0.330 A  
HETATM   15  C   UNL     1      -9.686   8.531  68.158  1.00  0.00    -0.155 A  
HETATM   16  F   UNL     1     -10.353   7.536  68.763  1.00  0.00    -0.182 F  
HETATM   17  C   UNL     1      -8.406   8.871  68.599  1.00  0.00    -0.124 A  
HETATM   18  C   UNL     1      -8.336  10.635  66.943  1.00  0.00    -0.125 A  
HETATM   19  C   UNL     1      -7.721   9.916  67.974  1.00  0.00    -0.086 A  
BRANCH  17  20
HETATM   20  N   UNL     1      -7.837   8.161  69.681  1.00  0.00    -0.101 N  
HETATM   21  H   UNL     1      -7.435   7.236  69.526  1.00  0.00     0.000 HD 
BRANCH  20  22
HETATM   22  C   UNL     1      -7.824   8.716  70.954  1.00  0.00    -0.118 C  
HETATM   23  O   UNL     1      -7.279   9.777  71.249  1.00  0.00    -0.309 OA 
BRANCH  22  24
HETATM   24  N   UNL     1      -8.499   7.910  71.850  1.00  0.00    -0.113 N  
HETATM   25  H   UNL     1      -7.965   7.361  72.524  1.00  0.00     0.000 HD 
BRANCH  24  26
HETATM   26  C   UNL     1      -9.905   7.827  71.858  1.00  0.00    -0.170 A  
HETATM   27  C   UNL     1     -10.495   6.587  72.079  1.00  0.00    -0.227 A  
HETATM   28  C   UNL     1     -11.885   6.475  72.089  1.00  0.00    -0.348 A  
HETATM   29  C   UNL     1     -12.696   7.582  71.807  1.00  0.00    -0.331 A  
HETATM   30 CL   UNL     1     -14.398   7.297  71.826  1.00  0.00    -0.573 Cl 
HETATM   31  C   UNL     1     -12.121   8.827  71.529  1.00  0.00    -0.388 A  
HETATM   32  C   UNL     1     -10.711   8.941  71.596  1.00  0.00    -0.418 A  
HETATM   33  C   UNL     1     -12.905  10.050  71.122  1.00  0.00    -0.385 C  
HETATM   34  F   UNL     1     -12.742  11.084  71.995  1.00  0.00    -0.477 F  
HETATM   35  F   UNL     1     -12.488  10.528  69.911  1.00  0.00    -0.339 F  
HETATM   36  F   UNL     1     -14.248   9.892  70.991  1.00  0.00    -0.147 F  
ENDBRANCH  24  26
ENDBRANCH  22  24
ENDBRANCH  20  22
ENDBRANCH  17  20
ENDBRANCH  12  13
ENDBRANCH   8  12
ENDBRANCH   3   6
TORSDOF 7
ENDMDL
MODEL       56
REMARK 921   NORMALIZED FREE ENERGY PREDICTED BY IDOCK:   -6.37 KCAL/MOL
REMARK 922        TOTAL FREE ENERGY PREDICTED BY IDOCK:  -10.96 KCAL/MOL
REMARK 923 INTER-LIGAND FREE ENERGY PREDICTED BY IDOCK:  -10.08 KCAL/MOL
REMARK 924 INTRA-LIGAND FREE ENERGY PREDICTED BY IDOCK:   -0.88 KCAL/MOL
REMARK 927      BINDING AFFINITY PREDICTED BY RF-SCORE:    0.00 PKD
ROOT
HETATM    1  C   UNL     1     -10.665   6.046  72.542  1.00  0.00    -0.227 C  
HETATM    2  N   UNL     1     -10.782   7.243  71.755  1.00  0.00    -0.217 N  
HETATM    3  C   UNL     1     -11.625   8.266  72.134  1.00  0.00    -0.364 C  
HETATM    4  H   UNL     1     -10.231   7.338  70.902  1.00  0.00     0.000 HD 
HETATM    5  O   UNL     1     -12.281   8.255  73.170  1.00  0.00    -0.123 OA 
ENDROOT
BRANCH   3   6
HETATM    6  C   UNL     1     -11.699   9.417  71.179  1.00  0.00    -0.345 A  
HETATM    7  C   UNL     1     -11.147   9.268  69.914  1.00  0.00    -0.200 A  
HETATM    8  C   UNL     1     -11.260  10.329  69.026  1.00  0.00    -0.208 A  
HETATM    9  C   UNL     1     -11.857  11.514  69.445  1.00  0.00    -0.417 A  
HETATM   10  N   UNL     1     -12.310  10.553  71.615  1.00  0.00    -0.334 NA 
HETATM   11  C   UNL     1     -12.365  11.575  70.734  1.00  0.00    -0.375 A  
BRANCH   8  12
HETATM   12  O   UNL     1     -10.739  10.315  67.753  1.00  0.00    -0.233 OA 
BRANCH  12  13
HETATM   13  C   UNL     1     -10.559  11.504  67.078  1.00  0.00    -0.242 A  
HETATM   14  C   UNL     1     -11.467  11.775  66.053  1.00  0.00    -0.281 A  
HETATM   15  C   UNL     1     -11.317  12.930  65.291  1.00  0.00    -0.300 A  
HETATM   16  F   UNL     1     -12.185  13.179  64.298  1.00  0.00    -0.405 F  
HETATM   17  C   UNL     1     -10.239  13.793  65.496  1.00  0.00    -0.316 A  
HETATM   18  C   UNL     1      -9.487  12.375  67.307  1.00  0.00    -0.191 A  
HETATM   19  C   UNL     1      -9.331  13.523  66.522  1.00  0.00    -0.227 A  
BRANCH  17  20
HETATM   20  N   UNL     1     -10.079  14.913  64.647  1.00  0.00    -0.401 N  
HETATM   21  H   UNL     1      -9.358  14.904  63.926  1.00  0.00     0.000 HD 
BRANCH  20  22
HETATM   22  C   UNL     1     -10.900  16.023  64.792  1.00  0.00    -0.294 C  
HETATM   23  O   UNL     1     -11.607  16.492  63.903  1.00  0.00    -1.175 OA 
BRANCH  22  24
HETATM   24  N   UNL     1     -10.809  16.541  66.070  1.00  0.00    -0.146 N  
HETATM   25  H   UNL     1     -11.358  16.117  66.817  1.00  0.00     0.000 HD 
BRANCH  24  26
HETATM   26  C   UNL     1      -9.978  17.638  66.367  1.00  0.00    -0.334 A  
HETATM   27  C   UNL     1     -10.452  18.920  66.107  1.00  0.00    -0.521 A  
HETATM   28  C   UNL     1      -9.649  20.024  66.388  1.00  0.00    -0.536 A  
HETATM   29  C   UNL     1      -8.341  19.859  66.862  1.00  0.00    -0.321 A  
HETATM   30 CL   UNL     1      -7.450  21.309  67.143  1.00  0.00    -0.164 Cl 
HETATM   31  C   UNL     1      -7.826  18.576  67.080  1.00  0.00    -0.236 A  
HETATM   32  C   UNL     1      -8.679  17.468  66.860  1.00  0.00    -0.269 A  
HETATM   33  C   UNL     1      -6.403  18.294  67.497  1.00  0.00    -0.181 C  
HETATM   34  F   UNL     1      -6.333  17.638  68.688  1.00  0.00    -0.167 F  
HETATM   35  F   UNL     1      -5.772  17.482  66.596  1.00  0.00    -0.152 F  
HETATM   36  F   UNL     1      -5.586  19.373  67.626  1.00  0.00    -0.177 F  
ENDBRANCH  24  26
ENDBRANCH  22  24
ENDBRANCH  20  22
ENDBRANCH  17  20
ENDBRANCH  12  13
ENDBRANCH   8  12
ENDBRANCH   3   6
TORSDOF 7
ENDMDL
MODEL       57
REMARK 921   NORMALIZED FREE ENERGY PREDICTED BY IDOCK:   -6.36 KCAL/MOL
REMARK 922        TOTAL FREE ENERGY PREDICTED BY IDOCK:  -10.95 KCAL/MOL
REMARK 923 INTER-LIGAND FREE ENERGY PREDICTED BY IDOCK:  -10.86 KCAL/MOL
REMARK 924 INTRA-LIGAND FREE ENERGY PREDICTED BY IDOCK:   -0.09 KCAL/MOL
REMARK 927      BINDING AFFINITY PREDICTED BY RF-SCORE:    0.00 PKD
ROOT
HETATM    1  C   UNL     1     -10.234   4.237  64.954  1.00  0.00    -0.175 C  
HETATM    2  N   UNL     1     -10.578   5.127  66.028  1.00  0.00    -0.525 N  
HETATM    3  C   UNL     1      -9.659   6.020  66.537  1.00  0.00    -0.154 C  
HETATM    4  H   UNL     1     -11.519   5.098  66.422  1.00  0.00     0.000 HD 
HETATM    5  O   UNL     1      -8.526   6.156  66.089  1.00  0.00    -0.125 OA 
ENDROOT
BRANCH   3   6
HETATM    6  C   UNL     1     -10.136   6.829  67.703  1.00  0.00    -0.161 A  
HETATM    7  C   UNL     1      -9.850   8.187  67.731  1.00  0.00    -0.209 A  
HETATM    8  C   UNL     1     -10.335   8.932  68.799  1.00  0.00    -0.211 A  
HETATM    9  C   UNL     1     -11.027   8.293  69.823  1.00  0.00    -0.132 A  
HETATM   10  N   UNL     1     -10.829   6.176  68.676  1.00  0.00    -0.309 NA 
HETATM   11  C   UNL     1     -11.250   6.929  69.716  1.00  0.00    -0.267 A  
BRANCH   8  12
HETATM   12  O   UNL     1     -10.103  10.279  68.953  1.00  0.00    -0.184 OA 
BRANCH  12  13
HETATM   13  C   UNL     1     -10.654  11.171  68.058  1.00  0.00    -0.198 A  
HETATM   14  C   UNL     1     -11.349  12.250  68.608  1.00  0.00    -0.339 A  
HETATM   15  C   UNL     1     -11.978  13.163  67.767  1.00  0.00    -0.307 A  
HETATM   16  F   UNL     1     -12.657  14.189  68.302  1.00  0.00    -0.240 F  
HETATM   17  C   UNL     1     -11.976  12.986  66.382  1.00  0.00    -0.402 A  
HETATM   18  C   UNL     1     -10.625  10.998  66.669  1.00  0.00    -0.315 A  
HETATM   19  C   UNL     1     -11.279  11.908  65.831  1.00  0.00    -0.373 A  
BRANCH  17  20
HETATM   20  N   UNL     1     -12.695  13.892  65.569  1.00  0.00    -0.611 N  
HETATM   21  H   UNL     1     -13.534  14.344  65.932  1.00  0.00     0.000 HD 
BRANCH  20  22
HETATM   22  C   UNL     1     -12.263  14.169  64.279  1.00  0.00    -0.420 C  
HETATM   23  O   UNL     1     -12.239  13.356  63.359  1.00  0.00    -0.661 OA 
BRANCH  22  24
HETATM   24  N   UNL     1     -11.853  15.485  64.169  1.00  0.00    -0.877 N  
HETATM   25  H   UNL     1     -12.275  16.078  63.455  1.00  0.00     0.000 HD 
BRANCH  24  26
HETATM   26  C   UNL     1     -10.868  16.026  65.017  1.00  0.00    -0.404 A  
HETATM   27  C   UNL     1      -9.885  15.179  65.519  1.00  0.00    -0.356 A  
HETATM   28  C   UNL     1      -8.899  15.687  66.364  1.00  0.00    -0.365 A  
HETATM   29  C   UNL     1      -8.925  17.027  66.773  1.00  0.00    -0.244 A  
HETATM   30 CL   UNL     1      -7.661  17.517  67.839  1.00  0.00    -0.199 Cl 
HETATM   31  C   UNL     1      -9.936  17.884  66.322  1.00  0.00    -0.333 A  
HETATM   32  C   UNL     1     -10.887  17.371  65.407  1.00  0.00     0.018 A  
HETATM   33  C   UNL     1     -10.103  19.312  66.780  1.00  0.00    -0.389 C  
HETATM   34  F   UNL     1     -10.017  20.199  65.750  1.00  0.00    -0.507 F  
HETATM   35  F   UNL     1     -11.337  19.515  67.334  1.00  0.00    -0.534 F  
HETATM   36  F   UNL     1      -9.223  19.754  67.716  1.00  0.00    -0.358 F  
ENDBRANCH  24  26
ENDBRANCH  22  24
ENDBRANCH  20  22
ENDBRANCH  17  20
ENDBRANCH  12  13
ENDBRANCH   8  12
ENDBRANCH   3   6
TORSDOF 7
ENDMDL
MODEL       58
REMARK 921   NORMALIZED FREE ENERGY PREDICTED BY IDOCK:   -6.36 KCAL/MOL
REMARK 922        TOTAL FREE ENERGY PREDICTED BY IDOCK:  -10.94 KCAL/MOL
REMARK 923 INTER-LIGAND FREE ENERGY PREDICTED BY IDOCK:  -10.10 KCAL/MOL
REMARK 924 INTRA-LIGAND FREE ENERGY PREDICTED BY IDOCK:   -0.85 KCAL/MOL
REMARK 927      BINDING AFFINITY PREDICTED BY RF-SCORE:    0.00 PKD
ROOT
HETATM    1  C   UNL     1      -8.849   6.899  73.041  1.00  0.00    -0.126 C  
HETATM    2  N   UNL     1      -9.418   7.909  72.192  1.00  0.00    -0.162 N  
HETATM    3  C   UNL     1     -10.759   8.223  72.258  1.00  0.00    -0.329 C  
HETATM    4  H   UNL     1      -8.820   8.403  71.530  1.00  0.00     0.000 HD 
HETATM    5  O   UNL     1     -11.536   7.716  73.060  1.00  0.00    -0.342 OA 
ENDROOT
BRANCH   3   6
HETATM    6  C   UNL     1     -11.224   9.241  71.263  1.00  0.00    -0.355 A  
HETATM    7  C   UNL     1     -10.751   9.161  69.960  1.00  0.00    -0.254 A  
HETATM    8  C   UNL     1     -11.224  10.087  69.039  1.00  0.00    -0.133 A  
HETATM    9  C   UNL     1     -12.094  11.089  69.458  1.00  0.00    -0.400 A  
HETATM   10  N   UNL     1     -12.093  10.193  71.702  1.00  0.00    -0.348 NA 
HETATM   11  C   UNL     1     -12.499  11.098  70.785  1.00  0.00    -0.384 A  
BRANCH   8  12
HETATM   12  O   UNL     1     -10.819  10.128  67.725  1.00  0.00    -0.259 OA 
BRANCH  12  13
HETATM   13  C   UNL     1     -10.615  11.347  67.114  1.00  0.00    -0.243 A  
HETATM   14  C   UNL     1     -11.522  11.694  66.111  1.00  0.00    -0.198 A  
HETATM   15  C   UNL     1     -11.349  12.885  65.411  1.00  0.00    -0.303 A  
HETATM   16  F   UNL     1     -12.215  13.206  64.438  1.00  0.00    -0.399 F  
HETATM   17  C   UNL     1     -10.250  13.711  65.655  1.00  0.00    -0.304 A  
HETATM   18  C   UNL     1      -9.523  12.181  67.384  1.00  0.00    -0.179 A  
HETATM   19  C   UNL     1      -9.344  13.365  66.660  1.00  0.00    -0.248 A  
BRANCH  17  20
HETATM   20  N   UNL     1     -10.069  14.870  64.867  1.00  0.00    -0.417 N  
HETATM   21  H   UNL     1      -9.296  14.918  64.203  1.00  0.00     0.000 HD 
BRANCH  20  22
HETATM   22  C   UNL     1     -10.940  15.945  64.992  1.00  0.00    -0.412 C  
HETATM   23  O   UNL     1     -11.525  16.485  64.056  1.00  0.00    -1.137 OA 
BRANCH  22  24
HETATM   24  N   UNL     1     -11.054  16.336  66.313  1.00  0.00     0.027 N  
HETATM   25  H   UNL     1     -11.923  16.149  66.812  1.00  0.00     0.000 HD 
BRANCH  24  26
HETATM   26  C   UNL     1     -10.001  16.985  66.986  1.00  0.00    -0.288 A  
HETATM   27  C   UNL     1      -9.401  16.338  68.061  1.00  0.00    -0.214 A  
HETATM   28  C   UNL     1      -8.358  16.960  68.748  1.00  0.00    -0.240 A  
HETATM   29  C   UNL     1      -7.953  18.259  68.415  1.00  0.00    -0.306 A  
HETATM   30 CL   UNL     1      -6.671  18.918  69.362  1.00  0.00    -0.304 Cl 
HETATM   31  C   UNL     1      -8.580  18.949  67.371  1.00  0.00    -0.293 A  
HETATM   32  C   UNL     1      -9.586  18.276  66.636  1.00  0.00    -0.315 A  
HETATM   33  C   UNL     1      -8.280  20.381  67.001  1.00  0.00    -0.292 C  
HETATM   34  F   UNL     1      -7.830  20.502  65.722  1.00  0.00    -0.195 F  
HETATM   35  F   UNL     1      -9.404  21.157  67.067  1.00  0.00    -0.419 F  
HETATM   36  F   UNL     1      -7.366  21.026  67.772  1.00  0.00    -0.329 F  
ENDBRANCH  24  26
ENDBRANCH  22  24
ENDBRANCH  20  22
ENDBRANCH  17  20
ENDBRANCH  12  13
ENDBRANCH   8  12
ENDBRANCH   3   6
TORSDOF 7
ENDMDL
MODEL       59
REMARK 921   NORMALIZED FREE ENERGY PREDICTED BY IDOCK:   -6.36 KCAL/MOL
REMARK 922        TOTAL FREE ENERGY PREDICTED BY IDOCK:  -10.94 KCAL/MOL
REMARK 923 INTER-LIGAND FREE ENERGY PREDICTED BY IDOCK:   -9.93 KCAL/MOL
REMARK 924 INTRA-LIGAND FREE ENERGY PREDICTED BY IDOCK:   -1.02 KCAL/MOL
REMARK 927      BINDING AFFINITY PREDICTED BY RF-SCORE:    0.00 PKD
ROOT
HETATM    1  C   UNL     1      -9.880   2.319  63.833  1.00  0.00    -0.139 C  
HETATM    2  N   UNL     1     -10.174   3.454  64.664  1.00  0.00    -0.384 N  
HETATM    3  C   UNL     1      -9.183   4.333  65.047  1.00  0.00    -0.155 C  
HETATM    4  H   UNL     1     -11.132   3.613  64.975  1.00  0.00     0.000 HD 
HETATM    5  O   UNL     1      -8.018   4.245  64.675  1.00  0.00    -0.087 OA 
ENDROOT
BRANCH   3   6
HETATM    6  C   UNL     1      -9.624   5.425  65.972  1.00  0.00    -0.131 A  
HETATM    7  C   UNL     1      -9.031   6.674  65.856  1.00  0.00    -0.096 A  
HETATM    8  C   UNL     1      -9.479   7.687  66.694  1.00  0.00    -0.198 A  
HETATM    9  C   UNL     1     -10.449   7.407  67.651  1.00  0.00    -0.310 A  
HETATM   10  N   UNL     1     -10.591   5.121  66.882  1.00  0.00    -0.224 NA 
HETATM   11  C   UNL     1     -10.972   6.124  67.703  1.00  0.00    -0.302 A  
BRANCH   8  12
HETATM   12  O   UNL     1      -8.960   8.961  66.692  1.00  0.00    -0.127 OA 
BRANCH  12  13
HETATM   13  C   UNL     1      -9.723  10.006  66.216  1.00  0.00    -0.214 A  
HETATM   14  C   UNL     1     -10.395  10.767  67.174  1.00  0.00    -0.269 A  
HETATM   15  C   UNL     1     -11.227  11.805  66.766  1.00  0.00    -0.328 A  
HETATM   16  F   UNL     1     -11.882  12.524  67.691  1.00  0.00    -0.371 F  
HETATM   17  C   UNL     1     -11.448  12.061  65.412  1.00  0.00    -0.305 A  
HETATM   18  C   UNL     1      -9.918  10.270  64.855  1.00  0.00    -0.393 A  
HETATM   19  C   UNL     1     -10.775  11.301  64.453  1.00  0.00    -0.407 A  
BRANCH  17  20
HETATM   20  N   UNL     1     -12.363  13.072  65.040  1.00  0.00    -0.450 N  
HETATM   21  H   UNL     1     -13.356  12.960  65.248  1.00  0.00     0.000 HD 
BRANCH  20  22
HETATM   22  C   UNL     1     -11.917  14.218  64.395  1.00  0.00    -0.456 C  
HETATM   23  O   UNL     1     -12.517  14.789  63.488  1.00  0.00    -0.642 OA 
BRANCH  22  24
HETATM   24  N   UNL     1     -10.698  14.626  64.902  1.00  0.00    -0.469 N  
HETATM   25  H   UNL     1      -9.843  14.206  64.538  1.00  0.00     0.000 HD 
BRANCH  24  26
HETATM   26  C   UNL     1     -10.606  15.607  65.908  1.00  0.00    -0.343 A  
HETATM   27  C   UNL     1      -9.981  16.813  65.605  1.00  0.00    -0.163 A  
HETATM   28  C   UNL     1      -9.873  17.800  66.584  1.00  0.00    -0.322 A  
HETATM   29  C   UNL     1     -10.323  17.569  67.890  1.00  0.00    -0.371 A  
HETATM   30 CL   UNL     1     -10.104  18.865  69.007  1.00  0.00    -0.403 Cl 
HETATM   31  C   UNL     1     -10.907  16.343  68.230  1.00  0.00    -0.347 A  
HETATM   32  C   UNL     1     -11.076  15.378  67.207  1.00  0.00    -0.302 A  
HETATM   33  C   UNL     1     -11.333  15.965  69.627  1.00  0.00    -0.342 C  
HETATM   34  F   UNL     1     -12.665  15.694  69.707  1.00  0.00    -0.333 F  
HETATM   35  F   UNL     1     -10.704  14.827  70.048  1.00  0.00    -0.252 F  
HETATM   36  F   UNL     1     -11.088  16.880  70.602  1.00  0.00    -0.293 F  
ENDBRANCH  24  26
ENDBRANCH  22  24
ENDBRANCH  20  22
ENDBRANCH  17  20
ENDBRANCH  12  13
ENDBRANCH   8  12
ENDBRANCH   3   6
TORSDOF 7
ENDMDL
MODEL       60
REMARK 921   NORMALIZED FREE ENERGY PREDICTED BY IDOCK:   -6.35 KCAL/MOL
REMARK 922        TOTAL FREE ENERGY PREDICTED BY IDOCK:  -10.93 KCAL/MOL
REMARK 923 INTER-LIGAND FREE ENERGY PREDICTED BY IDOCK:   -9.75 KCAL/MOL
REMARK 924 INTRA-LIGAND FREE ENERGY PREDICTED BY IDOCK:   -1.18 KCAL/MOL
REMARK 927      BINDING AFFINITY PREDICTED BY RF-SCORE:    0.00 PKD
ROOT
HETATM    1  C   UNL     1      -5.485   8.451  72.870  1.00  0.00    -0.055 C  
HETATM    2  N   UNL     1      -6.833   8.436  72.374  1.00  0.00    -0.095 N  
HETATM    3  C   UNL     1      -7.901   8.221  73.219  1.00  0.00    -0.137 C  
HETATM    4  H   UNL     1      -7.004   8.586  71.380  1.00  0.00     0.000 HD 
HETATM    5  O   UNL     1      -7.789   8.084  74.433  1.00  0.00    -0.198 OA 
ENDROOT
BRANCH   3   6
HETATM    6  C   UNL     1      -9.239   8.158  72.551  1.00  0.00    -0.251 A  
HETATM    7  C   UNL     1      -9.389   8.750  71.304  1.00  0.00    -0.319 A  
HETATM    8  C   UNL     1     -10.625   8.647  70.679  1.00  0.00    -0.211 A  
HETATM    9  C   UNL     1     -11.677   8.018  71.338  1.00  0.00    -0.320 A  
HETATM   10  N   UNL     1     -10.240   7.516  73.215  1.00  0.00    -0.319 NA 
HETATM   11  C   UNL     1     -11.437   7.470  72.589  1.00  0.00    -0.319 A  
BRANCH   8  12
HETATM   12  O   UNL     1     -10.907   9.206  69.454  1.00  0.00    -0.219 OA 
BRANCH  12  13
HETATM   13  C   UNL     1     -11.338  10.514  69.387  1.00  0.00    -0.269 A  
HETATM   14  C   UNL     1     -11.058  11.196  68.201  1.00  0.00    -0.324 A  
HETATM   15  C   UNL     1     -11.414  12.536  68.079  1.00  0.00    -0.317 A  
HETATM   16  F   UNL     1     -11.129  13.191  66.943  1.00  0.00    -0.264 F  
HETATM   17  C   UNL     1     -11.993  13.227  69.145  1.00  0.00    -0.296 A  
HETATM   18  C   UNL     1     -11.941  11.191  70.453  1.00  0.00    -0.469 A  
HETATM   19  C   UNL     1     -12.276  12.544  70.331  1.00  0.00    -0.368 A  
BRANCH  17  20
HETATM   20  N   UNL     1     -12.266  14.607  69.007  1.00  0.00    -0.562 N  
HETATM   21  H   UNL     1     -12.624  14.968  68.122  1.00  0.00     0.000 HD 
BRANCH  20  22
HETATM   22  C   UNL     1     -12.049  15.474  70.070  1.00  0.00    -0.368 C  
HETATM   23  O   UNL     1     -12.931  15.934  70.790  1.00  0.00    -0.475 OA 
BRANCH  22  24
HETATM   24  N   UNL     1     -10.703  15.761  70.204  1.00  0.00    -0.331 N  
HETATM   25  H   UNL     1     -10.261  15.649  71.116  1.00  0.00     0.000 HD 
BRANCH  24  26
HETATM   26  C   UNL     1      -9.929  16.205  69.115  1.00  0.00    -0.251 A  
HETATM   27  C   UNL     1      -8.848  15.429  68.709  1.00  0.00    -0.196 A  
HETATM   28  C   UNL     1      -8.062  15.846  67.636  1.00  0.00    -0.160 A  
HETATM   29  C   UNL     1      -8.302  17.073  67.004  1.00  0.00    -0.203 A  
HETATM   30 CL   UNL     1      -7.238  17.478  65.708  1.00  0.00    -0.190 Cl 
HETATM   31  C   UNL     1      -9.352  17.894  67.431  1.00  0.00    -0.257 A  
HETATM   32  C   UNL     1     -10.187  17.423  68.474  1.00  0.00    -0.369 A  
HETATM   33  C   UNL     1      -9.630  19.271  66.879  1.00  0.00    -0.331 C  
HETATM   34  F   UNL     1     -10.869  19.364  66.319  1.00  0.00    -0.495 F  
HETATM   35  F   UNL     1      -9.605  20.217  67.866  1.00  0.00    -0.450 F  
HETATM   36  F   UNL     1      -8.768  19.729  65.933  1.00  0.00    -0.365 F  
ENDBRANCH  24  26
ENDBRANCH  22  24
ENDBRANCH  20  22
ENDBRANCH  17  20
ENDBRANCH  12  13
ENDBRANCH   8  12
ENDBRANCH   3   6
TORSDOF 7
ENDMDL
MODEL       61
REMARK 921   NORMALIZED FREE ENERGY PREDICTED BY IDOCK:   -6.33 KCAL/MOL
REMARK 922        TOTAL FREE ENERGY PREDICTED BY IDOCK:  -10.90 KCAL/MOL
REMARK 923 INTER-LIGAND FREE ENERGY PREDICTED BY IDOCK:  -10.05 KCAL/MOL
REMARK 924 INTRA-LIGAND FREE ENERGY PREDICTED BY IDOCK:   -0.86 KCAL/MOL
REMARK 927      BINDING AFFINITY PREDICTED BY RF-SCORE:    0.00 PKD
ROOT
HETATM    1  C   UNL     1      -6.595   6.332  72.169  1.00  0.00    -0.059 C  
HETATM    2  N   UNL     1      -8.014   6.457  71.980  1.00  0.00    -0.107 N  
HETATM    3  C   UNL     1      -8.649   7.672  72.127  1.00  0.00    -0.118 C  
HETATM    4  H   UNL     1      -8.561   5.633  71.732  1.00  0.00     0.000 HD 
HETATM    5  O   UNL     1      -8.060   8.720  72.372  1.00  0.00    -0.368 OA 
ENDROOT
BRANCH   3   6
HETATM    6  C   UNL     1     -10.138   7.635  71.973  1.00  0.00    -0.188 A  
HETATM    7  C   UNL     1     -10.841   8.831  72.016  1.00  0.00    -0.428 A  
HETATM    8  C   UNL     1     -12.217   8.783  71.831  1.00  0.00    -0.361 A  
HETATM    9  C   UNL     1     -12.846   7.552  71.673  1.00  0.00    -0.392 A  
HETATM   10  N   UNL     1     -10.718   6.415  71.799  1.00  0.00    -0.227 NA 
HETATM   11  C   UNL     1     -12.062   6.409  71.660  1.00  0.00    -0.262 A  
BRANCH   8  12
HETATM   12  O   UNL     1     -13.028   9.894  71.871  1.00  0.00    -0.399 OA 
BRANCH  12  13
HETATM   13  C   UNL     1     -12.742  10.975  71.066  1.00  0.00    -0.386 A  
HETATM   14  C   UNL     1     -12.248  10.683  69.793  1.00  0.00    -0.318 A  
HETATM   15  C   UNL     1     -11.885  11.723  68.942  1.00  0.00    -0.320 A  
HETATM   16  F   UNL     1     -11.397  11.436  67.725  1.00  0.00    -0.270 F  
HETATM   17  C   UNL     1     -11.951  13.053  69.361  1.00  0.00    -0.281 A  
HETATM   18  C   UNL     1     -12.835  12.307  71.487  1.00  0.00    -0.384 A  
HETATM   19  C   UNL     1     -12.447  13.346  70.634  1.00  0.00    -0.385 A  
BRANCH  17  20
HETATM   20  N   UNL     1     -11.497  14.073  68.495  1.00  0.00    -0.282 N  
HETATM   21  H   UNL     1     -12.165  14.578  67.911  1.00  0.00     0.000 HD 
BRANCH  20  22
HETATM   22  C   UNL     1     -10.147  14.392  68.434  1.00  0.00    -0.244 C  
HETATM   23  O   UNL     1      -9.328  13.834  67.708  1.00  0.00    -0.198 OA 
BRANCH  22  24
HETATM   24  N   UNL     1      -9.843  15.417  69.309  1.00  0.00    -0.246 N  
HETATM   25  H   UNL     1     -10.101  15.324  70.291  1.00  0.00     0.000 HD 
BRANCH  24  26
HETATM   26  C   UNL     1      -9.185  16.586  68.880  1.00  0.00    -0.258 A  
HETATM   27  C   UNL     1      -7.795  16.622  68.929  1.00  0.00    -0.240 A  
HETATM   28  C   UNL     1      -7.119  17.768  68.513  1.00  0.00    -0.245 A  
HETATM   29  C   UNL     1      -7.822  18.912  68.113  1.00  0.00    -0.297 A  
HETATM   30 CL   UNL     1      -6.860  20.267  67.649  1.00  0.00    -0.290 Cl 
HETATM   31  C   UNL     1      -9.221  18.915  68.106  1.00  0.00    -0.361 A  
HETATM   32  C   UNL     1      -9.893  17.720  68.461  1.00  0.00    -0.355 A  
HETATM   33  C   UNL     1     -10.065  20.124  67.785  1.00  0.00    -0.400 C  
HETATM   34  F   UNL     1     -10.873  19.919  66.708  1.00  0.00    -0.561 F  
HETATM   35  F   UNL     1     -10.906  20.433  68.818  1.00  0.00    -0.343 F  
HETATM   36  F   UNL     1      -9.394  21.277  67.523  1.00  0.00    -0.474 F  
ENDBRANCH  24  26
ENDBRANCH  22  24
ENDBRANCH  20  22
ENDBRANCH  17  20
ENDBRANCH  12  13
ENDBRANCH   8  12
ENDBRANCH   3   6
TORSDOF 7
ENDMDL
MODEL       62
REMARK 921   NORMALIZED FREE ENERGY PREDICTED BY IDOCK:   -6.31 KCAL/MOL
REMARK 922        TOTAL FREE ENERGY PREDICTED BY IDOCK:  -10.88 KCAL/MOL
REMARK 923 INTER-LIGAND FREE ENERGY PREDICTED BY IDOCK:   -9.56 KCAL/MOL
REMARK 924 INTRA-LIGAND FREE ENERGY PREDICTED BY IDOCK:   -1.32 KCAL/MOL
REMARK 927      BINDING AFFINITY PREDICTED BY RF-SCORE:    0.00 PKD
ROOT
HETATM    1  C   UNL     1     -10.448  19.764  65.655  1.00  0.00    -0.361 C  
HETATM    2  N   UNL     1     -10.237  18.526  66.354  1.00  0.00    -0.400 N  
HETATM    3  C   UNL     1     -10.575  17.318  65.783  1.00  0.00    -0.194 C  
HETATM    4  H   UNL     1      -9.831  18.542  67.289  1.00  0.00     0.000 HD 
HETATM    5  O   UNL     1     -11.020  17.206  64.645  1.00  0.00    -1.005 OA 
ENDROOT
BRANCH   3   6
HETATM    6  C   UNL     1     -10.369  16.120  66.657  1.00  0.00    -0.296 A  
HETATM    7  C   UNL     1     -11.227  15.039  66.517  1.00  0.00    -0.312 A  
HETATM    8  C   UNL     1     -10.998  13.919  67.307  1.00  0.00    -0.290 A  
HETATM    9  C   UNL     1      -9.969  13.940  68.244  1.00  0.00    -0.238 A  
HETATM   10  N   UNL     1      -9.340  16.167  67.548  1.00  0.00    -0.216 NA 
HETATM   11  C   UNL     1      -9.174  15.073  68.324  1.00  0.00    -0.184 A  
BRANCH   8  12
HETATM   12  O   UNL     1     -11.787  12.793  67.277  1.00  0.00    -0.368 OA 
BRANCH  12  13
HETATM   13  C   UNL     1     -11.208  11.563  67.046  1.00  0.00    -0.300 A  
HETATM   14  C   UNL     1     -10.668  11.363  65.774  1.00  0.00    -0.309 A  
HETATM   15  C   UNL     1     -10.115  10.129  65.449  1.00  0.00    -0.272 A  
HETATM   16  F   UNL     1      -9.611   9.938  64.220  1.00  0.00    -0.323 F  
HETATM   17  C   UNL     1     -10.144   9.066  66.354  1.00  0.00    -0.281 A  
HETATM   18  C   UNL     1     -11.220  10.511  67.970  1.00  0.00    -0.361 A  
HETATM   19  C   UNL     1     -10.682   9.265  67.627  1.00  0.00    -0.276 A  
BRANCH  17  20
HETATM   20  N   UNL     1      -9.643   7.805  65.955  1.00  0.00    -0.424 N  
HETATM   21  H   UNL     1      -9.905   7.419  65.047  1.00  0.00     0.000 HD 
BRANCH  20  22
HETATM   22  C   UNL     1      -8.797   7.091  66.792  1.00  0.00    -0.126 C  
HETATM   23  O   UNL     1      -7.725   7.507  67.224  1.00  0.00    -0.111 OA 
BRANCH  22  24
HETATM   24  N   UNL     1      -9.317   5.840  67.067  1.00  0.00    -0.117 N  
HETATM   25  H   UNL     1      -9.547   5.217  66.294  1.00  0.00     0.000 HD 
BRANCH  24  26
HETATM   26  C   UNL     1      -9.537   5.405  68.388  1.00  0.00    -0.129 A  
HETATM   27  C   UNL     1      -8.988   4.191  68.788  1.00  0.00    -0.160 A  
HETATM   28  C   UNL     1      -9.193   3.734  70.089  1.00  0.00    -0.218 A  
HETATM   29  C   UNL     1     -10.005   4.448  70.981  1.00  0.00    -0.172 A  
HETATM   30 CL   UNL     1     -10.195   3.756  72.550  1.00  0.00    -0.236 Cl 
HETATM   31  C   UNL     1     -10.610   5.645  70.582  1.00  0.00    -0.347 A  
HETATM   32  C   UNL     1     -10.332   6.133  69.282  1.00  0.00    -0.276 A  
HETATM   33  C   UNL     1     -11.574   6.432  71.435  1.00  0.00    -0.311 C  
HETATM   34  F   UNL     1     -11.128   7.693  71.692  1.00  0.00    -0.238 F  
HETATM   35  F   UNL     1     -12.778   6.593  70.807  1.00  0.00    -0.390 F  
HETATM   36  F   UNL     1     -11.881   5.901  72.648  1.00  0.00    -0.325 F  
ENDBRANCH  24  26
ENDBRANCH  22  24
ENDBRANCH  20  22
ENDBRANCH  17  20
ENDBRANCH  12  13
ENDBRANCH   8  12
ENDBRANCH   3   6
TORSDOF 7
ENDMDL
MODEL       63
REMARK 921   NORMALIZED FREE ENERGY PREDICTED BY IDOCK:   -6.30 KCAL/MOL
REMARK 922        TOTAL FREE ENERGY PREDICTED BY IDOCK:  -10.87 KCAL/MOL
REMARK 923 INTER-LIGAND FREE ENERGY PREDICTED BY IDOCK:  -10.03 KCAL/MOL
REMARK 924 INTRA-LIGAND FREE ENERGY PREDICTED BY IDOCK:   -0.83 KCAL/MOL
REMARK 927      BINDING AFFINITY PREDICTED BY RF-SCORE:    0.00 PKD
ROOT
HETATM    1  C   UNL     1     -10.155   4.684  70.228  1.00  0.00    -0.206 C  
HETATM    2  N   UNL     1     -10.681   6.020  70.165  1.00  0.00    -0.282 N  
HETATM    3  C   UNL     1     -10.538   6.893  71.222  1.00  0.00    -0.220 C  
HETATM    4  H   UNL     1     -11.169   6.327  69.323  1.00  0.00     0.000 HD 
HETATM    5  O   UNL     1      -9.923   6.622  72.247  1.00  0.00    -0.167 OA 
ENDROOT
BRANCH   3   6
HETATM    6  C   UNL     1     -11.202   8.224  71.042  1.00  0.00    -0.259 A  
HETATM    7  C   UNL     1     -10.498   9.237  70.407  1.00  0.00    -0.296 A  
HETATM    8  C   UNL     1     -11.141  10.452  70.212  1.00  0.00    -0.307 A  
HETATM    9  C   UNL     1     -12.429  10.634  70.707  1.00  0.00    -0.480 A  
HETATM   10  N   UNL     1     -12.470   8.359  71.519  1.00  0.00    -0.307 NA 
HETATM   11  C   UNL     1     -13.047   9.568  71.343  1.00  0.00    -0.370 A  
BRANCH   8  12
HETATM   12  O   UNL     1     -10.547  11.541  69.615  1.00  0.00    -0.027 OA 
BRANCH  12  13
HETATM   13  C   UNL     1     -11.184  12.175  68.570  1.00  0.00    -0.260 A  
HETATM   14  C   UNL     1     -11.069  11.569  67.317  1.00  0.00    -0.351 A  
HETATM   15  C   UNL     1     -11.639  12.179  66.204  1.00  0.00    -0.354 A  
HETATM   16  F   UNL     1     -11.512  11.599  65.001  1.00  0.00    -0.354 F  
HETATM   17  C   UNL     1     -12.275  13.418  66.309  1.00  0.00    -0.398 A  
HETATM   18  C   UNL     1     -11.841  13.405  68.690  1.00  0.00    -0.397 A  
HETATM   19  C   UNL     1     -12.393  14.023  67.562  1.00  0.00    -0.112 A  
BRANCH  17  20
HETATM   20  N   UNL     1     -12.770  14.040  65.140  1.00  0.00    -0.685 N  
HETATM   21  H   UNL     1     -13.678  13.766  64.764  1.00  0.00     0.000 HD 
BRANCH  20  22
HETATM   22  C   UNL     1     -12.027  15.024  64.501  1.00  0.00    -0.371 C  
HETATM   23  O   UNL     1     -12.490  15.865  63.735  1.00  0.00    -0.735 OA 
BRANCH  22  24
HETATM   24  N   UNL     1     -10.689  14.925  64.835  1.00  0.00    -0.496 N  
HETATM   25  H   UNL     1     -10.129  14.177  64.426  1.00  0.00     0.000 HD 
BRANCH  24  26
HETATM   26  C   UNL     1     -10.079  15.830  65.725  1.00  0.00    -0.371 A  
HETATM   27  C   UNL     1     -10.571  17.129  65.791  1.00  0.00    -0.201 A  
HETATM   28  C   UNL     1      -9.983  18.047  66.661  1.00  0.00    -0.362 A  
HETATM   29  C   UNL     1      -8.858  17.699  67.419  1.00  0.00    -0.235 A  
HETATM   30 CL   UNL     1      -8.217  18.938  68.434  1.00  0.00    -0.362 Cl 
HETATM   31  C   UNL     1      -8.315  16.413  67.328  1.00  0.00    -0.200 A  
HETATM   32  C   UNL     1      -8.967  15.470  66.496  1.00  0.00    -0.348 A  
HETATM   33  C   UNL     1      -7.053  15.974  68.029  1.00  0.00    -0.132 C  
HETATM   34  F   UNL     1      -7.270  14.937  68.886  1.00  0.00    -0.101 F  
HETATM   35  F   UNL     1      -6.120  15.520  67.138  1.00  0.00    -0.146 F  
HETATM   36  F   UNL     1      -6.406  16.920  68.760  1.00  0.00    -0.144 F  
ENDBRANCH  24  26
ENDBRANCH  22  24
ENDBRANCH  20  22
ENDBRANCH  17  20
ENDBRANCH  12  13
ENDBRANCH   8  12
ENDBRANCH   3   6
TORSDOF 7
ENDMDL
MODEL       64
REMARK 921   NORMALIZED FREE ENERGY PREDICTED BY IDOCK:   -6.28 KCAL/MOL
REMARK 922        TOTAL FREE ENERGY PREDICTED BY IDOCK:  -10.84 KCAL/MOL
REMARK 923 INTER-LIGAND FREE ENERGY PREDICTED BY IDOCK:   -9.62 KCAL/MOL
REMARK 924 INTRA-LIGAND FREE ENERGY PREDICTED BY IDOCK:   -1.23 KCAL/MOL
REMARK 927      BINDING AFFINITY PREDICTED BY RF-SCORE:    0.00 PKD
ROOT
HETATM    1  C   UNL     1     -11.032   4.997  73.393  1.00  0.00    -0.327 C  
HETATM    2  N   UNL     1     -10.901   5.344  72.004  1.00  0.00    -0.225 N  
HETATM    3  C   UNL     1     -10.415   6.575  71.620  1.00  0.00    -0.213 C  
HETATM    4  H   UNL     1     -11.172   4.668  71.291  1.00  0.00     0.000 HD 
HETATM    5  O   UNL     1     -10.018   7.425  72.410  1.00  0.00    -0.170 OA 
ENDROOT
BRANCH   3   6
HETATM    6  C   UNL     1     -10.405   6.823  70.143  1.00  0.00    -0.202 A  
HETATM    7  C   UNL     1      -9.743   7.944  69.661  1.00  0.00    -0.173 A  
HETATM    8  C   UNL     1      -9.708   8.138  68.287  1.00  0.00    -0.161 A  
HETATM    9  C   UNL     1     -10.380   7.251  67.451  1.00  0.00    -0.330 A  
HETATM   10  N   UNL     1     -11.054   5.923  69.354  1.00  0.00    -0.357 NA 
HETATM   11  C   UNL     1     -11.029   6.168  68.026  1.00  0.00    -0.305 A  
BRANCH   8  12
HETATM   12  O   UNL     1      -9.103   9.218  67.686  1.00  0.00    -0.125 OA 
BRANCH  12  13
HETATM   13  C   UNL     1      -9.854  10.068  66.901  1.00  0.00    -0.197 A  
HETATM   14  C   UNL     1      -9.692   9.938  65.520  1.00  0.00    -0.370 A  
HETATM   15  C   UNL     1     -10.374  10.797  64.665  1.00  0.00    -0.324 A  
HETATM   16  F   UNL     1     -10.204  10.677  63.339  1.00  0.00    -0.372 F  
HETATM   17  C   UNL     1     -11.174  11.826  65.166  1.00  0.00    -0.250 A  
HETATM   18  C   UNL     1     -10.672  11.081  67.413  1.00  0.00    -0.303 A  
HETATM   19  C   UNL     1     -11.338  11.955  66.547  1.00  0.00    -0.403 A  
BRANCH  17  20
HETATM   20  N   UNL     1     -11.786  12.726  64.264  1.00  0.00    -0.368 N  
HETATM   21  H   UNL     1     -11.958  12.440  63.299  1.00  0.00     0.000 HD 
BRANCH  20  22
HETATM   22  C   UNL     1     -12.154  13.997  64.684  1.00  0.00    -0.440 C  
HETATM   23  O   UNL     1     -13.225  14.276  65.216  1.00  0.00    -0.704 OA 
BRANCH  22  24
HETATM   24  N   UNL     1     -11.155  14.914  64.414  1.00  0.00    -0.645 N  
HETATM   25  H   UNL     1     -10.765  14.959  63.473  1.00  0.00     0.000 HD 
BRANCH  24  26
HETATM   26  C   UNL     1     -10.664  15.786  65.404  1.00  0.00    -0.404 A  
HETATM   27  C   UNL     1     -10.815  17.156  65.217  1.00  0.00    -0.043 A  
HETATM   28  C   UNL     1     -10.335  18.043  66.180  1.00  0.00    -0.368 A  
HETATM   29  C   UNL     1      -9.636  17.576  67.301  1.00  0.00    -0.273 A  
HETATM   30 CL   UNL     1      -9.074  18.782  68.399  1.00  0.00    -0.356 Cl 
HETATM   31  C   UNL     1      -9.426  16.204  67.481  1.00  0.00    -0.223 A  
HETATM   32  C   UNL     1      -9.984  15.313  66.533  1.00  0.00    -0.278 A  
HETATM   33  C   UNL     1      -8.606  15.612  68.602  1.00  0.00    -0.188 C  
HETATM   34  F   UNL     1      -9.336  14.775  69.390  1.00  0.00    -0.178 F  
HETATM   35  F   UNL     1      -7.577  14.853  68.118  1.00  0.00    -0.098 F  
HETATM   36  F   UNL     1      -8.019  16.494  69.453  1.00  0.00    -0.242 F  
ENDBRANCH  24  26
ENDBRANCH  22  24
ENDBRANCH  20  22
ENDBRANCH  17  20
ENDBRANCH  12  13
ENDBRANCH   8  12
ENDBRANCH   3   6
TORSDOF 7
ENDMDL
MODEL       65
REMARK 921   NORMALIZED FREE ENERGY PREDICTED BY IDOCK:   -6.26 KCAL/MOL
REMARK 922        TOTAL FREE ENERGY PREDICTED BY IDOCK:  -10.81 KCAL/MOL
REMARK 923 INTER-LIGAND FREE ENERGY PREDICTED BY IDOCK:   -9.63 KCAL/MOL
REMARK 924 INTRA-LIGAND FREE ENERGY PREDICTED BY IDOCK:   -1.19 KCAL/MOL
REMARK 927      BINDING AFFINITY PREDICTED BY RF-SCORE:    0.00 PKD
ROOT
HETATM    1  C   UNL     1     -13.525  15.822  73.215  1.00  0.00    -0.487 C  
HETATM    2  N   UNL     1     -13.204  15.151  71.986  1.00  0.00    -0.348 N  
HETATM    3  C   UNL     1     -12.175  15.591  71.181  1.00  0.00    -0.396 C  
HETATM    4  H   UNL     1     -13.747  14.334  71.704  1.00  0.00     0.000 HD 
HETATM    5  O   UNL     1     -11.442  16.530  71.470  1.00  0.00    -0.342 OA 
ENDROOT
BRANCH   3   6
HETATM    6  C   UNL     1     -12.006  14.839  69.897  1.00  0.00    -0.328 A  
HETATM    7  C   UNL     1     -12.083  13.454  69.921  1.00  0.00    -0.389 A  
HETATM    8  C   UNL     1     -11.965  12.774  68.716  1.00  0.00    -0.240 A  
HETATM    9  C   UNL     1     -11.714  13.487  67.548  1.00  0.00    -0.403 A  
HETATM   10  N   UNL     1     -11.783  15.571  68.769  1.00  0.00    -0.362 NA 
HETATM   11  C   UNL     1     -11.636  14.869  67.624  1.00  0.00    -0.339 A  
BRANCH   8  12
HETATM   12  O   UNL     1     -12.004  11.403  68.609  1.00  0.00    -0.452 OA 
BRANCH  12  13
HETATM   13  C   UNL     1     -11.896  10.629  69.745  1.00  0.00    -0.304 A  
HETATM   14  C   UNL     1     -10.605  10.236  70.104  1.00  0.00    -0.303 A  
HETATM   15  C   UNL     1     -10.421   9.409  71.208  1.00  0.00    -0.315 A  
HETATM   16  F   UNL     1      -9.180   9.023  71.540  1.00  0.00    -0.277 F  
HETATM   17  C   UNL     1     -11.512   8.916  71.928  1.00  0.00    -0.372 A  
HETATM   18  C   UNL     1     -12.995  10.160  70.475  1.00  0.00    -0.214 A  
HETATM   19  C   UNL     1     -12.803   9.310  71.570  1.00  0.00    -0.427 A  
BRANCH  17  20
HETATM   20  N   UNL     1     -11.285   8.014  72.993  1.00  0.00    -0.385 N  
HETATM   21  H   UNL     1     -11.542   8.277  73.944  1.00  0.00     0.000 HD 
BRANCH  20  22
HETATM   22  C   UNL     1     -10.713   6.772  72.749  1.00  0.00    -0.246 C  
HETATM   23  O   UNL     1      -9.691   6.355  73.287  1.00  0.00    -0.156 OA 
BRANCH  22  24
HETATM   24  N   UNL     1     -11.444   6.069  71.810  1.00  0.00    -0.280 N  
HETATM   25  H   UNL     1     -12.404   5.803  72.027  1.00  0.00     0.000 HD 
BRANCH  24  26
HETATM   26  C   UNL     1     -10.897   5.710  70.563  1.00  0.00    -0.244 A  
HETATM   27  C   UNL     1     -11.242   6.462  69.445  1.00  0.00    -0.459 A  
HETATM   28  C   UNL     1     -10.717   6.127  68.198  1.00  0.00    -0.367 A  
HETATM   29  C   UNL     1      -9.902   4.999  68.041  1.00  0.00    -0.149 A  
HETATM   30 CL   UNL     1      -9.343   4.686  66.439  1.00  0.00    -0.138 Cl 
HETATM   31  C   UNL     1      -9.585   4.198  69.144  1.00  0.00    -0.243 A  
HETATM   32  C   UNL     1     -10.065   4.593  70.416  1.00  0.00    -0.275 A  
HETATM   33  C   UNL     1      -8.796   2.915  69.060  1.00  0.00    -0.098 C  
HETATM   34  F   UNL     1      -7.651   2.961  69.797  1.00  0.00    -0.044 F  
HETATM   35  F   UNL     1      -9.508   1.860  69.561  1.00  0.00    -0.163 F  
HETATM   36  F   UNL     1      -8.414   2.520  67.817  1.00  0.00    -0.078 F  
ENDBRANCH  24  26
ENDBRANCH  22  24
ENDBRANCH  20  22
ENDBRANCH  17  20
ENDBRANCH  12  13
ENDBRANCH   8  12
ENDBRANCH   3   6
TORSDOF 7
ENDMDL
MODEL       66
REMARK 921   NORMALIZED FREE ENERGY PREDICTED BY IDOCK:   -6.26 KCAL/MOL
REMARK 922        TOTAL FREE ENERGY PREDICTED BY IDOCK:  -10.81 KCAL/MOL
REMARK 923 INTER-LIGAND FREE ENERGY PREDICTED BY IDOCK:  -10.37 KCAL/MOL
REMARK 924 INTRA-LIGAND FREE ENERGY PREDICTED BY IDOCK:   -0.43 KCAL/MOL
REMARK 927      BINDING AFFINITY PREDICTED BY RF-SCORE:    0.00 PKD
ROOT
HETATM    1  C   UNL     1     -11.334   6.430  70.685  1.00  0.00    -0.357 C  
HETATM    2  N   UNL     1     -11.047   7.189  69.500  1.00  0.00    -0.419 N  
HETATM    3  C   UNL     1      -9.752   7.362  69.060  1.00  0.00    -0.160 C  
HETATM    4  H   UNL     1     -11.815   7.607  68.974  1.00  0.00     0.000 HD 
HETATM    5  O   UNL     1      -8.777   6.852  69.602  1.00  0.00    -0.139 OA 
ENDROOT
BRANCH   3   6
HETATM    6  C   UNL     1      -9.601   8.238  67.855  1.00  0.00    -0.152 A  
HETATM    7  C   UNL     1     -10.586   9.179  67.589  1.00  0.00    -0.307 A  
HETATM    8  C   UNL     1     -10.411  10.011  66.491  1.00  0.00    -0.198 A  
HETATM    9  C   UNL     1      -9.302   9.837  65.668  1.00  0.00    -0.285 A  
HETATM   10  N   UNL     1      -8.493   8.055  67.084  1.00  0.00    -0.123 NA 
HETATM   11  C   UNL     1      -8.379   8.859  66.004  1.00  0.00    -0.124 A  
BRANCH   8  12
HETATM   12  O   UNL     1     -11.322  10.969  66.109  1.00  0.00    -0.089 OA 
BRANCH  12  13
HETATM   13  C   UNL     1     -11.511  12.082  66.901  1.00  0.00    -0.337 A  
HETATM   14  C   UNL     1     -11.776  11.841  68.250  1.00  0.00    -0.377 A  
HETATM   15  C   UNL     1     -12.032  12.913  69.101  1.00  0.00    -0.259 A  
HETATM   16  F   UNL     1     -12.300  12.675  70.394  1.00  0.00    -0.387 F  
HETATM   17  C   UNL     1     -12.085  14.221  68.616  1.00  0.00    -0.260 A  
HETATM   18  C   UNL     1     -11.538  13.392  66.409  1.00  0.00    -0.381 A  
HETATM   19  C   UNL     1     -11.818  14.462  67.266  1.00  0.00    -0.434 A  
BRANCH  17  20
HETATM   20  N   UNL     1     -12.427  15.271  69.498  1.00  0.00    -0.597 N  
HETATM   21  H   UNL     1     -13.351  15.700  69.443  1.00  0.00     0.000 HD 
BRANCH  20  22
HETATM   22  C   UNL     1     -11.510  15.722  70.439  1.00  0.00    -0.365 C  
HETATM   23  O   UNL     1     -11.806  16.259  71.503  1.00  0.00    -0.458 OA 
BRANCH  22  24
HETATM   24  N   UNL     1     -10.215  15.494  70.013  1.00  0.00    -0.365 N  
HETATM   25  H   UNL     1      -9.773  14.600  70.224  1.00  0.00     0.000 HD 
BRANCH  24  26
HETATM   26  C   UNL     1      -9.490  16.466  69.296  1.00  0.00    -0.182 A  
HETATM   27  C   UNL     1      -8.122  16.280  69.123  1.00  0.00    -0.215 A  
HETATM   28  C   UNL     1      -7.380  17.228  68.420  1.00  0.00    -0.224 A  
HETATM   29  C   UNL     1      -7.980  18.402  67.945  1.00  0.00    -0.258 A  
HETATM   30 CL   UNL     1      -6.940  19.501  67.116  1.00  0.00    -0.215 Cl 
HETATM   31  C   UNL     1      -9.344  18.634  68.155  1.00  0.00    -0.347 A  
HETATM   32  C   UNL     1     -10.099  17.628  68.806  1.00  0.00    -0.377 A  
HETATM   33  C   UNL     1     -10.057  19.905  67.767  1.00  0.00    -0.429 C  
HETATM   34  F   UNL     1     -11.065  19.684  66.879  1.00  0.00    -0.571 F  
HETATM   35  F   UNL     1     -10.650  20.493  68.851  1.00  0.00    -0.450 F  
HETATM   36  F   UNL     1      -9.292  20.883  67.214  1.00  0.00    -0.532 F  
ENDBRANCH  24  26
ENDBRANCH  22  24
ENDBRANCH  20  22
ENDBRANCH  17  20
ENDBRANCH  12  13
ENDBRANCH   8  12
ENDBRANCH   3   6
TORSDOF 7
ENDMDL
MODEL       67
REMARK 921   NORMALIZED FREE ENERGY PREDICTED BY IDOCK:   -6.25 KCAL/MOL
REMARK 922        TOTAL FREE ENERGY PREDICTED BY IDOCK:  -10.79 KCAL/MOL
REMARK 923 INTER-LIGAND FREE ENERGY PREDICTED BY IDOCK:   -9.56 KCAL/MOL
REMARK 924 INTRA-LIGAND FREE ENERGY PREDICTED BY IDOCK:   -1.23 KCAL/MOL
REMARK 927      BINDING AFFINITY PREDICTED BY RF-SCORE:    0.00 PKD
ROOT
HETATM    1  C   UNL     1      -7.967  18.893  68.121  1.00  0.00    -0.300 C  
HETATM    2  N   UNL     1      -8.746  17.702  68.323  1.00  0.00    -0.269 N  
HETATM    3  C   UNL     1     -10.108  17.696  68.106  1.00  0.00    -0.347 C  
HETATM    4  H   UNL     1      -8.284  16.847  68.631  1.00  0.00     0.000 HD 
HETATM    5  O   UNL     1     -10.733  18.664  67.687  1.00  0.00    -0.427 OA 
ENDROOT
BRANCH   3   6
HETATM    6  C   UNL     1     -10.797  16.407  68.429  1.00  0.00    -0.342 A  
HETATM    7  C   UNL     1     -11.148  15.561  67.386  1.00  0.00    -0.285 A  
HETATM    8  C   UNL     1     -11.750  14.350  67.705  1.00  0.00    -0.391 A  
HETATM    9  C   UNL     1     -12.036  14.055  69.034  1.00  0.00    -0.392 A  
HETATM   10  N   UNL     1     -11.042  16.140  69.742  1.00  0.00    -0.334 NA 
HETATM   11  C   UNL     1     -11.662  14.970  70.007  1.00  0.00    -0.306 A  
BRANCH   8  12
HETATM   12  O   UNL     1     -12.162  13.435  66.764  1.00  0.00    -0.377 OA 
BRANCH  12  13
HETATM   13  C   UNL     1     -11.479  12.245  66.627  1.00  0.00    -0.373 A  
HETATM   14  C   UNL     1     -11.049  11.925  65.338  1.00  0.00    -0.360 A  
HETATM   15  C   UNL     1     -10.400  10.715  65.111  1.00  0.00    -0.261 A  
HETATM   16  F   UNL     1     -10.001  10.406  63.868  1.00  0.00    -0.351 F  
HETATM   17  C   UNL     1     -10.224   9.788  66.141  1.00  0.00    -0.208 A  
HETATM   18  C   UNL     1     -11.286  11.333  67.672  1.00  0.00    -0.357 A  
HETATM   19  C   UNL     1     -10.652  10.109  67.431  1.00  0.00    -0.329 A  
BRANCH  17  20
HETATM   20  N   UNL     1      -9.631   8.538  65.851  1.00  0.00    -0.445 N  
HETATM   21  H   UNL     1     -10.109   7.881  65.234  1.00  0.00     0.000 HD 
BRANCH  20  22
HETATM   22  C   UNL     1      -8.402   8.201  66.401  1.00  0.00    -0.115 C  
HETATM   23  O   UNL     1      -7.369   8.851  66.259  1.00  0.00    -0.085 OA 
BRANCH  22  24
HETATM   24  N   UNL     1      -8.491   7.027  67.124  1.00  0.00    -0.120 N  
HETATM   25  H   UNL     1      -7.966   6.210  66.811  1.00  0.00     0.000 HD 
BRANCH  24  26
HETATM   26  C   UNL     1      -9.288   6.928  68.281  1.00  0.00    -0.125 A  
HETATM   27  C   UNL     1     -10.418   6.117  68.242  1.00  0.00    -0.284 A  
HETATM   28  C   UNL     1     -11.226   6.004  69.372  1.00  0.00    -0.397 A  
HETATM   29  C   UNL     1     -10.957   6.752  70.525  1.00  0.00    -0.280 A  
HETATM   30 CL   UNL     1     -12.053   6.536  71.840  1.00  0.00    -0.389 Cl 
HETATM   31  C   UNL     1      -9.856   7.615  70.567  1.00  0.00    -0.183 A  
HETATM   32  C   UNL     1      -9.003   7.663  69.438  1.00  0.00    -0.139 A  
HETATM   33  C   UNL     1      -9.540   8.530  71.724  1.00  0.00    -0.267 C  
HETATM   34  F   UNL     1      -8.322   8.268  72.275  1.00  0.00    -0.151 F  
HETATM   35  F   UNL     1      -9.485   9.837  71.325  1.00  0.00    -0.191 F  
HETATM   36  F   UNL     1     -10.418   8.519  72.762  1.00  0.00    -0.381 F  
ENDBRANCH  24  26
ENDBRANCH  22  24
ENDBRANCH  20  22
ENDBRANCH  17  20
ENDBRANCH  12  13
ENDBRANCH   8  12
ENDBRANCH   3   6
TORSDOF 7
ENDMDL
MODEL       68
REMARK 921   NORMALIZED FREE ENERGY PREDICTED BY IDOCK:   -6.23 KCAL/MOL
REMARK 922        TOTAL FREE ENERGY PREDICTED BY IDOCK:  -10.77 KCAL/MOL
REMARK 923 INTER-LIGAND FREE ENERGY PREDICTED BY IDOCK:   -9.87 KCAL/MOL
REMARK 924 INTRA-LIGAND FREE ENERGY PREDICTED BY IDOCK:   -0.90 KCAL/MOL
REMARK 927      BINDING AFFINITY PREDICTED BY RF-SCORE:    0.00 PKD
ROOT
HETATM    1  C   UNL     1     -10.121  18.251  66.157  1.00  0.00    -0.346 C  
HETATM    2  N   UNL     1     -10.311  16.831  66.259  1.00  0.00    -0.319 N  
HETATM    3  C   UNL     1     -10.909  16.116  65.243  1.00  0.00    -0.336 C  
HETATM    4  H   UNL     1      -9.997  16.342  67.098  1.00  0.00     0.000 HD 
HETATM    5  O   UNL     1     -11.268  16.616  64.183  1.00  0.00    -1.103 OA 
ENDROOT
BRANCH   3   6
HETATM    6  C   UNL     1     -11.107  14.658  65.521  1.00  0.00    -0.345 A  
HETATM    7  C   UNL     1     -11.621  14.280  66.754  1.00  0.00    -0.407 A  
HETATM    8  C   UNL     1     -11.838  12.927  66.981  1.00  0.00    -0.374 A  
HETATM    9  C   UNL     1     -11.479  12.002  66.005  1.00  0.00    -0.399 A  
HETATM   10  N   UNL     1     -10.766  13.782  64.536  1.00  0.00    -0.413 NA 
HETATM   11  C   UNL     1     -10.957  12.473  64.811  1.00  0.00    -0.303 A  
BRANCH   8  12
HETATM   12  O   UNL     1     -12.323  12.423  68.165  1.00  0.00    -0.200 OA 
BRANCH  12  13
HETATM   13  C   UNL     1     -11.587  11.484  68.857  1.00  0.00    -0.320 A  
HETATM   14  C   UNL     1     -12.214  10.897  69.958  1.00  0.00    -0.422 A  
HETATM   15  C   UNL     1     -11.515   9.980  70.737  1.00  0.00    -0.356 A  
HETATM   16  F   UNL     1     -12.118   9.430  71.803  1.00  0.00    -0.381 F  
HETATM   17  C   UNL     1     -10.178   9.680  70.472  1.00  0.00    -0.287 A  
HETATM   18  C   UNL     1     -10.254  11.172  68.567  1.00  0.00    -0.209 A  
HETATM   19  C   UNL     1      -9.551  10.265  69.369  1.00  0.00    -0.237 A  
BRANCH  17  20
HETATM   20  N   UNL     1      -9.482   8.805  71.336  1.00  0.00    -0.235 N  
HETATM   21  H   UNL     1      -9.338   9.063  72.312  1.00  0.00     0.000 HD 
BRANCH  20  22
HETATM   22  C   UNL     1      -8.993   7.594  70.862  1.00  0.00    -0.148 C  
HETATM   23  O   UNL     1      -7.802   7.312  70.758  1.00  0.00    -0.091 OA 
BRANCH  22  24
HETATM   24  N   UNL     1     -10.028   6.749  70.510  1.00  0.00    -0.183 N  
HETATM   25  H   UNL     1     -10.761   6.551  71.191  1.00  0.00     0.000 HD 
BRANCH  24  26
HETATM   26  C   UNL     1     -10.097   6.154  69.235  1.00  0.00    -0.174 A  
HETATM   27  C   UNL     1     -10.783   6.823  68.226  1.00  0.00    -0.290 A  
HETATM   28  C   UNL     1     -10.869   6.256  66.956  1.00  0.00    -0.458 A  
HETATM   29  C   UNL     1     -10.337   4.985  66.699  1.00  0.00    -0.270 A  
HETATM   30 CL   UNL     1     -10.538   4.392  65.092  1.00  0.00    -0.234 Cl 
HETATM   31  C   UNL     1      -9.690   4.272  67.714  1.00  0.00    -0.179 A  
HETATM   32  C   UNL     1      -9.545   4.893  68.978  1.00  0.00    -0.224 A  
HETATM   33  C   UNL     1      -9.171   2.864  67.561  1.00  0.00    -0.193 C  
HETATM   34  F   UNL     1      -7.827   2.782  67.768  1.00  0.00    -0.059 F  
HETATM   35  F   UNL     1      -9.733   2.023  68.482  1.00  0.00    -0.249 F  
HETATM   36  F   UNL     1      -9.391   2.264  66.362  1.00  0.00    -0.128 F  
ENDBRANCH  24  26
ENDBRANCH  22  24
ENDBRANCH  20  22
ENDBRANCH  17  20
ENDBRANCH  12  13
ENDBRANCH   8  12
ENDBRANCH   3   6
TORSDOF 7
ENDMDL
MODEL       69
REMARK 921   NORMALIZED FREE ENERGY PREDICTED BY IDOCK:   -6.23 KCAL/MOL
REMARK 922        TOTAL FREE ENERGY PREDICTED BY IDOCK:  -10.77 KCAL/MOL
REMARK 923 INTER-LIGAND FREE ENERGY PREDICTED BY IDOCK:  -10.03 KCAL/MOL
REMARK 924 INTRA-LIGAND FREE ENERGY PREDICTED BY IDOCK:   -0.74 KCAL/MOL
REMARK 927      BINDING AFFINITY PREDICTED BY RF-SCORE:    0.00 PKD
ROOT
HETATM    1  C   UNL     1      -8.117   6.871  72.776  1.00  0.00    -0.108 C  
HETATM    2  N   UNL     1      -8.520   6.816  71.398  1.00  0.00    -0.120 N  
HETATM    3  C   UNL     1      -9.421   7.723  70.882  1.00  0.00    -0.160 C  
HETATM    4  H   UNL     1      -8.134   6.093  70.791  1.00  0.00     0.000 HD 
HETATM    5  O   UNL     1      -9.893   8.652  71.527  1.00  0.00    -0.218 OA 
ENDROOT
BRANCH   3   6
HETATM    6  C   UNL     1      -9.803   7.496  69.452  1.00  0.00    -0.166 A  
HETATM    7  C   UNL     1      -9.323   8.372  68.488  1.00  0.00    -0.139 A  
HETATM    8  C   UNL     1      -9.653   8.125  67.162  1.00  0.00    -0.174 A  
HETATM    9  C   UNL     1     -10.494   7.061  66.851  1.00  0.00    -0.356 A  
HETATM   10  N   UNL     1     -10.609   6.432  69.181  1.00  0.00    -0.227 NA 
HETATM   11  C   UNL     1     -10.938   6.249  67.884  1.00  0.00    -0.327 A  
BRANCH   8  12
HETATM   12  O   UNL     1      -9.258   8.928  66.117  1.00  0.00    -0.184 OA 
BRANCH  12  13
HETATM   13  C   UNL     1      -9.990  10.056  65.812  1.00  0.00    -0.276 A  
HETATM   14  C   UNL     1     -10.695  10.639  66.867  1.00  0.00    -0.297 A  
HETATM   15  C   UNL     1     -11.499  11.749  66.625  1.00  0.00    -0.267 A  
HETATM   16  F   UNL     1     -12.186  12.296  67.640  1.00  0.00    -0.358 F  
HETATM   17  C   UNL     1     -11.659  12.255  65.333  1.00  0.00    -0.363 A  
HETATM   18  C   UNL     1     -10.124  10.571  64.517  1.00  0.00    -0.402 A  
HETATM   19  C   UNL     1     -10.952  11.673  64.278  1.00  0.00    -0.418 A  
BRANCH  17  20
HETATM   20  N   UNL     1     -12.547  13.333  65.119  1.00  0.00    -0.595 N  
HETATM   21  H   UNL     1     -13.551  13.159  65.054  1.00  0.00     0.000 HD 
BRANCH  20  22
HETATM   22  C   UNL     1     -12.061  14.628  64.998  1.00  0.00    -0.349 C  
HETATM   23  O   UNL     1     -12.052  15.278  63.956  1.00  0.00    -0.565 OA 
BRANCH  22  24
HETATM   24  N   UNL     1     -11.576  15.087  66.208  1.00  0.00    -0.231 N  
HETATM   25  H   UNL     1     -12.047  14.810  67.069  1.00  0.00     0.000 HD 
BRANCH  24  26
HETATM   26  C   UNL     1     -10.449  15.928  66.282  1.00  0.00    -0.318 A  
HETATM   27  C   UNL     1      -9.187  15.345  66.323  1.00  0.00    -0.354 A  
HETATM   28  C   UNL     1      -8.054  16.154  66.400  1.00  0.00    -0.305 A  
HETATM   29  C   UNL     1      -8.171  17.546  66.510  1.00  0.00    -0.276 A  
HETATM   30 CL   UNL     1      -6.690  18.423  66.624  1.00  0.00    -0.212 Cl 
HETATM   31  C   UNL     1      -9.433  18.149  66.525  1.00  0.00    -0.307 A  
HETATM   32  C   UNL     1     -10.571  17.321  66.372  1.00  0.00    -0.179 A  
HETATM   33  C   UNL     1      -9.665  19.626  66.735  1.00  0.00    -0.378 C  
HETATM   34  F   UNL     1     -10.301  20.205  65.680  1.00  0.00    -0.544 F  
HETATM   35  F   UNL     1     -10.470  19.854  67.816  1.00  0.00    -0.497 F  
HETATM   36  F   UNL     1      -8.560  20.385  66.956  1.00  0.00    -0.362 F  
ENDBRANCH  24  26
ENDBRANCH  22  24
ENDBRANCH  20  22
ENDBRANCH  17  20
ENDBRANCH  12  13
ENDBRANCH   8  12
ENDBRANCH   3   6
TORSDOF 7
ENDMDL
MODEL       70
REMARK 921   NORMALIZED FREE ENERGY PREDICTED BY IDOCK:   -6.23 KCAL/MOL
REMARK 922        TOTAL FREE ENERGY PREDICTED BY IDOCK:  -10.77 KCAL/MOL
REMARK 923 INTER-LIGAND FREE ENERGY PREDICTED BY IDOCK:  -10.03 KCAL/MOL
REMARK 924 INTRA-LIGAND FREE ENERGY PREDICTED BY IDOCK:   -0.74 KCAL/MOL
REMARK 927      BINDING AFFINITY PREDICTED BY RF-SCORE:    0.00 PKD
ROOT
HETATM    1  C   UNL     1      -5.227  21.081  68.722  1.00  0.00    -0.320 C  
HETATM    2  N   UNL     1      -6.449  20.729  68.053  1.00  0.00    -0.320 N  
HETATM    3  C   UNL     1      -7.133  19.576  68.376  1.00  0.00    -0.314 C  
HETATM    4  H   UNL     1      -6.817  21.343  67.326  1.00  0.00     0.000 HD 
HETATM    5  O   UNL     1      -6.788  18.812  69.271  1.00  0.00    -0.284 OA 
ENDROOT
BRANCH   3   6
HETATM    6  C   UNL     1      -8.347  19.302  67.544  1.00  0.00    -0.290 A  
HETATM    7  C   UNL     1      -8.545  18.017  67.059  1.00  0.00    -0.254 A  
HETATM    8  C   UNL     1      -9.697  17.769  66.324  1.00  0.00    -0.267 A  
HETATM    9  C   UNL     1     -10.572  18.814  66.047  1.00  0.00    -0.442 A  
HETATM   10  N   UNL     1      -9.194  20.343  67.312  1.00  0.00    -0.391 NA 
HETATM   11  C   UNL     1     -10.283  20.069  66.561  1.00  0.00    -0.474 A  
BRANCH   8  12
HETATM   12  O   UNL     1      -9.998  16.545  65.772  1.00  0.00    -0.436 OA 
BRANCH  12  13
HETATM   13  C   UNL     1     -10.414  15.515  66.588  1.00  0.00    -0.299 A  
HETATM   14  C   UNL     1     -11.070  14.455  65.958  1.00  0.00    -0.324 A  
HETATM   15  C   UNL     1     -11.567  13.404  66.723  1.00  0.00    -0.365 A  
HETATM   16  F   UNL     1     -12.209  12.395  66.114  1.00  0.00    -0.462 F  
HETATM   17  C   UNL     1     -11.474  13.419  68.116  1.00  0.00    -0.304 A  
HETATM   18  C   UNL     1     -10.294  15.528  67.983  1.00  0.00    -0.247 A  
HETATM   19  C   UNL     1     -10.816  14.478  68.746  1.00  0.00    -0.256 A  
BRANCH  17  20
HETATM   20  N   UNL     1     -12.062  12.371  68.859  1.00  0.00    -0.211 N  
HETATM   21  H   UNL     1     -13.038  12.439  69.148  1.00  0.00     0.000 HD 
BRANCH  20  22
HETATM   22  C   UNL     1     -11.318  11.249  69.198  1.00  0.00    -0.282 C  
HETATM   23  O   UNL     1     -10.748  10.517  68.392  1.00  0.00    -0.194 OA 
BRANCH  22  24
HETATM   24  N   UNL     1     -11.311  11.056  70.566  1.00  0.00    -0.442 N  
HETATM   25  H   UNL     1     -11.313  11.869  71.182  1.00  0.00     0.000 HD 
BRANCH  24  26
HETATM   26  C   UNL     1     -11.302   9.767  71.132  1.00  0.00    -0.389 A  
HETATM   27  C   UNL     1     -12.496   9.055  71.182  1.00  0.00    -0.285 A  
HETATM   28  C   UNL     1     -12.517   7.777  71.740  1.00  0.00    -0.348 A  
HETATM   29  C   UNL     1     -11.365   7.227  72.318  1.00  0.00    -0.272 A  
HETATM   30 CL   UNL     1     -11.537   5.650  72.995  1.00  0.00    -0.250 Cl 
HETATM   31  C   UNL     1     -10.165   7.949  72.326  1.00  0.00    -0.302 A  
HETATM   32  C   UNL     1     -10.143   9.214  71.690  1.00  0.00    -0.346 A  
HETATM   33  C   UNL     1      -8.901   7.483  73.006  1.00  0.00    -0.154 C  
HETATM   34  F   UNL     1      -7.864   7.347  72.133  1.00  0.00    -0.085 F  
HETATM   35  F   UNL     1      -8.475   8.388  73.938  1.00  0.00    -0.298 F  
HETATM   36  F   UNL     1      -8.973   6.302  73.673  1.00  0.00    -0.124 F  
ENDBRANCH  24  26
ENDBRANCH  22  24
ENDBRANCH  20  22
ENDBRANCH  17  20
ENDBRANCH  12  13
ENDBRANCH   8  12
ENDBRANCH   3   6
TORSDOF 7
ENDMDL
MODEL       71
REMARK 921   NORMALIZED FREE ENERGY PREDICTED BY IDOCK:   -6.22 KCAL/MOL
REMARK 922        TOTAL FREE ENERGY PREDICTED BY IDOCK:  -10.76 KCAL/MOL
REMARK 923 INTER-LIGAND FREE ENERGY PREDICTED BY IDOCK:  -10.08 KCAL/MOL
REMARK 924 INTRA-LIGAND FREE ENERGY PREDICTED BY IDOCK:   -0.68 KCAL/MOL
REMARK 927      BINDING AFFINITY PREDICTED BY RF-SCORE:    0.00 PKD
ROOT
HETATM    1  C   UNL     1      -9.680   4.365  69.713  1.00  0.00    -0.221 C  
HETATM    2  N   UNL     1      -9.161   5.452  68.929  1.00  0.00    -0.116 N  
HETATM    3  C   UNL     1      -8.931   6.690  69.490  1.00  0.00    -0.138 C  
HETATM    4  H   UNL     1      -8.959   5.305  67.940  1.00  0.00     0.000 HD 
HETATM    5  O   UNL     1      -9.097   6.937  70.680  1.00  0.00    -0.154 OA 
ENDROOT
BRANCH   3   6
HETATM    6  C   UNL     1      -8.461   7.744  68.536  1.00  0.00    -0.129 A  
HETATM    7  C   UNL     1      -9.242   8.031  67.425  1.00  0.00    -0.155 A  
HETATM    8  C   UNL     1      -8.814   9.040  66.572  1.00  0.00    -0.135 A  
HETATM    9  C   UNL     1      -7.602   9.679  66.819  1.00  0.00    -0.098 A  
HETATM   10  N   UNL     1      -7.282   8.364  68.821  1.00  0.00    -0.077 NA 
HETATM   11  C   UNL     1      -6.882   9.312  67.946  1.00  0.00    -0.072 A  
BRANCH   8  12
HETATM   12  O   UNL     1      -9.486   9.405  65.429  1.00  0.00    -0.261 OA 
BRANCH  12  13
HETATM   13  C   UNL     1     -10.283  10.530  65.438  1.00  0.00    -0.270 A  
HETATM   14  C   UNL     1     -10.628  11.053  64.190  1.00  0.00    -0.412 A  
HETATM   15  C   UNL     1     -11.386  12.218  64.119  1.00  0.00    -0.376 A  
HETATM   16  F   UNL     1     -11.703  12.723  62.917  1.00  0.00    -0.493 F  
HETATM   17  C   UNL     1     -11.756  12.907  65.276  1.00  0.00    -0.364 A  
HETATM   18  C   UNL     1     -10.670  11.201  66.605  1.00  0.00    -0.322 A  
HETATM   19  C   UNL     1     -11.412  12.384  66.525  1.00  0.00    -0.427 A  
BRANCH  17  20
HETATM   20  N   UNL     1     -12.456  14.130  65.157  1.00  0.00    -0.517 N  
HETATM   21  H   UNL     1     -13.394  14.218  65.548  1.00  0.00     0.000 HD 
BRANCH  20  22
HETATM   22  C   UNL     1     -11.873  15.211  64.510  1.00  0.00    -0.330 C  
HETATM   23  O   UNL     1     -12.486  16.049  63.854  1.00  0.00    -0.806 OA 
BRANCH  22  24
HETATM   24  N   UNL     1     -10.503  15.214  64.693  1.00  0.00    -0.519 N  
HETATM   25  H   UNL     1      -9.926  14.588  64.131  1.00  0.00     0.000 HD 
BRANCH  24  26
HETATM   26  C   UNL     1      -9.884  16.058  65.635  1.00  0.00    -0.274 A  
HETATM   27  C   UNL     1      -8.868  15.536  66.429  1.00  0.00    -0.359 A  
HETATM   28  C   UNL     1      -8.240  16.349  67.372  1.00  0.00    -0.178 A  
HETATM   29  C   UNL     1      -8.667  17.666  67.582  1.00  0.00    -0.232 A  
HETATM   30 CL   UNL     1      -7.821  18.551  68.797  1.00  0.00    -0.325 Cl 
HETATM   31  C   UNL     1      -9.723  18.195  66.831  1.00  0.00    -0.318 A  
HETATM   32  C   UNL     1     -10.301  17.381  65.826  1.00  0.00    -0.226 A  
HETATM   33  C   UNL     1     -10.315  19.566  67.049  1.00  0.00    -0.453 C  
HETATM   34  F   UNL     1     -10.211  20.357  65.945  1.00  0.00    -0.513 F  
HETATM   35  F   UNL     1     -11.653  19.493  67.320  1.00  0.00    -0.343 F  
HETATM   36  F   UNL     1      -9.792  20.295  68.070  1.00  0.00    -0.471 F  
ENDBRANCH  24  26
ENDBRANCH  22  24
ENDBRANCH  20  22
ENDBRANCH  17  20
ENDBRANCH  12  13
ENDBRANCH   8  12
ENDBRANCH   3   6
TORSDOF 7
ENDMDL
MODEL       72
REMARK 921   NORMALIZED FREE ENERGY PREDICTED BY IDOCK:   -6.22 KCAL/MOL
REMARK 922        TOTAL FREE ENERGY PREDICTED BY IDOCK:  -10.75 KCAL/MOL
REMARK 923 INTER-LIGAND FREE ENERGY PREDICTED BY IDOCK:   -9.48 KCAL/MOL
REMARK 924 INTRA-LIGAND FREE ENERGY PREDICTED BY IDOCK:   -1.28 KCAL/MOL
REMARK 927      BINDING AFFINITY PREDICTED BY RF-SCORE:    0.00 PKD
ROOT
HETATM    1  C   UNL     1      -9.630   4.486  65.078  1.00  0.00    -0.142 C  
HETATM    2  N   UNL     1      -9.469   5.876  65.403  1.00  0.00    -0.348 N  
HETATM    3  C   UNL     1      -8.527   6.289  66.321  1.00  0.00    -0.133 C  
HETATM    4  H   UNL     1     -10.060   6.570  64.946  1.00  0.00     0.000 HD 
HETATM    5  O   UNL     1      -7.742   5.528  66.877  1.00  0.00    -0.098 OA 
ENDROOT
BRANCH   3   6
HETATM    6  C   UNL     1      -8.525   7.757  66.614  1.00  0.00    -0.129 A  
HETATM    7  C   UNL     1      -9.505   8.552  66.037  1.00  0.00    -0.256 A  
HETATM    8  C   UNL     1      -9.514   9.905  66.351  1.00  0.00    -0.183 A  
HETATM    9  C   UNL     1      -8.518  10.426  67.170  1.00  0.00    -0.126 A  
HETATM   10  N   UNL     1      -7.548   8.229  67.438  1.00  0.00    -0.096 NA 
HETATM   11  C   UNL     1      -7.569   9.556  67.688  1.00  0.00    -0.094 A  
BRANCH   8  12
HETATM   12  O   UNL     1     -10.419  10.801  65.830  1.00  0.00    -0.242 OA 
BRANCH  12  13
HETATM   13  C   UNL     1     -10.992  11.746  66.654  1.00  0.00    -0.294 A  
HETATM   14  C   UNL     1     -11.057  13.047  66.150  1.00  0.00    -0.311 A  
HETATM   15  C   UNL     1     -11.573  14.066  66.945  1.00  0.00    -0.386 A  
HETATM   16  F   UNL     1     -11.620  15.317  66.461  1.00  0.00    -0.300 F  
HETATM   17  C   UNL     1     -11.972  13.821  68.261  1.00  0.00    -0.357 A  
HETATM   18  C   UNL     1     -11.412  11.485  67.964  1.00  0.00    -0.381 A  
HETATM   19  C   UNL     1     -11.909  12.520  68.764  1.00  0.00    -0.347 A  
BRANCH  17  20
HETATM   20  N   UNL     1     -12.415  14.900  69.060  1.00  0.00    -0.583 N  
HETATM   21  H   UNL     1     -13.277  15.389  68.819  1.00  0.00     0.000 HD 
BRANCH  20  22
HETATM   22  C   UNL     1     -11.681  15.296  70.170  1.00  0.00    -0.312 C  
HETATM   23  O   UNL     1     -11.466  14.593  71.155  1.00  0.00    -0.265 OA 
BRANCH  22  24
HETATM   24  N   UNL     1     -11.233  16.595  70.026  1.00  0.00    -0.417 N  
HETATM   25  H   UNL     1     -11.617  17.323  70.629  1.00  0.00     0.000 HD 
BRANCH  24  26
HETATM   26  C   UNL     1     -10.258  16.940  69.070  1.00  0.00    -0.308 A  
HETATM   27  C   UNL     1      -9.033  16.283  69.104  1.00  0.00    -0.219 A  
HETATM   28  C   UNL     1      -8.049  16.607  68.171  1.00  0.00    -0.186 A  
HETATM   29  C   UNL     1      -8.250  17.637  67.243  1.00  0.00    -0.213 A  
HETATM   30 CL   UNL     1      -6.940  17.951  66.165  1.00  0.00    -0.309 Cl 
HETATM   31  C   UNL     1      -9.455  18.347  67.226  1.00  0.00    -0.279 A  
HETATM   32  C   UNL     1     -10.473  17.957  68.131  1.00  0.00    -0.380 A  
HETATM   33  C   UNL     1      -9.729  19.532  66.333  1.00  0.00    -0.401 C  
HETATM   34  F   UNL     1     -10.787  19.319  65.501  1.00  0.00    -0.545 F  
HETATM   35  F   UNL     1     -10.058  20.641  67.062  1.00  0.00    -0.578 F  
HETATM   36  F   UNL     1      -8.709  19.932  65.529  1.00  0.00    -0.258 F  
ENDBRANCH  24  26
ENDBRANCH  22  24
ENDBRANCH  20  22
ENDBRANCH  17  20
ENDBRANCH  12  13
ENDBRANCH   8  12
ENDBRANCH   3   6
TORSDOF 7
ENDMDL
MODEL       73
REMARK 921   NORMALIZED FREE ENERGY PREDICTED BY IDOCK:   -6.21 KCAL/MOL
REMARK 922        TOTAL FREE ENERGY PREDICTED BY IDOCK:  -10.73 KCAL/MOL
REMARK 923 INTER-LIGAND FREE ENERGY PREDICTED BY IDOCK:   -9.66 KCAL/MOL
REMARK 924 INTRA-LIGAND FREE ENERGY PREDICTED BY IDOCK:   -1.08 KCAL/MOL
REMARK 927      BINDING AFFINITY PREDICTED BY RF-SCORE:    0.00 PKD
ROOT
HETATM    1  C   UNL     1     -13.503   9.743  71.817  1.00  0.00    -0.376 C  
HETATM    2  N   UNL     1     -12.559   9.487  70.764  1.00  0.00    -0.496 N  
HETATM    3  C   UNL     1     -11.303   8.988  71.039  1.00  0.00    -0.297 C  
HETATM    4  H   UNL     1     -12.822   9.678  69.798  1.00  0.00     0.000 HD 
HETATM    5  O   UNL     1     -10.926   8.683  72.165  1.00  0.00    -0.341 OA 
ENDROOT
BRANCH   3   6
HETATM    6  C   UNL     1     -10.402   8.844  69.851  1.00  0.00    -0.206 A  
HETATM    7  C   UNL     1     -10.851   9.293  68.617  1.00  0.00    -0.120 A  
HETATM    8  C   UNL     1      -9.988   9.190  67.534  1.00  0.00    -0.205 A  
HETATM    9  C   UNL     1      -8.744   8.591  67.703  1.00  0.00    -0.136 A  
HETATM   10  N   UNL     1      -9.183   8.273  70.058  1.00  0.00    -0.151 NA 
HETATM   11  C   UNL     1      -8.389   8.156  68.971  1.00  0.00    -0.128 A  
BRANCH   8  12
HETATM   12  O   UNL     1     -10.320   9.580  66.257  1.00  0.00    -0.244 OA 
BRANCH  12  13
HETATM   13  C   UNL     1     -10.305  10.919  65.929  1.00  0.00    -0.250 A  
HETATM   14  C   UNL     1     -10.827  11.255  64.679  1.00  0.00    -0.335 A  
HETATM   15  C   UNL     1     -10.797  12.580  64.255  1.00  0.00    -0.364 A  
HETATM   16  F   UNL     1     -11.288  12.894  63.046  1.00  0.00    -0.465 F  
HETATM   17  C   UNL     1     -10.200  13.572  65.035  1.00  0.00    -0.325 A  
HETATM   18  C   UNL     1      -9.725  11.911  66.730  1.00  0.00    -0.218 A  
HETATM   19  C   UNL     1      -9.679  13.237  66.287  1.00  0.00    -0.274 A  
BRANCH  17  20
HETATM   20  N   UNL     1     -10.119  14.890  64.532  1.00  0.00    -0.268 N  
HETATM   21  H   UNL     1      -9.303  15.179  63.993  1.00  0.00     0.000 HD 
BRANCH  20  22
HETATM   22  C   UNL     1     -11.147  15.794  64.768  1.00  0.00    -0.400 C  
HETATM   23  O   UNL     1     -12.007  16.106  63.949  1.00  0.00    -0.947 OA 
BRANCH  22  24
HETATM   24  N   UNL     1     -11.067  16.307  66.049  1.00  0.00     0.010 N  
HETATM   25  H   UNL     1     -11.678  15.930  66.773  1.00  0.00     0.000 HD 
BRANCH  24  26
HETATM   26  C   UNL     1     -10.165  17.336  66.379  1.00  0.00    -0.331 A  
HETATM   27  C   UNL     1     -10.493  18.644  66.035  1.00  0.00    -0.456 A  
HETATM   28  C   UNL     1      -9.617  19.682  66.347  1.00  0.00    -0.490 A  
HETATM   29  C   UNL     1      -8.375  19.419  66.940  1.00  0.00    -0.287 A  
HETATM   30 CL   UNL     1      -7.378  20.793  67.247  1.00  0.00    -0.399 Cl 
HETATM   31  C   UNL     1      -8.002  18.106  67.246  1.00  0.00    -0.227 A  
HETATM   32  C   UNL     1      -8.933  17.070  66.991  1.00  0.00    -0.236 A  
HETATM   33  C   UNL     1      -6.652  17.714  67.796  1.00  0.00    -0.181 C  
HETATM   34  F   UNL     1      -6.744  17.106  69.011  1.00  0.00    -0.179 F  
HETATM   35  F   UNL     1      -6.027  16.810  66.982  1.00  0.00    -0.154 F  
HETATM   36  F   UNL     1      -5.751  18.719  67.959  1.00  0.00    -0.181 F  
ENDBRANCH  24  26
ENDBRANCH  22  24
ENDBRANCH  20  22
ENDBRANCH  17  20
ENDBRANCH  12  13
ENDBRANCH   8  12
ENDBRANCH   3   6
TORSDOF 7
ENDMDL
MODEL       74
REMARK 921   NORMALIZED FREE ENERGY PREDICTED BY IDOCK:   -6.19 KCAL/MOL
REMARK 922        TOTAL FREE ENERGY PREDICTED BY IDOCK:  -10.71 KCAL/MOL
REMARK 923 INTER-LIGAND FREE ENERGY PREDICTED BY IDOCK:   -9.67 KCAL/MOL
REMARK 924 INTRA-LIGAND FREE ENERGY PREDICTED BY IDOCK:   -1.05 KCAL/MOL
REMARK 927      BINDING AFFINITY PREDICTED BY RF-SCORE:    0.00 PKD
ROOT
HETATM    1  C   UNL     1      -6.448  20.351  66.174  1.00  0.00    -0.218 C  
HETATM    2  N   UNL     1      -7.386  19.318  66.517  1.00  0.00    -0.226 N  
HETATM    3  C   UNL     1      -8.609  19.623  67.077  1.00  0.00    -0.312 C  
HETATM    4  H   UNL     1      -7.144  18.343  66.344  1.00  0.00     0.000 HD 
HETATM    5  O   UNL     1      -8.999  20.770  67.271  1.00  0.00    -0.314 OA 
ENDROOT
BRANCH   3   6
HETATM    6  C   UNL     1      -9.450  18.442  67.451  1.00  0.00    -0.273 A  
HETATM    7  C   UNL     1      -9.774  17.519  66.467  1.00  0.00    -0.302 A  
HETATM    8  C   UNL     1     -10.520  16.407  66.838  1.00  0.00    -0.289 A  
HETATM    9  C   UNL     1     -10.967  16.288  68.150  1.00  0.00    -0.343 A  
HETATM   10  N   UNL     1      -9.852  18.346  68.748  1.00  0.00    -0.369 NA 
HETATM   11  C   UNL     1     -10.608  17.271  69.060  1.00  0.00    -0.247 A  
BRANCH   8  12
HETATM   12  O   UNL     1     -10.922  15.432  65.955  1.00  0.00    -0.325 OA 
BRANCH  12  13
HETATM   13  C   UNL     1     -10.344  14.182  66.013  1.00  0.00    -0.309 A  
HETATM   14  C   UNL     1     -10.989  13.169  65.301  1.00  0.00    -0.304 A  
HETATM   15  C   UNL     1     -10.496  11.869  65.355  1.00  0.00    -0.270 A  
HETATM   16  F   UNL     1     -11.129  10.897  64.680  1.00  0.00    -0.319 F  
HETATM   17  C   UNL     1      -9.399  11.548  66.158  1.00  0.00    -0.215 A  
HETATM   18  C   UNL     1      -9.229  13.875  66.802  1.00  0.00    -0.267 A  
HETATM   19  C   UNL     1      -8.752  12.561  66.869  1.00  0.00    -0.182 A  
BRANCH  17  20
HETATM   20  N   UNL     1      -8.979  10.202  66.248  1.00  0.00    -0.146 N  
HETATM   21  H   UNL     1      -8.154   9.892  65.733  1.00  0.00     0.000 HD 
BRANCH  20  22
HETATM   22  C   UNL     1      -9.684   9.299  67.032  1.00  0.00    -0.185 C  
HETATM   23  O   UNL     1     -10.439   8.433  66.597  1.00  0.00    -0.294 OA 
BRANCH  22  24
HETATM   24  N   UNL     1      -9.432   9.510  68.375  1.00  0.00    -0.137 N  
HETATM   25  H   UNL     1      -8.492   9.346  68.735  1.00  0.00     0.000 HD 
BRANCH  24  26
HETATM   26  C   UNL     1     -10.439   9.945  69.257  1.00  0.00    -0.221 A  
HETATM   27  C   UNL     1     -10.824  11.282  69.218  1.00  0.00    -0.259 A  
HETATM   28  C   UNL     1     -11.817  11.740  70.083  1.00  0.00    -0.408 A  
HETATM   29  C   UNL     1     -12.383  10.890  71.043  1.00  0.00    -0.393 A  
HETATM   30 CL   UNL     1     -13.580  11.594  72.066  1.00  0.00    -0.308 Cl 
HETATM   31  C   UNL     1     -11.971   9.556  71.134  1.00  0.00    -0.429 A  
HETATM   32  C   UNL     1     -11.016   9.086  70.200  1.00  0.00    -0.256 A  
HETATM   33  C   UNL     1     -12.450   8.592  72.192  1.00  0.00    -0.389 C  
HETATM   34  F   UNL     1     -13.080   7.509  71.659  1.00  0.00    -0.334 F  
HETATM   35  F   UNL     1     -11.405   8.086  72.914  1.00  0.00    -0.416 F  
HETATM   36  F   UNL     1     -13.308   9.091  73.121  1.00  0.00    -0.404 F  
ENDBRANCH  24  26
ENDBRANCH  22  24
ENDBRANCH  20  22
ENDBRANCH  17  20
ENDBRANCH  12  13
ENDBRANCH   8  12
ENDBRANCH   3   6
TORSDOF 7
ENDMDL
MODEL       75
REMARK 921   NORMALIZED FREE ENERGY PREDICTED BY IDOCK:   -6.19 KCAL/MOL
REMARK 922        TOTAL FREE ENERGY PREDICTED BY IDOCK:  -10.71 KCAL/MOL
REMARK 923 INTER-LIGAND FREE ENERGY PREDICTED BY IDOCK:   -9.07 KCAL/MOL
REMARK 924 INTRA-LIGAND FREE ENERGY PREDICTED BY IDOCK:   -1.64 KCAL/MOL
REMARK 927      BINDING AFFINITY PREDICTED BY RF-SCORE:    0.00 PKD
ROOT
HETATM    1  C   UNL     1      -5.825  20.310  67.391  1.00  0.00    -0.180 C  
HETATM    2  N   UNL     1      -6.844  19.297  67.391  1.00  0.00    -0.202 N  
HETATM    3  C   UNL     1      -8.181  19.630  67.434  1.00  0.00    -0.298 C  
HETATM    4  H   UNL     1      -6.573  18.314  67.360  1.00  0.00     0.000 HD 
HETATM    5  O   UNL     1      -8.592  20.785  67.421  1.00  0.00    -0.296 OA 
ENDROOT
BRANCH   3   6
HETATM    6  C   UNL     1      -9.124  18.470  67.505  1.00  0.00    -0.279 A  
HETATM    7  C   UNL     1      -9.167  17.581  66.439  1.00  0.00    -0.267 A  
HETATM    8  C   UNL     1     -10.017  16.488  66.538  1.00  0.00    -0.285 A  
HETATM    9  C   UNL     1     -10.834  16.352  67.657  1.00  0.00    -0.280 A  
HETATM   10  N   UNL     1      -9.892  18.356  68.624  1.00  0.00    -0.364 NA 
HETATM   11  C   UNL     1     -10.733  17.299  68.664  1.00  0.00    -0.280 A  
BRANCH   8  12
HETATM   12  O   UNL     1     -10.167  15.548  65.544  1.00  0.00    -0.339 OA 
BRANCH  12  13
HETATM   13  C   UNL     1      -9.787  14.243  65.779  1.00  0.00    -0.287 A  
HETATM   14  C   UNL     1     -10.453  13.264  65.041  1.00  0.00    -0.367 A  
HETATM   15  C   UNL     1     -10.162  11.921  65.262  1.00  0.00    -0.272 A  
HETATM   16  F   UNL     1     -10.817  10.983  64.559  1.00  0.00    -0.403 F  
HETATM   17  C   UNL     1      -9.257  11.533  66.251  1.00  0.00    -0.211 A  
HETATM   18  C   UNL     1      -8.859  13.867  66.757  1.00  0.00    -0.170 A  
HETATM   19  C   UNL     1      -8.588  12.513  66.989  1.00  0.00    -0.188 A  
BRANCH  17  20
HETATM   20  N   UNL     1      -9.050  10.157  66.497  1.00  0.00    -0.143 N  
HETATM   21  H   UNL     1      -8.260   9.677  66.066  1.00  0.00     0.000 HD 
BRANCH  20  22
HETATM   22  C   UNL     1      -9.917   9.455  67.324  1.00  0.00    -0.196 C  
HETATM   23  O   UNL     1     -10.820   8.721  66.930  1.00  0.00    -0.171 OA 
BRANCH  22  24
HETATM   24  N   UNL     1      -9.636   9.701  68.655  1.00  0.00    -0.148 N  
HETATM   25  H   UNL     1      -8.721   9.443  69.025  1.00  0.00     0.000 HD 
BRANCH  24  26
HETATM   26  C   UNL     1     -10.580  10.297  69.513  1.00  0.00    -0.245 A  
HETATM   27  C   UNL     1     -11.266   9.486  70.412  1.00  0.00    -0.323 A  
HETATM   28  C   UNL     1     -12.209  10.050  71.271  1.00  0.00    -0.498 A  
HETATM   29  C   UNL     1     -12.527  11.412  71.193  1.00  0.00    -0.360 A  
HETATM   30 CL   UNL     1     -13.730  11.972  72.296  1.00  0.00    -0.250 Cl 
HETATM   31  C   UNL     1     -11.887  12.235  70.259  1.00  0.00    -0.324 A  
HETATM   32  C   UNL     1     -10.880  11.663  69.445  1.00  0.00    -0.151 A  
HETATM   33  C   UNL     1     -12.229  13.688  70.035  1.00  0.00    -0.329 C  
HETATM   34  F   UNL     1     -11.170  14.511  70.269  1.00  0.00    -0.273 F  
HETATM   35  F   UNL     1     -12.590  13.919  68.737  1.00  0.00    -0.301 F  
HETATM   36  F   UNL     1     -13.251  14.190  70.777  1.00  0.00    -0.387 F  
ENDBRANCH  24  26
ENDBRANCH  22  24
ENDBRANCH  20  22
ENDBRANCH  17  20
ENDBRANCH  12  13
ENDBRANCH   8  12
ENDBRANCH   3   6
TORSDOF 7
ENDMDL
MODEL       76
REMARK 921   NORMALIZED FREE ENERGY PREDICTED BY IDOCK:   -6.18 KCAL/MOL
REMARK 922        TOTAL FREE ENERGY PREDICTED BY IDOCK:  -10.69 KCAL/MOL
REMARK 923 INTER-LIGAND FREE ENERGY PREDICTED BY IDOCK:   -9.65 KCAL/MOL
REMARK 924 INTRA-LIGAND FREE ENERGY PREDICTED BY IDOCK:   -1.04 KCAL/MOL
REMARK 927      BINDING AFFINITY PREDICTED BY RF-SCORE:    0.00 PKD
ROOT
HETATM    1  C   UNL     1      -5.599  20.109  70.701  1.00  0.00    -0.302 C  
HETATM    2  N   UNL     1      -6.812  19.703  70.045  1.00  0.00    -0.171 N  
HETATM    3  C   UNL     1      -6.882  19.607  68.672  1.00  0.00    -0.314 C  
HETATM    4  H   UNL     1      -7.635  19.481  70.605  1.00  0.00     0.000 HD 
HETATM    5  O   UNL     1      -5.927  19.805  67.928  1.00  0.00    -0.203 OA 
ENDROOT
BRANCH   3   6
HETATM    6  C   UNL     1      -8.229  19.245  68.127  1.00  0.00    -0.318 A  
HETATM    7  C   UNL     1      -8.297  18.407  67.023  1.00  0.00    -0.257 A  
HETATM    8  C   UNL     1      -9.554  18.048  66.555  1.00  0.00    -0.315 A  
HETATM    9  C   UNL     1     -10.689  18.581  67.158  1.00  0.00    -0.396 A  
HETATM   10  N   UNL     1      -9.318  19.768  68.755  1.00  0.00    -0.283 NA 
HETATM   11  C   UNL     1     -10.522  19.425  68.246  1.00  0.00    -0.315 A  
BRANCH   8  12
HETATM   12  O   UNL     1      -9.756  17.241  65.459  1.00  0.00    -0.521 OA 
BRANCH  12  13
HETATM   13  C   UNL     1     -10.193  15.945  65.639  1.00  0.00    -0.379 A  
HETATM   14  C   UNL     1      -9.467  15.169  66.545  1.00  0.00    -0.308 A  
HETATM   15  C   UNL     1      -9.815  13.836  66.739  1.00  0.00    -0.275 A  
HETATM   16  F   UNL     1      -9.104  13.090  67.600  1.00  0.00    -0.168 F  
HETATM   17  C   UNL     1     -10.841  13.244  66.001  1.00  0.00    -0.273 A  
HETATM   18  C   UNL     1     -11.240  15.368  64.911  1.00  0.00    -0.410 A  
HETATM   19  C   UNL     1     -11.570  14.021  65.097  1.00  0.00    -0.344 A  
BRANCH  17  20
HETATM   20  N   UNL     1     -11.110  11.867  66.171  1.00  0.00    -0.316 N  
HETATM   21  H   UNL     1     -11.760  11.562  66.896  1.00  0.00     0.000 HD 
BRANCH  20  22
HETATM   22  C   UNL     1     -10.493  10.927  65.357  1.00  0.00    -0.223 C  
HETATM   23  O   UNL     1     -10.749  10.755  64.168  1.00  0.00    -0.295 OA 
BRANCH  22  24
HETATM   24  N   UNL     1      -9.555  10.200  66.066  1.00  0.00    -0.195 N  
HETATM   25  H   UNL     1      -8.564  10.362  65.890  1.00  0.00     0.000 HD 
BRANCH  24  26
HETATM   26  C   UNL     1      -9.934   9.240  67.025  1.00  0.00    -0.224 A  
HETATM   27  C   UNL     1     -10.166   7.935  66.603  1.00  0.00    -0.303 A  
HETATM   28  C   UNL     1     -10.545   6.966  67.531  1.00  0.00    -0.351 A  
HETATM   29  C   UNL     1     -10.766   7.303  68.872  1.00  0.00    -0.150 A  
HETATM   30 CL   UNL     1     -11.257   6.012  69.906  1.00  0.00    -0.469 Cl 
HETATM   31  C   UNL     1     -10.590   8.622  69.307  1.00  0.00    -0.204 A  
HETATM   32  C   UNL     1     -10.134   9.579  68.369  1.00  0.00    -0.199 A  
HETATM   33  C   UNL     1     -10.895   9.100  70.705  1.00  0.00    -0.268 C  
HETATM   34  F   UNL     1      -9.796   9.611  71.328  1.00  0.00    -0.328 F  
HETATM   35  F   UNL     1     -11.812  10.115  70.695  1.00  0.00    -0.313 F  
HETATM   36  F   UNL     1     -11.404   8.178  71.563  1.00  0.00    -0.260 F  
ENDBRANCH  24  26
ENDBRANCH  22  24
ENDBRANCH  20  22
ENDBRANCH  17  20
ENDBRANCH  12  13
ENDBRANCH   8  12
ENDBRANCH   3   6
TORSDOF 7
ENDMDL
MODEL       77
REMARK 921   NORMALIZED FREE ENERGY PREDICTED BY IDOCK:   -6.17 KCAL/MOL
REMARK 922        TOTAL FREE ENERGY PREDICTED BY IDOCK:  -10.69 KCAL/MOL
REMARK 923 INTER-LIGAND FREE ENERGY PREDICTED BY IDOCK:   -9.12 KCAL/MOL
REMARK 924 INTRA-LIGAND FREE ENERGY PREDICTED BY IDOCK:   -1.56 KCAL/MOL
REMARK 927      BINDING AFFINITY PREDICTED BY RF-SCORE:    0.00 PKD
ROOT
HETATM    1  C   UNL     1      -5.988  11.365  66.606  1.00  0.00    -0.147 C  
HETATM    2  N   UNL     1      -6.999  12.273  67.071  1.00  0.00    -0.340 N  
HETATM    3  C   UNL     1      -6.671  13.529  67.535  1.00  0.00    -0.131 C  
HETATM    4  H   UNL     1      -7.977  11.983  67.058  1.00  0.00     0.000 HD 
HETATM    5  O   UNL     1      -5.529  13.974  67.537  1.00  0.00    -0.340 OA 
ENDROOT
BRANCH   3   6
HETATM    6  C   UNL     1      -7.820  14.335  68.057  1.00  0.00    -0.143 A  
HETATM    7  C   UNL     1      -9.100  13.804  67.967  1.00  0.00    -0.191 A  
HETATM    8  C   UNL     1     -10.150  14.546  68.493  1.00  0.00    -0.242 A  
HETATM    9  C   UNL     1      -9.899  15.806  69.028  1.00  0.00    -0.240 A  
HETATM   10  N   UNL     1      -7.536  15.553  68.594  1.00  0.00    -0.125 NA 
HETATM   11  C   UNL     1      -8.589  16.259  69.060  1.00  0.00    -0.247 A  
BRANCH   8  12
HETATM   12  O   UNL     1     -11.464  14.142  68.449  1.00  0.00    -0.268 OA 
BRANCH  12  13
HETATM   13  C   UNL     1     -11.919  13.207  69.354  1.00  0.00    -0.291 A  
HETATM   14  C   UNL     1     -12.400  13.704  70.566  1.00  0.00    -0.425 A  
HETATM   15  C   UNL     1     -12.826  12.818  71.552  1.00  0.00    -0.270 A  
HETATM   16  F   UNL     1     -13.274  13.302  72.720  1.00  0.00    -0.577 F  
HETATM   17  C   UNL     1     -12.726  11.438  71.370  1.00  0.00    -0.384 A  
HETATM   18  C   UNL     1     -11.837  11.824  69.153  1.00  0.00    -0.389 A  
HETATM   19  C   UNL     1     -12.247  10.939  70.157  1.00  0.00    -0.423 A  
BRANCH  17  20
HETATM   20  N   UNL     1     -13.095  10.574  72.427  1.00  0.00    -0.458 N  
HETATM   21  H   UNL     1     -13.182  10.940  73.375  1.00  0.00     0.000 HD 
BRANCH  20  22
HETATM   22  C   UNL     1     -13.340   9.230  72.180  1.00  0.00    -0.468 C  
HETATM   23  O   UNL     1     -14.280   8.799  71.517  1.00  0.00    -0.390 OA 
BRANCH  22  24
HETATM   24  N   UNL     1     -12.387   8.435  72.789  1.00  0.00    -0.558 N  
HETATM   25  H   UNL     1     -12.454   8.260  73.792  1.00  0.00     0.000 HD 
BRANCH  24  26
HETATM   26  C   UNL     1     -11.326   7.862  72.062  1.00  0.00    -0.292 A  
HETATM   27  C   UNL     1     -11.468   6.558  71.599  1.00  0.00    -0.345 A  
HETATM   28  C   UNL     1     -10.431   5.964  70.879  1.00  0.00    -0.305 A  
HETATM   29  C   UNL     1      -9.220   6.637  70.676  1.00  0.00    -0.159 A  
HETATM   30 CL   UNL     1      -8.014   5.776  69.792  1.00  0.00    -0.098 Cl 
HETATM   31  C   UNL     1      -9.037   7.930  71.180  1.00  0.00    -0.160 A  
HETATM   32  C   UNL     1     -10.125   8.547  71.845  1.00  0.00    -0.367 A  
HETATM   33  C   UNL     1      -7.740   8.697  71.097  1.00  0.00    -0.113 C  
HETATM   34  F   UNL     1      -7.872   9.864  70.407  1.00  0.00    -0.160 F  
HETATM   35  F   UNL     1      -7.294   9.056  72.338  1.00  0.00    -0.042 F  
HETATM   36  F   UNL     1      -6.692   8.051  70.522  1.00  0.00    -0.037 F  
ENDBRANCH  24  26
ENDBRANCH  22  24
ENDBRANCH  20  22
ENDBRANCH  17  20
ENDBRANCH  12  13
ENDBRANCH   8  12
ENDBRANCH   3   6
TORSDOF 7
ENDMDL
MODEL       78
REMARK 921   NORMALIZED FREE ENERGY PREDICTED BY IDOCK:   -6.17 KCAL/MOL
REMARK 922        TOTAL FREE ENERGY PREDICTED BY IDOCK:  -10.69 KCAL/MOL
REMARK 923 INTER-LIGAND FREE ENERGY PREDICTED BY IDOCK:  -10.03 KCAL/MOL
REMARK 924 INTRA-LIGAND FREE ENERGY PREDICTED BY IDOCK:   -0.66 KCAL/MOL
REMARK 927      BINDING AFFINITY PREDICTED BY RF-SCORE:    0.00 PKD
ROOT
HETATM    1  C   UNL     1      -9.488   4.416  70.264  1.00  0.00    -0.171 C  
HETATM    2  N   UNL     1     -10.519   5.401  70.438  1.00  0.00    -0.280 N  
HETATM    3  C   UNL     1     -10.489   6.286  71.494  1.00  0.00    -0.223 C  
HETATM    4  H   UNL     1     -11.288   5.445  69.768  1.00  0.00     0.000 HD 
HETATM    5  O   UNL     1      -9.578   6.335  72.312  1.00  0.00    -0.153 OA 
ENDROOT
BRANCH   3   6
HETATM    6  C   UNL     1     -11.668   7.204  71.588  1.00  0.00    -0.291 A  
HETATM    7  C   UNL     1     -11.442   8.571  71.672  1.00  0.00    -0.365 A  
HETATM    8  C   UNL     1     -12.546   9.412  71.718  1.00  0.00    -0.387 A  
HETATM    9  C   UNL     1     -13.825   8.864  71.742  1.00  0.00    -0.465 A  
HETATM   10  N   UNL     1     -12.905   6.635  71.587  1.00  0.00    -0.273 NA 
HETATM   11  C   UNL     1     -13.952   7.485  71.671  1.00  0.00    -0.412 A  
BRANCH   8  12
HETATM   12  O   UNL     1     -12.457  10.781  71.822  1.00  0.00    -0.328 OA 
BRANCH  12  13
HETATM   13  C   UNL     1     -12.263  11.538  70.686  1.00  0.00    -0.378 A  
HETATM   14  C   UNL     1     -11.971  10.834  69.517  1.00  0.00    -0.364 A  
HETATM   15  C   UNL     1     -11.709  11.532  68.342  1.00  0.00    -0.303 A  
HETATM   16  F   UNL     1     -11.415  10.850  67.224  1.00  0.00    -0.368 F  
HETATM   17  C   UNL     1     -11.677  12.928  68.326  1.00  0.00    -0.350 A  
HETATM   18  C   UNL     1     -12.257  12.938  70.675  1.00  0.00    -0.386 A  
HETATM   19  C   UNL     1     -11.971  13.633  69.495  1.00  0.00    -0.397 A  
BRANCH  17  20
HETATM   20  N   UNL     1     -11.328  13.596  67.130  1.00  0.00    -0.306 N  
HETATM   21  H   UNL     1     -12.059  13.896  66.484  1.00  0.00     0.000 HD 
BRANCH  20  22
HETATM   22  C   UNL     1      -9.996  13.848  66.830  1.00  0.00    -0.264 C  
HETATM   23  O   UNL     1      -9.043  13.247  67.320  1.00  0.00    -0.203 OA 
BRANCH  22  24
HETATM   24  N   UNL     1      -9.883  14.875  65.913  1.00  0.00    -0.314 N  
HETATM   25  H   UNL     1      -9.929  14.659  64.917  1.00  0.00     0.000 HD 
BRANCH  24  26
HETATM   26  C   UNL     1      -9.704  16.212  66.317  1.00  0.00    -0.307 A  
HETATM   27  C   UNL     1     -10.510  17.192  65.746  1.00  0.00    -0.242 A  
HETATM   28  C   UNL     1     -10.352  18.524  66.126  1.00  0.00    -0.457 A  
HETATM   29  C   UNL     1      -9.343  18.901  67.022  1.00  0.00    -0.303 A  
HETATM   30 CL   UNL     1      -9.243  20.585  67.383  1.00  0.00    -0.507 Cl 
HETATM   31  C   UNL     1      -8.486  17.938  67.566  1.00  0.00    -0.232 A  
HETATM   32  C   UNL     1      -8.707  16.581  67.228  1.00  0.00    -0.204 A  
HETATM   33  C   UNL     1      -7.314  18.256  68.461  1.00  0.00    -0.286 C  
HETATM   34  F   UNL     1      -7.424  17.670  69.686  1.00  0.00    -0.041 F  
HETATM   35  F   UNL     1      -6.144  17.784  67.935  1.00  0.00    -0.149 F  
HETATM   36  F   UNL     1      -7.080  19.572  68.707  1.00  0.00    -0.322 F  
ENDBRANCH  24  26
ENDBRANCH  22  24
ENDBRANCH  20  22
ENDBRANCH  17  20
ENDBRANCH  12  13
ENDBRANCH   8  12
ENDBRANCH   3   6
TORSDOF 7
ENDMDL
MODEL       79
REMARK 921   NORMALIZED FREE ENERGY PREDICTED BY IDOCK:   -6.17 KCAL/MOL
REMARK 922        TOTAL FREE ENERGY PREDICTED BY IDOCK:  -10.68 KCAL/MOL
REMARK 923 INTER-LIGAND FREE ENERGY PREDICTED BY IDOCK:   -9.29 KCAL/MOL
REMARK 924 INTRA-LIGAND FREE ENERGY PREDICTED BY IDOCK:   -1.39 KCAL/MOL
REMARK 927      BINDING AFFINITY PREDICTED BY RF-SCORE:    0.00 PKD
ROOT
HETATM    1  C   UNL     1     -10.125  17.318  67.467  1.00  0.00    -0.315 C  
HETATM    2  N   UNL     1     -10.378  15.916  67.648  1.00  0.00    -0.274 N  
HETATM    3  C   UNL     1     -10.232  15.025  66.607  1.00  0.00    -0.268 C  
HETATM    4  H   UNL     1     -10.672  15.573  68.563  1.00  0.00     0.000 HD 
HETATM    5  O   UNL     1      -9.834  15.344  65.491  1.00  0.00    -0.342 OA 
ENDROOT
BRANCH   3   6
HETATM    6  C   UNL     1     -10.603  13.609  66.923  1.00  0.00    -0.271 A  
HETATM    7  C   UNL     1     -11.463  13.368  67.985  1.00  0.00    -0.339 A  
HETATM    8  C   UNL     1     -11.831  12.053  68.240  1.00  0.00    -0.287 A  
HETATM    9  C   UNL     1     -11.283  11.028  67.476  1.00  0.00    -0.372 A  
HETATM   10  N   UNL     1     -10.066  12.632  66.140  1.00  0.00    -0.252 NA 
HETATM   11  C   UNL     1     -10.418  11.364  66.445  1.00  0.00    -0.254 A  
BRANCH   8  12
HETATM   12  O   UNL     1     -12.659  11.682  69.274  1.00  0.00    -0.083 OA 
BRANCH  12  13
HETATM   13  C   UNL     1     -12.258  10.690  70.144  1.00  0.00    -0.320 A  
HETATM   14  C   UNL     1     -13.272  10.050  70.860  1.00  0.00    -0.336 A  
HETATM   15  C   UNL     1     -12.941   9.076  71.797  1.00  0.00    -0.377 A  
HETATM   16  F   UNL     1     -13.918   8.474  72.492  1.00  0.00    -0.381 F  
HETATM   17  C   UNL     1     -11.607   8.770  72.077  1.00  0.00    -0.366 A  
HETATM   18  C   UNL     1     -10.919  10.373  70.399  1.00  0.00    -0.320 A  
HETATM   19  C   UNL     1     -10.593   9.408  71.359  1.00  0.00    -0.381 A  
BRANCH  17  20
HETATM   20  N   UNL     1     -11.313   7.832  73.092  1.00  0.00    -0.555 N  
HETATM   21  H   UNL     1     -11.721   7.944  74.021  1.00  0.00     0.000 HD 
BRANCH  20  22
HETATM   22  C   UNL     1     -10.471   6.759  72.832  1.00  0.00    -0.234 C  
HETATM   23  O   UNL     1      -9.322   6.652  73.254  1.00  0.00    -0.130 OA 
BRANCH  22  24
HETATM   24  N   UNL     1     -11.094   5.827  72.024  1.00  0.00    -0.265 N  
HETATM   25  H   UNL     1     -11.985   5.429  72.322  1.00  0.00     0.000 HD 
BRANCH  24  26
HETATM   26  C   UNL     1     -10.533   5.414  70.801  1.00  0.00    -0.247 A  
HETATM   27  C   UNL     1      -9.690   4.307  70.797  1.00  0.00    -0.274 A  
HETATM   28  C   UNL     1      -9.117   3.879  69.601  1.00  0.00    -0.188 A  
HETATM   29  C   UNL     1      -9.322   4.590  68.411  1.00  0.00    -0.142 A  
HETATM   30 CL   UNL     1      -8.533   3.965  67.010  1.00  0.00    -0.100 Cl 
HETATM   31  C   UNL     1     -10.123   5.737  68.403  1.00  0.00    -0.216 A  
HETATM   32  C   UNL     1     -10.757   6.117  69.611  1.00  0.00    -0.385 A  
HETATM   33  C   UNL     1     -10.325   6.622  67.197  1.00  0.00    -0.252 C  
HETATM   34  F   UNL     1     -11.632   6.697  66.823  1.00  0.00    -0.407 F  
HETATM   35  F   UNL     1      -9.945   7.910  67.456  1.00  0.00    -0.179 F  
HETATM   36  F   UNL     1      -9.644   6.276  66.073  1.00  0.00    -0.175 F  
ENDBRANCH  24  26
ENDBRANCH  22  24
ENDBRANCH  20  22
ENDBRANCH  17  20
ENDBRANCH  12  13
ENDBRANCH   8  12
ENDBRANCH   3   6
TORSDOF 7
ENDMDL
MODEL       80
REMARK 921   NORMALIZED FREE ENERGY PREDICTED BY IDOCK:   -6.16 KCAL/MOL
REMARK 922        TOTAL FREE ENERGY PREDICTED BY IDOCK:  -10.66 KCAL/MOL
REMARK 923 INTER-LIGAND FREE ENERGY PREDICTED BY IDOCK:   -9.50 KCAL/MOL
REMARK 924 INTRA-LIGAND FREE ENERGY PREDICTED BY IDOCK:   -1.16 KCAL/MOL
REMARK 927      BINDING AFFINITY PREDICTED BY RF-SCORE:    0.00 PKD
ROOT
HETATM    1  C   UNL     1     -10.347  18.740  67.146  1.00  0.00    -0.404 C  
HETATM    2  N   UNL     1     -10.774  17.703  68.044  1.00  0.00    -0.376 N  
HETATM    3  C   UNL     1     -10.765  16.379  67.659  1.00  0.00    -0.312 C  
HETATM    4  H   UNL     1     -11.088  17.950  68.982  1.00  0.00     0.000 HD 
HETATM    5  O   UNL     1     -10.355  15.991  66.571  1.00  0.00    -0.284 OA 
ENDROOT
BRANCH   3   6
HETATM    6  C   UNL     1     -11.308  15.418  68.672  1.00  0.00    -0.330 A  
HETATM    7  C   UNL     1     -11.598  14.122  68.271  1.00  0.00    -0.356 A  
HETATM    8  C   UNL     1     -12.061  13.232  69.231  1.00  0.00    -0.242 A  
HETATM    9  C   UNL     1     -12.276  13.677  70.532  1.00  0.00    -0.438 A  
HETATM   10  N   UNL     1     -11.485  15.882  69.941  1.00  0.00    -0.331 NA 
HETATM   11  C   UNL     1     -11.973  14.995  70.836  1.00  0.00    -0.319 A  
BRANCH   8  12
HETATM   12  O   UNL     1     -12.403  11.928  68.957  1.00  0.00    -0.188 OA 
BRANCH  12  13
HETATM   13  C   UNL     1     -11.989  10.923  69.806  1.00  0.00    -0.351 A  
HETATM   14  C   UNL     1     -12.954  10.415  70.678  1.00  0.00    -0.357 A  
HETATM   15  C   UNL     1     -12.598   9.437  71.602  1.00  0.00    -0.375 A  
HETATM   16  F   UNL     1     -13.526   8.962  72.447  1.00  0.00    -0.384 F  
HETATM   17  C   UNL     1     -11.277   8.997  71.712  1.00  0.00    -0.378 A  
HETATM   18  C   UNL     1     -10.667  10.472  69.892  1.00  0.00    -0.301 A  
HETATM   19  C   UNL     1     -10.312   9.504  70.839  1.00  0.00    -0.372 A  
BRANCH  17  20
HETATM   20  N   UNL     1     -10.943   8.061  72.717  1.00  0.00    -0.386 N  
HETATM   21  H   UNL     1     -11.182   8.254  73.690  1.00  0.00     0.000 HD 
BRANCH  20  22
HETATM   22  C   UNL     1     -10.290   6.882  72.386  1.00  0.00    -0.202 C  
HETATM   23  O   UNL     1      -9.145   6.595  72.728  1.00  0.00    -0.137 OA 
BRANCH  22  24
HETATM   24  N   UNL     1     -11.097   6.073  71.609  1.00  0.00    -0.271 N  
HETATM   25  H   UNL     1     -11.974   5.726  71.997  1.00  0.00     0.000 HD 
BRANCH  24  26
HETATM   26  C   UNL     1     -10.740   5.715  70.294  1.00  0.00    -0.294 A  
HETATM   27  C   UNL     1     -11.258   6.459  69.239  1.00  0.00    -0.440 A  
HETATM   28  C   UNL     1     -10.923   6.124  67.928  1.00  0.00    -0.399 A  
HETATM   29  C   UNL     1     -10.129   5.003  67.653  1.00  0.00    -0.140 A  
HETATM   30 CL   UNL     1      -9.814   4.689  65.986  1.00  0.00    -0.208 Cl 
HETATM   31  C   UNL     1      -9.641   4.210  68.697  1.00  0.00    -0.199 A  
HETATM   32  C   UNL     1      -9.928   4.605  70.027  1.00  0.00    -0.302 A  
HETATM   33  C   UNL     1      -8.860   2.934  68.499  1.00  0.00    -0.118 C  
HETATM   34  F   UNL     1      -7.618   2.995  69.055  1.00  0.00    -0.048 F  
HETATM   35  F   UNL     1      -9.478   1.874  69.104  1.00  0.00    -0.169 F  
HETATM   36  F   UNL     1      -8.665   2.537  67.214  1.00  0.00    -0.092 F  
ENDBRANCH  24  26
ENDBRANCH  22  24
ENDBRANCH  20  22
ENDBRANCH  17  20
ENDBRANCH  12  13
ENDBRANCH   8  12
ENDBRANCH   3   6
TORSDOF 7
ENDMDL
MODEL       81
REMARK 921   NORMALIZED FREE ENERGY PREDICTED BY IDOCK:   -6.11 KCAL/MOL
REMARK 922        TOTAL FREE ENERGY PREDICTED BY IDOCK:  -10.60 KCAL/MOL
REMARK 923 INTER-LIGAND FREE ENERGY PREDICTED BY IDOCK:   -9.54 KCAL/MOL
REMARK 924 INTRA-LIGAND FREE ENERGY PREDICTED BY IDOCK:   -1.06 KCAL/MOL
REMARK 927      BINDING AFFINITY PREDICTED BY RF-SCORE:    0.00 PKD
ROOT
HETATM    1  C   UNL     1     -10.159   5.244  71.346  1.00  0.00    -0.203 C  
HETATM    2  N   UNL     1     -10.247   6.081  70.182  1.00  0.00    -0.195 N  
HETATM    3  C   UNL     1      -9.978   7.431  70.252  1.00  0.00    -0.188 C  
HETATM    4  H   UNL     1     -10.512   5.669  69.287  1.00  0.00     0.000 HD 
HETATM    5  O   UNL     1      -9.602   7.996  71.274  1.00  0.00    -0.152 OA 
ENDROOT
BRANCH   3   6
HETATM    6  C   UNL     1     -10.183   8.189  68.977  1.00  0.00    -0.220 A  
HETATM    7  C   UNL     1     -10.945   9.349  69.007  1.00  0.00    -0.094 A  
HETATM    8  C   UNL     1     -11.092  10.062  67.825  1.00  0.00    -0.180 A  
HETATM    9  C   UNL     1     -10.533   9.566  66.651  1.00  0.00    -0.241 A  
HETATM   10  N   UNL     1      -9.604   7.687  67.851  1.00  0.00    -0.142 NA 
HETATM   11  C   UNL     1      -9.802   8.389  66.715  1.00  0.00    -0.259 A  
BRANCH   8  12
HETATM   12  O   UNL     1     -11.837  11.213  67.719  1.00  0.00    -0.608 OA 
BRANCH  12  13
HETATM   13  C   UNL     1     -11.287  12.326  67.118  1.00  0.00    -0.335 A  
HETATM   14  C   UNL     1     -10.358  13.042  67.876  1.00  0.00    -0.233 A  
HETATM   15  C   UNL     1      -9.801  14.207  67.358  1.00  0.00    -0.239 A  
HETATM   16  F   UNL     1      -8.919  14.898  68.096  1.00  0.00    -0.161 F  
HETATM   17  C   UNL     1     -10.199  14.705  66.115  1.00  0.00    -0.301 A  
HETATM   18  C   UNL     1     -11.675  12.804  65.860  1.00  0.00    -0.464 A  
HETATM   19  C   UNL     1     -11.126  13.988  65.356  1.00  0.00    -0.318 A  
BRANCH  17  20
HETATM   20  N   UNL     1      -9.667  15.933  65.661  1.00  0.00    -0.316 N  
HETATM   21  H   UNL     1      -8.694  15.985  65.359  1.00  0.00     0.000 HD 
BRANCH  20  22
HETATM   22  C   UNL     1     -10.463  17.070  65.625  1.00  0.00    -0.216 C  
HETATM   23  O   UNL     1     -11.130  17.428  64.657  1.00  0.00    -1.029 OA 
BRANCH  22  24
HETATM   24  N   UNL     1     -10.398  17.756  66.823  1.00  0.00    -0.348 N  
HETATM   25  H   UNL     1     -11.199  17.731  67.454  1.00  0.00     0.000 HD 
BRANCH  24  26
HETATM   26  C   UNL     1      -9.254  18.489  67.195  1.00  0.00    -0.277 A  
HETATM   27  C   UNL     1      -9.105  18.856  68.528  1.00  0.00    -0.392 A  
HETATM   28  C   UNL     1      -7.984  19.585  68.923  1.00  0.00    -0.329 A  
HETATM   29  C   UNL     1      -7.040  20.016  67.983  1.00  0.00    -0.287 A  
HETATM   30 CL   UNL     1      -5.716  20.932  68.605  1.00  0.00    -0.379 Cl 
HETATM   31  C   UNL     1      -7.198  19.704  66.628  1.00  0.00    -0.244 A  
HETATM   32  C   UNL     1      -8.302  18.900  66.253  1.00  0.00    -0.274 A  
HETATM   33  C   UNL     1      -6.290  20.202  65.531  1.00  0.00    -0.238 C  
HETATM   34  F   UNL     1      -5.687  19.184  64.856  1.00  0.00    -0.200 F  
HETATM   35  F   UNL     1      -6.987  20.902  64.587  1.00  0.00    -0.273 F  
HETATM   36  F   UNL     1      -5.283  21.033  65.910  1.00  0.00    -0.206 F  
ENDBRANCH  24  26
ENDBRANCH  22  24
ENDBRANCH  20  22
ENDBRANCH  17  20
ENDBRANCH  12  13
ENDBRANCH   8  12
ENDBRANCH   3   6
TORSDOF 7
ENDMDL
MODEL       82
REMARK 921   NORMALIZED FREE ENERGY PREDICTED BY IDOCK:   -6.11 KCAL/MOL
REMARK 922        TOTAL FREE ENERGY PREDICTED BY IDOCK:  -10.60 KCAL/MOL
REMARK 923 INTER-LIGAND FREE ENERGY PREDICTED BY IDOCK:   -9.68 KCAL/MOL
REMARK 924 INTRA-LIGAND FREE ENERGY PREDICTED BY IDOCK:   -0.92 KCAL/MOL
REMARK 927      BINDING AFFINITY PREDICTED BY RF-SCORE:    0.00 PKD
ROOT
HETATM    1  C   UNL     1     -10.495  20.074  65.458  1.00  0.00    -0.211 C  
HETATM    2  N   UNL     1     -10.257  19.168  66.548  1.00  0.00    -0.395 N  
HETATM    3  C   UNL     1     -10.210  17.805  66.345  1.00  0.00    -0.365 C  
HETATM    4  H   UNL     1     -10.121  19.539  67.488  1.00  0.00     0.000 HD 
HETATM    5  O   UNL     1     -10.312  17.279  65.242  1.00  0.00    -0.626 OA 
ENDROOT
BRANCH   3   6
HETATM    6  C   UNL     1     -10.030  16.983  67.583  1.00  0.00    -0.280 A  
HETATM    7  C   UNL     1     -11.155  16.448  68.196  1.00  0.00    -0.320 A  
HETATM    8  C   UNL     1     -10.968  15.654  69.320  1.00  0.00    -0.267 A  
HETATM    9  C   UNL     1      -9.685  15.474  69.827  1.00  0.00    -0.247 A  
HETATM   10  N   UNL     1      -8.759  16.809  68.039  1.00  0.00    -0.207 NA 
HETATM   11  C   UNL     1      -8.623  16.062  69.156  1.00  0.00    -0.247 A  
BRANCH   8  12
HETATM   12  O   UNL     1     -12.000  15.084  70.029  1.00  0.00    -0.293 OA 
BRANCH  12  13
HETATM   13  C   UNL     1     -12.159  13.714  70.016  1.00  0.00    -0.348 A  
HETATM   14  C   UNL     1     -12.610  13.134  71.203  1.00  0.00    -0.403 A  
HETATM   15  C   UNL     1     -12.743  11.751  71.283  1.00  0.00    -0.316 A  
HETATM   16  F   UNL     1     -13.163  11.197  72.431  1.00  0.00    -0.558 F  
HETATM   17  C   UNL     1     -12.377  10.929  70.215  1.00  0.00    -0.330 A  
HETATM   18  C   UNL     1     -11.813  12.901  68.930  1.00  0.00    -0.352 A  
HETATM   19  C   UNL     1     -11.928  11.510  69.027  1.00  0.00    -0.377 A  
BRANCH  17  20
HETATM   20  N   UNL     1     -12.452   9.525  70.367  1.00  0.00    -0.475 N  
HETATM   21  H   UNL     1     -13.328   9.040  70.171  1.00  0.00     0.000 HD 
BRANCH  20  22
HETATM   22  C   UNL     1     -11.340   8.805  70.780  1.00  0.00    -0.272 C  
HETATM   23  O   UNL     1     -10.247   9.297  71.048  1.00  0.00    -0.271 OA 
BRANCH  22  24
HETATM   24  N   UNL     1     -11.623   7.453  70.842  1.00  0.00    -0.286 N  
HETATM   25  H   UNL     1     -12.292   7.117  71.534  1.00  0.00     0.000 HD 
BRANCH  24  26
HETATM   26  C   UNL     1     -11.011   6.529  69.973  1.00  0.00    -0.332 A  
HETATM   27  C   UNL     1     -11.127   6.730  68.601  1.00  0.00    -0.224 A  
HETATM   28  C   UNL     1     -10.534   5.828  67.718  1.00  0.00    -0.289 A  
HETATM   29  C   UNL     1      -9.883   4.682  68.192  1.00  0.00    -0.107 A  
HETATM   30 CL   UNL     1      -9.217   3.639  66.990  1.00  0.00    -0.191 Cl 
HETATM   31  C   UNL     1      -9.801   4.433  69.567  1.00  0.00    -0.258 A  
HETATM   32  C   UNL     1     -10.344   5.395  70.453  1.00  0.00    -0.353 A  
HETATM   33  C   UNL     1      -9.207   3.183  70.168  1.00  0.00    -0.149 C  
HETATM   34  F   UNL     1      -8.148   3.453  70.982  1.00  0.00    -0.057 F  
HETATM   35  F   UNL     1     -10.114   2.530  70.956  1.00  0.00    -0.190 F  
HETATM   36  F   UNL     1      -8.763   2.243  69.293  1.00  0.00    -0.083 F  
ENDBRANCH  24  26
ENDBRANCH  22  24
ENDBRANCH  20  22
ENDBRANCH  17  20
ENDBRANCH  12  13
ENDBRANCH   8  12
ENDBRANCH   3   6
TORSDOF 7
ENDMDL
MODEL       83
REMARK 921   NORMALIZED FREE ENERGY PREDICTED BY IDOCK:   -6.10 KCAL/MOL
REMARK 922        TOTAL FREE ENERGY PREDICTED BY IDOCK:  -10.58 KCAL/MOL
REMARK 923 INTER-LIGAND FREE ENERGY PREDICTED BY IDOCK:   -9.06 KCAL/MOL
REMARK 924 INTRA-LIGAND FREE ENERGY PREDICTED BY IDOCK:   -1.52 KCAL/MOL
REMARK 927      BINDING AFFINITY PREDICTED BY RF-SCORE:    0.00 PKD
ROOT
HETATM    1  C   UNL     1      -9.741  16.077  69.234  1.00  0.00    -0.257 C  
HETATM    2  N   UNL     1     -10.383  14.945  69.845  1.00  0.00    -0.454 N  
HETATM    3  C   UNL     1     -11.756  14.867  69.934  1.00  0.00    -0.305 C  
HETATM    4  H   UNL     1      -9.813  14.187  70.219  1.00  0.00     0.000 HD 
HETATM    5  O   UNL     1     -12.516  15.708  69.465  1.00  0.00    -0.226 OA 
ENDROOT
BRANCH   3   6
HETATM    6  C   UNL     1     -12.279  13.667  70.662  1.00  0.00    -0.360 A  
HETATM    7  C   UNL     1     -11.854  12.409  70.261  1.00  0.00    -0.315 A  
HETATM    8  C   UNL     1     -12.316  11.309  70.972  1.00  0.00    -0.366 A  
HETATM    9  C   UNL     1     -13.226  11.494  72.008  1.00  0.00    -0.443 A  
HETATM   10  N   UNL     1     -13.152  13.888  71.684  1.00  0.00    -0.349 NA 
HETATM   11  C   UNL     1     -13.607  12.789  72.326  1.00  0.00    -0.465 A  
BRANCH   8  12
HETATM   12  O   UNL     1     -11.985  10.009  70.664  1.00  0.00    -0.285 OA 
BRANCH  12  13
HETATM   13  C   UNL     1     -10.934   9.760  69.806  1.00  0.00    -0.256 A  
HETATM   14  C   UNL     1     -11.269   9.240  68.555  1.00  0.00     0.197 A  
HETATM   15  C   UNL     1     -10.259   8.912  67.655  1.00  0.00    -0.237 A  
HETATM   16  F   UNL     1     -10.586   8.399  66.459  1.00  0.00    -0.371 F  
HETATM   17  C   UNL     1      -8.914   9.040  68.005  1.00  0.00    -0.132 A  
HETATM   18  C   UNL     1      -9.588   9.915  70.158  1.00  0.00    -0.237 A  
HETATM   19  C   UNL     1      -8.578   9.562  69.256  1.00  0.00    -0.149 A  
BRANCH  17  20
HETATM   20  N   UNL     1      -7.920   8.621  67.091  1.00  0.00    -0.100 N  
HETATM   21  H   UNL     1      -7.468   7.714  67.214  1.00  0.00     0.000 HD 
BRANCH  20  22
HETATM   22  C   UNL     1      -7.556   9.437  66.029  1.00  0.00    -0.099 C  
HETATM   23  O   UNL     1      -6.929   9.062  65.041  1.00  0.00    -0.078 OA 
BRANCH  22  24
HETATM   24  N   UNL     1      -7.986  10.734  66.234  1.00  0.00    -0.156 N  
HETATM   25  H   UNL     1      -7.510  11.310  66.928  1.00  0.00     0.000 HD 
BRANCH  24  26
HETATM   26  C   UNL     1      -9.063  11.281  65.510  1.00  0.00    -0.170 A  
HETATM   27  C   UNL     1      -9.200  10.943  64.167  1.00  0.00    -0.216 A  
HETATM   28  C   UNL     1     -10.255  11.473  63.426  1.00  0.00    -0.462 A  
HETATM   29  C   UNL     1     -11.140  12.398  63.995  1.00  0.00    -0.396 A  
HETATM   30 CL   UNL     1     -12.383  12.993  62.958  1.00  0.00    -0.285 Cl 
HETATM   31  C   UNL     1     -10.988  12.792  65.330  1.00  0.00    -0.314 A  
HETATM   32  C   UNL     1      -9.957  12.189  66.090  1.00  0.00    -0.253 A  
HETATM   33  C   UNL     1     -11.829  13.849  66.002  1.00  0.00    -0.393 C  
HETATM   34  F   UNL     1     -12.511  13.363  67.076  1.00  0.00    -0.369 F  
HETATM   35  F   UNL     1     -11.054  14.863  66.492  1.00  0.00    -0.319 F  
HETATM   36  F   UNL     1     -12.760  14.465  65.227  1.00  0.00    -0.439 F  
ENDBRANCH  24  26
ENDBRANCH  22  24
ENDBRANCH  20  22
ENDBRANCH  17  20
ENDBRANCH  12  13
ENDBRANCH   8  12
ENDBRANCH   3   6
TORSDOF 7
ENDMDL
MODEL       84
REMARK 921   NORMALIZED FREE ENERGY PREDICTED BY IDOCK:   -6.09 KCAL/MOL
REMARK 922        TOTAL FREE ENERGY PREDICTED BY IDOCK:  -10.56 KCAL/MOL
REMARK 923 INTER-LIGAND FREE ENERGY PREDICTED BY IDOCK:   -8.84 KCAL/MOL
REMARK 924 INTRA-LIGAND FREE ENERGY PREDICTED BY IDOCK:   -1.72 KCAL/MOL
REMARK 927      BINDING AFFINITY PREDICTED BY RF-SCORE:    0.00 PKD
ROOT
HETATM    1  C   UNL     1      -8.695   4.602  63.566  1.00  0.00    -0.136 C  
HETATM    2  N   UNL     1      -8.892   5.324  64.792  1.00  0.00    -0.290 N  
HETATM    3  C   UNL     1      -9.867   4.949  65.692  1.00  0.00    -0.134 C  
HETATM    4  H   UNL     1      -8.300   6.127  65.002  1.00  0.00     0.000 HD 
HETATM    5  O   UNL     1     -10.587   3.967  65.543  1.00  0.00    -0.074 OA 
ENDROOT
BRANCH   3   6
HETATM    6  C   UNL     1     -10.005   5.839  66.888  1.00  0.00    -0.171 A  
HETATM    7  C   UNL     1      -9.288   7.027  66.920  1.00  0.00    -0.185 A  
HETATM    8  C   UNL     1      -9.458   7.860  68.018  1.00  0.00    -0.149 A  
HETATM    9  C   UNL     1     -10.281   7.456  69.065  1.00  0.00    -0.201 A  
HETATM   10  N   UNL     1     -10.836   5.423  67.884  1.00  0.00    -0.020 NA 
HETATM   11  C   UNL     1     -10.944   6.244  68.951  1.00  0.00    -0.368 A  
BRANCH   8  12
HETATM   12  O   UNL     1      -8.791   9.053  68.179  1.00  0.00    -0.133 OA 
BRANCH  12  13
HETATM   13  C   UNL     1      -9.188  10.157  67.455  1.00  0.00    -0.137 A  
HETATM   14  C   UNL     1      -8.379  11.290  67.564  1.00  0.00    -0.131 A  
HETATM   15  C   UNL     1      -8.744  12.461  66.906  1.00  0.00    -0.191 A  
HETATM   16  F   UNL     1      -7.971  13.550  67.026  1.00  0.00    -0.172 F  
HETATM   17  C   UNL     1      -9.938  12.539  66.186  1.00  0.00    -0.255 A  
HETATM   18  C   UNL     1     -10.375  10.218  66.715  1.00  0.00    -0.288 A  
HETATM   19  C   UNL     1     -10.746  11.405  66.075  1.00  0.00    -0.318 A  
BRANCH  17  20
HETATM   20  N   UNL     1     -10.311  13.770  65.599  1.00  0.00    -0.301 N  
HETATM   21  H   UNL     1      -9.760  14.154  64.831  1.00  0.00     0.000 HD 
BRANCH  20  22
HETATM   22  C   UNL     1     -11.424  14.459  66.064  1.00  0.00    -0.349 C  
HETATM   23  O   UNL     1     -12.522  14.466  65.514  1.00  0.00    -0.408 OA 
BRANCH  22  24
HETATM   24  N   UNL     1     -11.128  15.147  67.225  1.00  0.00    -0.328 N  
HETATM   25  H   UNL     1     -10.501  15.950  67.181  1.00  0.00     0.000 HD 
BRANCH  24  26
HETATM   26  C   UNL     1     -11.669  14.767  68.469  1.00  0.00    -0.317 A  
HETATM   27  C   UNL     1     -12.065  15.765  69.354  1.00  0.00    -0.245 A  
HETATM   28  C   UNL     1     -12.601  15.417  70.593  1.00  0.00    -0.491 A  
HETATM   29  C   UNL     1     -12.682  14.076  70.990  1.00  0.00    -0.361 A  
HETATM   30 CL   UNL     1     -13.341  13.789  72.558  1.00  0.00    -0.631 Cl 
HETATM   31  C   UNL     1     -12.240  13.059  70.136  1.00  0.00    -0.342 A  
HETATM   32  C   UNL     1     -11.767  13.423  68.852  1.00  0.00    -0.369 A  
HETATM   33  C   UNL     1     -12.197  11.597  70.509  1.00  0.00    -0.361 C  
HETATM   34  F   UNL     1     -12.970  10.831  69.691  1.00  0.00    -0.264 F  
HETATM   35  F   UNL     1     -10.932  11.091  70.395  1.00  0.00    -0.290 F  
HETATM   36  F   UNL     1     -12.585  11.285  71.774  1.00  0.00    -0.434 F  
ENDBRANCH  24  26
ENDBRANCH  22  24
ENDBRANCH  20  22
ENDBRANCH  17  20
ENDBRANCH  12  13
ENDBRANCH   8  12
ENDBRANCH   3   6
TORSDOF 7
ENDMDL
MODEL       85
REMARK 921   NORMALIZED FREE ENERGY PREDICTED BY IDOCK:   -6.08 KCAL/MOL
REMARK 922        TOTAL FREE ENERGY PREDICTED BY IDOCK:  -10.55 KCAL/MOL
REMARK 923 INTER-LIGAND FREE ENERGY PREDICTED BY IDOCK:   -9.34 KCAL/MOL
REMARK 924 INTRA-LIGAND FREE ENERGY PREDICTED BY IDOCK:   -1.21 KCAL/MOL
REMARK 927      BINDING AFFINITY PREDICTED BY RF-SCORE:    0.00 PKD
ROOT
HETATM    1  C   UNL     1     -10.801  16.655  67.888  1.00  0.00    -0.321 C  
HETATM    2  N   UNL     1     -10.943  15.726  66.801  1.00  0.00    -0.251 N  
HETATM    3  C   UNL     1     -11.587  14.519  66.975  1.00  0.00    -0.386 C  
HETATM    4  H   UNL     1     -10.561  15.962  65.886  1.00  0.00     0.000 HD 
HETATM    5  O   UNL     1     -12.119  14.179  68.026  1.00  0.00    -0.351 OA 
ENDROOT
BRANCH   3   6
HETATM    6  C   UNL     1     -11.592  13.622  65.775  1.00  0.00    -0.333 A  
HETATM    7  C   UNL     1     -10.770  12.504  65.777  1.00  0.00    -0.299 A  
HETATM    8  C   UNL     1     -10.816  11.661  64.675  1.00  0.00    -0.314 A  
HETATM    9  C   UNL     1     -11.626  11.990  63.592  1.00  0.00    -0.578 A  
HETATM   10  N   UNL     1     -12.413  13.963  64.743  1.00  0.00    -0.600 NA 
HETATM   11  C   UNL     1     -12.401  13.137  63.675  1.00  0.00    -0.404 A  
BRANCH   8  12
HETATM   12  O   UNL     1     -10.038  10.534  64.546  1.00  0.00    -0.334 OA 
BRANCH  12  13
HETATM   13  C   UNL     1      -9.463   9.972  65.667  1.00  0.00    -0.220 A  
HETATM   14  C   UNL     1     -10.238   9.036  66.355  1.00  0.00    -0.297 A  
HETATM   15  C   UNL     1      -9.747   8.466  67.525  1.00  0.00    -0.162 A  
HETATM   16  F   UNL     1     -10.503   7.578  68.190  1.00  0.00    -0.207 F  
HETATM   17  C   UNL     1      -8.517   8.858  68.056  1.00  0.00    -0.126 A  
HETATM   18  C   UNL     1      -8.217  10.354  66.177  1.00  0.00    -0.144 A  
HETATM   19  C   UNL     1      -7.740   9.793  67.367  1.00  0.00    -0.095 A  
BRANCH  17  20
HETATM   20  N   UNL     1      -8.092   8.313  69.290  1.00  0.00    -0.114 N  
HETATM   21  H   UNL     1      -8.023   7.301  69.401  1.00  0.00     0.000 HD 
BRANCH  20  22
HETATM   22  C   UNL     1      -7.768   9.149  70.350  1.00  0.00    -0.127 C  
HETATM   23  O   UNL     1      -6.646   9.258  70.839  1.00  0.00    -0.072 OA 
BRANCH  22  24
HETATM   24  N   UNL     1      -8.882   9.837  70.793  1.00  0.00    -0.174 N  
HETATM   25  H   UNL     1      -8.812  10.841  70.957  1.00  0.00     0.000 HD 
BRANCH  24  26
HETATM   26  C   UNL     1     -10.110   9.188  71.024  1.00  0.00    -0.303 A  
HETATM   27  C   UNL     1     -11.287   9.886  70.774  1.00  0.00    -0.430 A  
HETATM   28  C   UNL     1     -12.517   9.269  70.997  1.00  0.00    -0.276 A  
HETATM   29  C   UNL     1     -12.586   7.978  71.537  1.00  0.00    -0.312 A  
HETATM   30 CL   UNL     1     -14.171   7.345  71.786  1.00  0.00    -0.539 Cl 
HETATM   31  C   UNL     1     -11.414   7.278  71.845  1.00  0.00    -0.302 A  
HETATM   32  C   UNL     1     -10.172   7.890  71.544  1.00  0.00    -0.232 A  
HETATM   33  C   UNL     1     -11.385   5.927  72.516  1.00  0.00    -0.304 C  
HETATM   34  F   UNL     1     -10.777   4.980  71.748  1.00  0.00    -0.272 F  
HETATM   35  F   UNL     1     -10.669   5.964  73.680  1.00  0.00    -0.236 F  
HETATM   36  F   UNL     1     -12.588   5.398  72.862  1.00  0.00    -0.229 F  
ENDBRANCH  24  26
ENDBRANCH  22  24
ENDBRANCH  20  22
ENDBRANCH  17  20
ENDBRANCH  12  13
ENDBRANCH   8  12
ENDBRANCH   3   6
TORSDOF 7
ENDMDL
MODEL       86
REMARK 921   NORMALIZED FREE ENERGY PREDICTED BY IDOCK:   -6.07 KCAL/MOL
REMARK 922        TOTAL FREE ENERGY PREDICTED BY IDOCK:  -10.54 KCAL/MOL
REMARK 923 INTER-LIGAND FREE ENERGY PREDICTED BY IDOCK:   -9.97 KCAL/MOL
REMARK 924 INTRA-LIGAND FREE ENERGY PREDICTED BY IDOCK:   -0.57 KCAL/MOL
REMARK 927      BINDING AFFINITY PREDICTED BY RF-SCORE:    0.00 PKD
ROOT
HETATM    1  C   UNL     1      -8.810   6.574  66.580  1.00  0.00    -0.132 C  
HETATM    2  N   UNL     1      -9.278   7.674  65.783  1.00  0.00    -0.393 N  
HETATM    3  C   UNL     1      -8.404   8.440  65.042  1.00  0.00    -0.158 C  
HETATM    4  H   UNL     1     -10.274   7.891  65.764  1.00  0.00     0.000 HD 
HETATM    5  O   UNL     1      -7.200   8.215  64.967  1.00  0.00    -0.072 OA 
ENDROOT
BRANCH   3   6
HETATM    6  C   UNL     1      -9.024   9.596  64.321  1.00  0.00    -0.229 A  
HETATM    7  C   UNL     1     -10.096  10.250  64.911  1.00  0.00    -0.346 A  
HETATM    8  C   UNL     1     -10.635  11.346  64.250  1.00  0.00    -0.355 A  
HETATM    9  C   UNL     1     -10.132  11.711  63.004  1.00  0.00    -0.311 A  
HETATM   10  N   UNL     1      -8.493   9.939  63.115  1.00  0.00    -0.161 NA 
HETATM   11  C   UNL     1      -9.069  10.987  62.486  1.00  0.00    -0.323 A  
BRANCH   8  12
HETATM   12  O   UNL     1     -11.709  12.066  64.719  1.00  0.00    -0.333 OA 
BRANCH  12  13
HETATM   13  C   UNL     1     -11.703  12.528  66.018  1.00  0.00    -0.417 A  
HETATM   14  C   UNL     1     -11.416  11.586  67.007  1.00  0.00    -0.290 A  
HETATM   15  C   UNL     1     -11.444  11.966  68.346  1.00  0.00    -0.299 A  
HETATM   16  F   UNL     1     -11.181  11.053  69.293  1.00  0.00    -0.212 F  
HETATM   17  C   UNL     1     -11.814  13.259  68.720  1.00  0.00    -0.334 A  
HETATM   18  C   UNL     1     -12.051  13.835  66.381  1.00  0.00    -0.483 A  
HETATM   19  C   UNL     1     -12.099  14.203  67.730  1.00  0.00    -0.321 A  
BRANCH  17  20
HETATM   20  N   UNL     1     -11.907  13.581  70.093  1.00  0.00    -0.451 N  
HETATM   21  H   UNL     1     -12.053  12.840  70.779  1.00  0.00     0.000 HD 
BRANCH  20  22
HETATM   22  C   UNL     1     -11.802  14.900  70.512  1.00  0.00    -0.303 C  
HETATM   23  O   UNL     1     -12.755  15.638  70.752  1.00  0.00    -0.458 OA 
BRANCH  22  24
HETATM   24  N   UNL     1     -10.477  15.280  70.615  1.00  0.00    -0.486 N  
HETATM   25  H   UNL     1      -9.943  15.004  71.439  1.00  0.00     0.000 HD 
BRANCH  24  26
HETATM   26  C   UNL     1      -9.845  16.039  69.611  1.00  0.00    -0.196 A  
HETATM   27  C   UNL     1      -8.768  15.477  68.932  1.00  0.00    -0.206 A  
HETATM   28  C   UNL     1      -8.122  16.208  67.936  1.00  0.00    -0.152 A  
HETATM   29  C   UNL     1      -8.496  17.529  67.657  1.00  0.00    -0.215 A  
HETATM   30 CL   UNL     1      -7.595  18.325  66.419  1.00  0.00    -0.268 Cl 
HETATM   31  C   UNL     1      -9.542  18.132  68.365  1.00  0.00    -0.345 A  
HETATM   32  C   UNL     1     -10.236  17.352  69.322  1.00  0.00    -0.204 A  
HETATM   33  C   UNL     1      -9.954  19.574  68.204  1.00  0.00    -0.418 C  
HETATM   34  F   UNL     1     -11.246  19.701  67.793  1.00  0.00    -0.460 F  
HETATM   35  F   UNL     1      -9.881  20.248  69.392  1.00  0.00    -0.232 F  
HETATM   36  F   UNL     1      -9.221  20.319  67.335  1.00  0.00    -0.406 F  
ENDBRANCH  24  26
ENDBRANCH  22  24
ENDBRANCH  20  22
ENDBRANCH  17  20
ENDBRANCH  12  13
ENDBRANCH   8  12
ENDBRANCH   3   6
TORSDOF 7
ENDMDL
MODEL       87
REMARK 921   NORMALIZED FREE ENERGY PREDICTED BY IDOCK:   -6.05 KCAL/MOL
REMARK 922        TOTAL FREE ENERGY PREDICTED BY IDOCK:  -10.51 KCAL/MOL
REMARK 923 INTER-LIGAND FREE ENERGY PREDICTED BY IDOCK:   -8.86 KCAL/MOL
REMARK 924 INTRA-LIGAND FREE ENERGY PREDICTED BY IDOCK:   -1.65 KCAL/MOL
REMARK 927      BINDING AFFINITY PREDICTED BY RF-SCORE:    0.00 PKD
ROOT
HETATM    1  C   UNL     1     -12.257  15.555  69.834  1.00  0.00    -0.325 C  
HETATM    2  N   UNL     1     -12.223  14.884  68.564  1.00  0.00    -0.597 N  
HETATM    3  C   UNL     1     -11.027  14.556  67.962  1.00  0.00    -0.260 C  
HETATM    4  H   UNL     1     -13.099  14.646  68.099  1.00  0.00     0.000 HD 
HETATM    5  O   UNL     1      -9.932  14.758  68.475  1.00  0.00    -0.215 OA 
ENDROOT
BRANCH   3   6
HETATM    6  C   UNL     1     -11.146  13.928  66.608  1.00  0.00    -0.306 A  
HETATM    7  C   UNL     1     -10.182  13.013  66.212  1.00  0.00    -0.291 A  
HETATM    8  C   UNL     1     -10.329  12.409  64.970  1.00  0.00    -0.293 A  
HETATM    9  C   UNL     1     -11.388  12.781  64.147  1.00  0.00    -0.442 A  
HETATM   10  N   UNL     1     -12.207  14.300  65.838  1.00  0.00    -0.420 NA 
HETATM   11  C   UNL     1     -12.293  13.718  64.622  1.00  0.00    -0.372 A  
BRANCH   8  12
HETATM   12  O   UNL     1      -9.433  11.501  64.454  1.00  0.00    -0.184 OA 
BRANCH  12  13
HETATM   13  C   UNL     1      -9.117  10.371  65.177  1.00  0.00    -0.198 A  
HETATM   14  C   UNL     1     -10.193   9.584  65.594  1.00  0.00    -0.014 A  
HETATM   15  C   UNL     1      -9.957   8.456  66.375  1.00  0.00    -0.221 A  
HETATM   16  F   UNL     1     -10.995   7.713  66.785  1.00  0.00    -0.421 F  
HETATM   17  C   UNL     1      -8.666   8.130  66.797  1.00  0.00    -0.135 A  
HETATM   18  C   UNL     1      -7.816  10.039  65.575  1.00  0.00    -0.134 A  
HETATM   19  C   UNL     1      -7.590   8.915  66.378  1.00  0.00    -0.092 A  
BRANCH  17  20
HETATM   20  N   UNL     1      -8.480   7.022  67.655  1.00  0.00    -0.123 N  
HETATM   21  H   UNL     1      -8.488   6.077  67.271  1.00  0.00     0.000 HD 
BRANCH  20  22
HETATM   22  C   UNL     1      -8.287   7.214  69.016  1.00  0.00    -0.126 C  
HETATM   23  O   UNL     1      -7.198   7.425  69.546  1.00  0.00    -0.078 OA 
BRANCH  22  24
HETATM   24  N   UNL     1      -9.484   7.128  69.701  1.00  0.00    -0.152 N  
HETATM   25  H   UNL     1      -9.819   6.212  70.000  1.00  0.00     0.000 HD 
BRANCH  24  26
HETATM   26  C   UNL     1     -10.252   8.270  69.997  1.00  0.00    -0.202 A  
HETATM   27  C   UNL     1      -9.779   9.513  69.588  1.00  0.00    -0.215 A  
HETATM   28  C   UNL     1     -10.518  10.661  69.870  1.00  0.00    -0.136 A  
HETATM   29  C   UNL     1     -11.697  10.589  70.623  1.00  0.00    -0.357 A  
HETATM   30 CL   UNL     1     -12.497  12.088  70.921  1.00  0.00    -0.439 Cl 
HETATM   31  C   UNL     1     -12.163   9.355  71.089  1.00  0.00    -0.402 A  
HETATM   32  C   UNL     1     -11.441   8.190  70.732  1.00  0.00    -0.272 A  
HETATM   33  C   UNL     1     -13.366   9.187  71.985  1.00  0.00    -0.445 C  
HETATM   34  F   UNL     1     -14.332   8.415  71.414  1.00  0.00    -0.437 F  
HETATM   35  F   UNL     1     -13.034   8.553  73.150  1.00  0.00    -0.239 F  
HETATM   36  F   UNL     1     -13.994  10.327  72.374  1.00  0.00    -0.316 F  
ENDBRANCH  24  26
ENDBRANCH  22  24
ENDBRANCH  20  22
ENDBRANCH  17  20
ENDBRANCH  12  13
ENDBRANCH   8  12
ENDBRANCH   3   6
TORSDOF 7
ENDMDL
MODEL       88
REMARK 921   NORMALIZED FREE ENERGY PREDICTED BY IDOCK:   -6.03 KCAL/MOL
REMARK 922        TOTAL FREE ENERGY PREDICTED BY IDOCK:  -10.49 KCAL/MOL
REMARK 923 INTER-LIGAND FREE ENERGY PREDICTED BY IDOCK:   -9.54 KCAL/MOL
REMARK 924 INTRA-LIGAND FREE ENERGY PREDICTED BY IDOCK:   -0.95 KCAL/MOL
REMARK 927      BINDING AFFINITY PREDICTED BY RF-SCORE:    0.00 PKD
ROOT
HETATM    1  C   UNL     1      -8.563   8.828  62.698  1.00  0.00    -0.150 C  
HETATM    2  N   UNL     1      -9.476   9.646  63.448  1.00  0.00    -0.494 N  
HETATM    3  C   UNL     1      -9.574  11.002  63.216  1.00  0.00    -0.345 C  
HETATM    4  H   UNL     1     -10.061   9.217  64.165  1.00  0.00     0.000 HD 
HETATM    5  O   UNL     1      -8.947  11.587  62.339  1.00  0.00    -0.316 OA 
ENDROOT
BRANCH   3   6
HETATM    6  C   UNL     1     -10.511  11.737  64.123  1.00  0.00    -0.346 A  
HETATM    7  C   UNL     1     -10.117  11.978  65.432  1.00  0.00    -0.285 A  
HETATM    8  C   UNL     1     -10.979  12.697  66.249  1.00  0.00    -0.283 A  
HETATM    9  C   UNL     1     -12.220  13.092  65.759  1.00  0.00    -0.511 A  
HETATM   10  N   UNL     1     -11.708  12.127  63.603  1.00  0.00    -0.466 NA 
HETATM   11  C   UNL     1     -12.534  12.791  64.442  1.00  0.00    -0.399 A  
BRANCH   8  12
HETATM   12  O   UNL     1     -10.715  12.984  67.569  1.00  0.00    -0.234 OA 
BRANCH  12  13
HETATM   13  C   UNL     1     -11.171  12.135  68.554  1.00  0.00    -0.260 A  
HETATM   14  C   UNL     1     -11.947  12.717  69.560  1.00  0.00    -0.332 A  
HETATM   15  C   UNL     1     -12.399  11.934  70.618  1.00  0.00    -0.313 A  
HETATM   16  F   UNL     1     -13.131  12.502  71.588  1.00  0.00    -0.461 F  
HETATM   17  C   UNL     1     -12.040  10.589  70.723  1.00  0.00    -0.370 A  
HETATM   18  C   UNL     1     -10.827  10.781  68.637  1.00  0.00    -0.260 A  
HETATM   19  C   UNL     1     -11.267  10.006  69.716  1.00  0.00    -0.307 A  
BRANCH  17  20
HETATM   20  N   UNL     1     -12.454   9.850  71.854  1.00  0.00    -0.378 N  
HETATM   21  H   UNL     1     -12.477  10.297  72.772  1.00  0.00     0.000 HD 
BRANCH  20  22
HETATM   22  C   UNL     1     -12.830   8.520  71.724  1.00  0.00    -0.348 C  
HETATM   23  O   UNL     1     -13.497   8.068  70.796  1.00  0.00     0.188 OA 
BRANCH  22  24
HETATM   24  N   UNL     1     -12.361   7.769  72.785  1.00  0.00    -0.574 N  
HETATM   25  H   UNL     1     -12.933   7.688  73.626  1.00  0.00     0.000 HD 
BRANCH  24  26
HETATM   26  C   UNL     1     -11.116   7.114  72.736  1.00  0.00    -0.300 A  
HETATM   27  C   UNL     1     -10.007   7.754  73.280  1.00  0.00    -0.370 A  
HETATM   28  C   UNL     1      -8.761   7.129  73.241  1.00  0.00    -0.162 A  
HETATM   29  C   UNL     1      -8.595   5.895  72.598  1.00  0.00    -0.119 A  
HETATM   30 CL   UNL     1      -6.996   5.249  72.602  1.00  0.00    -0.082 Cl 
HETATM   31  C   UNL     1      -9.688   5.259  71.998  1.00  0.00    -0.202 A  
HETATM   32  C   UNL     1     -10.960   5.871  72.110  1.00  0.00    -0.317 A  
HETATM   33  C   UNL     1      -9.592   3.981  71.202  1.00  0.00    -0.171 C  
HETATM   34  F   UNL     1     -10.345   2.980  71.738  1.00  0.00    -0.215 F  
HETATM   35  F   UNL     1     -10.063   4.150  69.930  1.00  0.00    -0.291 F  
HETATM   36  F   UNL     1      -8.347   3.457  71.047  1.00  0.00    -0.062 F  
ENDBRANCH  24  26
ENDBRANCH  22  24
ENDBRANCH  20  22
ENDBRANCH  17  20
ENDBRANCH  12  13
ENDBRANCH   8  12
ENDBRANCH   3   6
TORSDOF 7
ENDMDL
MODEL       89
REMARK 921   NORMALIZED FREE ENERGY PREDICTED BY IDOCK:   -6.03 KCAL/MOL
REMARK 922        TOTAL FREE ENERGY PREDICTED BY IDOCK:  -10.49 KCAL/MOL
REMARK 923 INTER-LIGAND FREE ENERGY PREDICTED BY IDOCK:   -8.34 KCAL/MOL
REMARK 924 INTRA-LIGAND FREE ENERGY PREDICTED BY IDOCK:   -2.14 KCAL/MOL
REMARK 927      BINDING AFFINITY PREDICTED BY RF-SCORE:    0.00 PKD
ROOT
HETATM    1  C   UNL     1      -8.149   6.984  70.394  1.00  0.00    -0.119 C  
HETATM    2  N   UNL     1      -8.573   7.964  69.433  1.00  0.00    -0.136 N  
HETATM    3  C   UNL     1      -8.316   7.802  68.088  1.00  0.00    -0.124 C  
HETATM    4  H   UNL     1      -9.074   8.795  69.750  1.00  0.00     0.000 HD 
HETATM    5  O   UNL     1      -7.768   6.811  67.617  1.00  0.00    -0.106 OA 
ENDROOT
BRANCH   3   6
HETATM    6  C   UNL     1      -8.751   8.939  67.215  1.00  0.00    -0.121 A  
HETATM    7  C   UNL     1      -8.130  10.170  67.369  1.00  0.00    -0.114 A  
HETATM    8  C   UNL     1      -8.515  11.203  66.525  1.00  0.00    -0.165 A  
HETATM    9  C   UNL     1      -9.540  10.993  65.606  1.00  0.00    -0.265 A  
HETATM   10  N   UNL     1      -9.740   8.691  66.313  1.00  0.00    -0.258 NA 
HETATM   11  C   UNL     1     -10.112   9.732  65.536  1.00  0.00    -0.172 A  
BRANCH   8  12
HETATM   12  O   UNL     1      -7.993  12.474  66.589  1.00  0.00     0.009 OA 
BRANCH  12  13
HETATM   13  C   UNL     1      -8.741  13.490  67.146  1.00  0.00    -0.215 A  
HETATM   14  C   UNL     1      -8.277  14.006  68.358  1.00  0.00    -0.150 A  
HETATM   15  C   UNL     1      -9.008  14.996  69.007  1.00  0.00    -0.205 A  
HETATM   16  F   UNL     1      -8.565  15.478  70.179  1.00  0.00    -0.122 F  
HETATM   17  C   UNL     1     -10.229  15.441  68.497  1.00  0.00    -0.219 A  
HETATM   18  C   UNL     1      -9.952  13.947  66.613  1.00  0.00    -0.279 A  
HETATM   19  C   UNL     1     -10.692  14.927  67.284  1.00  0.00    -0.294 A  
BRANCH  17  20
HETATM   20  N   UNL     1     -10.978  16.390  69.230  1.00  0.00    -0.322 N  
HETATM   21  H   UNL     1     -11.037  17.354  68.901  1.00  0.00     0.000 HD 
BRANCH  20  22
HETATM   22  C   UNL     1     -11.636  16.015  70.394  1.00  0.00    -0.348 C  
HETATM   23  O   UNL     1     -11.304  16.357  71.526  1.00  0.00    -0.308 OA 
BRANCH  22  24
HETATM   24  N   UNL     1     -12.711  15.195  70.111  1.00  0.00    -0.602 N  
HETATM   25  H   UNL     1     -13.474  15.556  69.538  1.00  0.00     0.000 HD 
BRANCH  24  26
HETATM   26  C   UNL     1     -12.781  13.873  70.592  1.00  0.00    -0.281 A  
HETATM   27  C   UNL     1     -13.523  13.624  71.742  1.00  0.00    -0.465 A  
HETATM   28  C   UNL     1     -13.606  12.325  72.243  1.00  0.00    -0.299 A  
HETATM   29  C   UNL     1     -12.894  11.278  71.644  1.00  0.00    -0.405 A  
HETATM   30 CL   UNL     1     -13.066   9.728  72.381  1.00  0.00    -0.423 Cl 
HETATM   31  C   UNL     1     -12.099  11.517  70.518  1.00  0.00    -0.472 A  
HETATM   32  C   UNL     1     -12.083  12.826  69.978  1.00  0.00    -0.355 A  
HETATM   33  C   UNL     1     -11.223  10.478  69.862  1.00  0.00    -0.307 C  
HETATM   34  F   UNL     1     -11.567  10.256  68.563  1.00  0.00    -0.297 F  
HETATM   35  F   UNL     1      -9.916  10.878  69.829  1.00  0.00    -0.163 F  
HETATM   36  F   UNL     1     -11.198   9.251  70.447  1.00  0.00    -0.244 F  
ENDBRANCH  24  26
ENDBRANCH  22  24
ENDBRANCH  20  22
ENDBRANCH  17  20
ENDBRANCH  12  13
ENDBRANCH   8  12
ENDBRANCH   3   6
TORSDOF 7
ENDMDL
MODEL       90
REMARK 921   NORMALIZED FREE ENERGY PREDICTED BY IDOCK:   -6.03 KCAL/MOL
REMARK 922        TOTAL FREE ENERGY PREDICTED BY IDOCK:  -10.49 KCAL/MOL
REMARK 923 INTER-LIGAND FREE ENERGY PREDICTED BY IDOCK:   -9.09 KCAL/MOL
REMARK 924 INTRA-LIGAND FREE ENERGY PREDICTED BY IDOCK:   -1.39 KCAL/MOL
REMARK 927      BINDING AFFINITY PREDICTED BY RF-SCORE:    0.00 PKD
ROOT
HETATM    1  C   UNL     1     -13.903   7.413  71.424  1.00  0.00    -0.328 C  
HETATM    2  N   UNL     1     -12.563   7.473  70.911  1.00  0.00    -0.554 N  
HETATM    3  C   UNL     1     -11.573   8.160  71.581  1.00  0.00    -0.279 C  
HETATM    4  H   UNL     1     -12.339   7.000  70.036  1.00  0.00     0.000 HD 
HETATM    5  O   UNL     1     -11.744   8.712  72.663  1.00  0.00    -0.325 OA 
ENDROOT
BRANCH   3   6
HETATM    6  C   UNL     1     -10.245   8.199  70.890  1.00  0.00    -0.189 A  
HETATM    7  C   UNL     1     -10.218   8.352  69.511  1.00  0.00    -0.207 A  
HETATM    8  C   UNL     1      -8.978   8.428  68.889  1.00  0.00    -0.146 A  
HETATM    9  C   UNL     1      -7.820   8.288  69.648  1.00  0.00    -0.102 A  
HETATM   10  N   UNL     1      -9.133   8.081  71.666  1.00  0.00    -0.140 NA 
HETATM   11  C   UNL     1      -7.948   8.122  71.019  1.00  0.00    -0.095 A  
BRANCH   8  12
HETATM   12  O   UNL     1      -8.816   8.559  67.529  1.00  0.00    -0.134 OA 
BRANCH  12  13
HETATM   13  C   UNL     1      -9.088   9.768  66.925  1.00  0.00    -0.142 A  
HETATM   14  C   UNL     1      -8.282  10.843  67.305  1.00  0.00    -0.123 A  
HETATM   15  C   UNL     1      -8.531  12.107  66.778  1.00  0.00    -0.138 A  
HETATM   16  F   UNL     1      -7.763  13.140  67.158  1.00  0.00    -0.159 F  
HETATM   17  C   UNL     1      -9.610  12.330  65.921  1.00  0.00    -0.198 A  
HETATM   18  C   UNL     1     -10.158   9.976  66.046  1.00  0.00    -0.318 A  
HETATM   19  C   UNL     1     -10.415  11.255  65.539  1.00  0.00    -0.323 A  
BRANCH  17  20
HETATM   20  N   UNL     1      -9.875  13.644  65.472  1.00  0.00    -0.499 N  
HETATM   21  H   UNL     1      -9.205  14.119  64.867  1.00  0.00     0.000 HD 
BRANCH  20  22
HETATM   22  C   UNL     1     -11.044  14.291  65.850  1.00  0.00    -0.310 C  
HETATM   23  O   UNL     1     -12.006  14.489  65.112  1.00  0.00    -0.369 OA 
BRANCH  22  24
HETATM   24  N   UNL     1     -10.979  14.696  67.170  1.00  0.00    -0.307 N  
HETATM   25  H   UNL     1     -11.498  14.173  67.876  1.00  0.00     0.000 HD 
BRANCH  24  26
HETATM   26  C   UNL     1     -10.214  15.810  67.566  1.00  0.00    -0.265 A  
HETATM   27  C   UNL     1      -9.209  15.624  68.510  1.00  0.00    -0.197 A  
HETATM   28  C   UNL     1      -8.439  16.711  68.922  1.00  0.00    -0.233 A  
HETATM   29  C   UNL     1      -8.710  18.003  68.452  1.00  0.00    -0.293 A  
HETATM   30 CL   UNL     1      -7.697  19.258  69.064  1.00  0.00    -0.373 Cl 
HETATM   31  C   UNL     1      -9.751  18.220  67.543  1.00  0.00    -0.305 A  
HETATM   32  C   UNL     1     -10.476  17.096  67.077  1.00  0.00    -0.282 A  
HETATM   33  C   UNL     1     -10.180  19.582  67.054  1.00  0.00    -0.426 C  
HETATM   34  F   UNL     1     -10.065  19.707  65.703  1.00  0.00    -0.434 F  
HETATM   35  F   UNL     1     -11.498  19.818  67.332  1.00  0.00    -0.399 F  
HETATM   36  F   UNL     1      -9.517  20.648  67.576  1.00  0.00    -0.502 F  
ENDBRANCH  24  26
ENDBRANCH  22  24
ENDBRANCH  20  22
ENDBRANCH  17  20
ENDBRANCH  12  13
ENDBRANCH   8  12
ENDBRANCH   3   6
TORSDOF 7
ENDMDL
MODEL       91
REMARK 921   NORMALIZED FREE ENERGY PREDICTED BY IDOCK:   -6.03 KCAL/MOL
REMARK 922        TOTAL FREE ENERGY PREDICTED BY IDOCK:  -10.49 KCAL/MOL
REMARK 923 INTER-LIGAND FREE ENERGY PREDICTED BY IDOCK:   -9.70 KCAL/MOL
REMARK 924 INTRA-LIGAND FREE ENERGY PREDICTED BY IDOCK:   -0.79 KCAL/MOL
REMARK 927      BINDING AFFINITY PREDICTED BY RF-SCORE:    0.00 PKD
ROOT
HETATM    1  C   UNL     1      -5.576   8.502  72.974  1.00  0.00    -0.069 C  
HETATM    2  N   UNL     1      -6.878   8.414  72.373  1.00  0.00    -0.095 N  
HETATM    3  C   UNL     1      -8.021   8.409  73.145  1.00  0.00    -0.087 C  
HETATM    4  H   UNL     1      -6.959   8.354  71.358  1.00  0.00     0.000 HD 
HETATM    5  O   UNL     1      -8.016   8.529  74.365  1.00  0.00    -0.328 OA 
ENDROOT
BRANCH   3   6
HETATM    6  C   UNL     1      -9.300   8.236  72.386  1.00  0.00    -0.268 A  
HETATM    7  C   UNL     1      -9.258   8.248  70.999  1.00  0.00    -0.191 A  
HETATM    8  C   UNL     1     -10.447   8.045  70.310  1.00  0.00    -0.222 A  
HETATM    9  C   UNL     1     -11.635   7.902  71.019  1.00  0.00    -0.299 A  
HETATM   10  N   UNL     1     -10.441   8.076  73.113  1.00  0.00    -0.286 NA 
HETATM   11  C   UNL     1     -11.581   7.920  72.405  1.00  0.00    -0.380 A  
BRANCH   8  12
HETATM   12  O   UNL     1     -10.542   8.055  68.937  1.00  0.00    -0.210 OA 
BRANCH  12  13
HETATM   13  C   UNL     1     -10.780   9.243  68.280  1.00  0.00    -0.145 A  
HETATM   14  C   UNL     1     -10.332   9.319  66.960  1.00  0.00    -0.325 A  
HETATM   15  C   UNL     1     -10.488  10.506  66.249  1.00  0.00    -0.183 A  
HETATM   16  F   UNL     1     -10.043  10.577  64.985  1.00  0.00    -0.310 F  
HETATM   17  C   UNL     1     -11.032  11.641  66.853  1.00  0.00    -0.292 A  
HETATM   18  C   UNL     1     -11.349  10.369  68.888  1.00  0.00    -0.278 A  
HETATM   19  C   UNL     1     -11.482  11.565  68.173  1.00  0.00    -0.385 A  
BRANCH  17  20
HETATM   20  N   UNL     1     -11.099  12.848  66.121  1.00  0.00    -0.280 N  
HETATM   21  H   UNL     1     -11.896  13.027  65.509  1.00  0.00     0.000 HD 
BRANCH  20  22
HETATM   22  C   UNL     1     -10.086  13.791  66.230  1.00  0.00    -0.300 C  
HETATM   23  O   UNL     1      -8.953  13.557  66.645  1.00  0.00    -0.210 OA 
BRANCH  22  24
HETATM   24  N   UNL     1     -10.524  15.035  65.818  1.00  0.00    -0.315 N  
HETATM   25  H   UNL     1     -10.965  15.129  64.904  1.00  0.00     0.000 HD 
BRANCH  24  26
HETATM   26  C   UNL     1     -10.377  16.177  66.629  1.00  0.00    -0.296 A  
HETATM   27  C   UNL     1     -10.593  16.052  67.998  1.00  0.00    -0.295 A  
HETATM   28  C   UNL     1     -10.458  17.167  68.824  1.00  0.00    -0.351 A  
HETATM   29  C   UNL     1     -10.177  18.430  68.286  1.00  0.00    -0.384 A  
HETATM   30 CL   UNL     1     -10.063  19.726  69.418  1.00  0.00    -0.368 Cl 
HETATM   31  C   UNL     1     -10.009  18.588  66.905  1.00  0.00    -0.370 A  
HETATM   32  C   UNL     1     -10.076  17.433  66.088  1.00  0.00    -0.309 A  
HETATM   33  C   UNL     1      -9.800  19.917  66.224  1.00  0.00    -0.461 C  
HETATM   34  F   UNL     1      -8.617  19.974  65.550  1.00  0.00    -0.288 F  
HETATM   35  F   UNL     1     -10.765  20.152  65.284  1.00  0.00    -0.535 F  
HETATM   36  F   UNL     1      -9.816  21.016  67.024  1.00  0.00    -0.585 F  
ENDBRANCH  24  26
ENDBRANCH  22  24
ENDBRANCH  20  22
ENDBRANCH  17  20
ENDBRANCH  12  13
ENDBRANCH   8  12
ENDBRANCH   3   6
TORSDOF 7
ENDMDL
MODEL       92
REMARK 921   NORMALIZED FREE ENERGY PREDICTED BY IDOCK:   -6.02 KCAL/MOL
REMARK 922        TOTAL FREE ENERGY PREDICTED BY IDOCK:  -10.47 KCAL/MOL
REMARK 923 INTER-LIGAND FREE ENERGY PREDICTED BY IDOCK:   -9.61 KCAL/MOL
REMARK 924 INTRA-LIGAND FREE ENERGY PREDICTED BY IDOCK:   -0.86 KCAL/MOL
REMARK 927      BINDING AFFINITY PREDICTED BY RF-SCORE:    0.00 PKD
ROOT
HETATM    1  C   UNL     1      -5.933   8.553  73.683  1.00  0.00    -0.115 C  
HETATM    2  N   UNL     1      -7.292   8.144  73.455  1.00  0.00    -0.142 N  
HETATM    3  C   UNL     1      -7.586   6.889  72.964  1.00  0.00    -0.088 C  
HETATM    4  H   UNL     1      -8.052   8.792  73.660  1.00  0.00     0.000 HD 
HETATM    5  O   UNL     1      -6.737   6.032  72.741  1.00  0.00    -0.070 OA 
ENDROOT
BRANCH   3   6
HETATM    6  C   UNL     1      -9.038   6.631  72.707  1.00  0.00    -0.136 A  
HETATM    7  C   UNL     1      -9.678   7.363  71.717  1.00  0.00    -0.172 A  
HETATM    8  C   UNL     1     -11.014   7.083  71.462  1.00  0.00    -0.234 A  
HETATM    9  C   UNL     1     -11.677   6.136  72.237  1.00  0.00    -0.352 A  
HETATM   10  N   UNL     1      -9.649   5.682  73.469  1.00  0.00    -0.138 NA 
HETATM   11  C   UNL     1     -10.958   5.467  73.215  1.00  0.00    -0.307 A  
BRANCH   8  12
HETATM   12  O   UNL     1     -11.766   7.751  70.522  1.00  0.00    -0.223 OA 
BRANCH  12  13
HETATM   13  C   UNL     1     -11.781   9.130  70.518  1.00  0.00    -0.152 A  
HETATM   14  C   UNL     1     -12.647   9.740  71.427  1.00  0.00    -0.482 A  
HETATM   15  C   UNL     1     -12.757  11.128  71.444  1.00  0.00    -0.418 A  
HETATM   16  F   UNL     1     -13.602  11.708  72.310  1.00  0.00    -0.541 F  
HETATM   17  C   UNL     1     -12.060  11.917  70.528  1.00  0.00    -0.331 A  
HETATM   18  C   UNL     1     -11.058   9.914  69.611  1.00  0.00    -0.279 A  
HETATM   19  C   UNL     1     -11.191  11.306  69.620  1.00  0.00    -0.321 A  
BRANCH  17  20
HETATM   20  N   UNL     1     -12.262  13.316  70.527  1.00  0.00    -0.398 N  
HETATM   21  H   UNL     1     -12.795  13.752  71.279  1.00  0.00     0.000 HD 
BRANCH  20  22
HETATM   22  C   UNL     1     -11.737  14.099  69.508  1.00  0.00    -0.312 C  
HETATM   23  O   UNL     1     -12.104  14.062  68.336  1.00  0.00    -0.354 OA 
BRANCH  22  24
HETATM   24  N   UNL     1     -10.734  14.922  69.985  1.00  0.00    -0.443 N  
HETATM   25  H   UNL     1     -10.510  14.906  70.980  1.00  0.00     0.000 HD 
BRANCH  24  26
HETATM   26  C   UNL     1     -10.015  15.783  69.134  1.00  0.00    -0.241 A  
HETATM   27  C   UNL     1      -8.806  15.340  68.608  1.00  0.00    -0.188 A  
HETATM   28  C   UNL     1      -8.072  16.173  67.765  1.00  0.00    -0.157 A  
HETATM   29  C   UNL     1      -8.500  17.480  67.496  1.00  0.00    -0.213 A  
HETATM   30 CL   UNL     1      -7.483  18.410  66.459  1.00  0.00    -0.250 Cl 
HETATM   31  C   UNL     1      -9.686  17.964  68.058  1.00  0.00    -0.303 A  
HETATM   32  C   UNL     1     -10.458  17.082  68.852  1.00  0.00    -0.347 A  
HETATM   33  C   UNL     1     -10.179  19.382  67.906  1.00  0.00    -0.420 C  
HETATM   34  F   UNL     1     -11.398  19.445  67.302  1.00  0.00    -0.542 F  
HETATM   35  F   UNL     1     -10.344  19.985  69.122  1.00  0.00    -0.519 F  
HETATM   36  F   UNL     1      -9.380  20.228  67.203  1.00  0.00    -0.423 F  
ENDBRANCH  24  26
ENDBRANCH  22  24
ENDBRANCH  20  22
ENDBRANCH  17  20
ENDBRANCH  12  13
ENDBRANCH   8  12
ENDBRANCH   3   6
TORSDOF 7
ENDMDL
MODEL       93
REMARK 921   NORMALIZED FREE ENERGY PREDICTED BY IDOCK:   -6.02 KCAL/MOL
REMARK 922        TOTAL FREE ENERGY PREDICTED BY IDOCK:  -10.47 KCAL/MOL
REMARK 923 INTER-LIGAND FREE ENERGY PREDICTED BY IDOCK:   -8.93 KCAL/MOL
REMARK 924 INTRA-LIGAND FREE ENERGY PREDICTED BY IDOCK:   -1.54 KCAL/MOL
REMARK 927      BINDING AFFINITY PREDICTED BY RF-SCORE:    0.00 PKD
ROOT
HETATM    1  C   UNL     1      -9.960   6.533  72.984  1.00  0.00    -0.172 C  
HETATM    2  N   UNL     1      -9.562   7.243  71.799  1.00  0.00    -0.151 N  
HETATM    3  C   UNL     1      -8.763   8.364  71.875  1.00  0.00    -0.195 C  
HETATM    4  H   UNL     1      -9.875   6.912  70.887  1.00  0.00     0.000 HD 
HETATM    5  O   UNL     1      -8.301   8.798  72.925  1.00  0.00    -0.414 OA 
ENDROOT
BRANCH   3   6
HETATM    6  C   UNL     1      -8.492   9.041  70.567  1.00  0.00    -0.200 A  
HETATM    7  C   UNL     1      -9.204   8.635  69.447  1.00  0.00    -0.150 A  
HETATM    8  C   UNL     1      -8.971   9.301  68.251  1.00  0.00    -0.129 A  
HETATM    9  C   UNL     1      -8.000  10.296  68.198  1.00  0.00    -0.109 A  
HETATM   10  N   UNL     1      -7.551  10.026  70.557  1.00  0.00    -0.267 NA 
HETATM   11  C   UNL     1      -7.327  10.623  69.366  1.00  0.00    -0.133 A  
BRANCH   8  12
HETATM   12  O   UNL     1      -9.595   8.981  67.068  1.00  0.00    -0.156 OA 
BRANCH  12  13
HETATM   13  C   UNL     1     -10.107   9.986  66.275  1.00  0.00    -0.243 A  
HETATM   14  C   UNL     1      -9.550  10.112  65.001  1.00  0.00    -0.362 A  
HETATM   15  C   UNL     1      -9.976  11.137  64.163  1.00  0.00    -0.316 A  
HETATM   16  F   UNL     1      -9.427  11.262  62.945  1.00  0.00    -0.278 F  
HETATM   17  C   UNL     1     -10.910  12.080  64.597  1.00  0.00    -0.309 A  
HETATM   18  C   UNL     1     -11.062  10.912  66.711  1.00  0.00    -0.196 A  
HETATM   19  C   UNL     1     -11.470  11.954  65.870  1.00  0.00    -0.340 A  
BRANCH  17  20
HETATM   20  N   UNL     1     -11.257  13.152  63.743  1.00  0.00    -0.568 N  
HETATM   21  H   UNL     1     -11.021  13.108  62.751  1.00  0.00     0.000 HD 
BRANCH  20  22
HETATM   22  C   UNL     1     -11.917  14.265  64.248  1.00  0.00    -0.425 C  
HETATM   23  O   UNL     1     -13.134  14.352  64.390  1.00  0.00    -0.297 OA 
BRANCH  22  24
HETATM   24  N   UNL     1     -11.021  15.269  64.562  1.00  0.00    -0.667 N  
HETATM   25  H   UNL     1     -10.780  15.960  63.851  1.00  0.00     0.000 HD 
BRANCH  24  26
HETATM   26  C   UNL     1     -10.431  15.363  65.837  1.00  0.00    -0.340 A  
HETATM   27  C   UNL     1      -9.055  15.545  65.921  1.00  0.00    -0.231 A  
HETATM   28  C   UNL     1      -8.445  15.638  67.171  1.00  0.00    -0.234 A  
HETATM   29  C   UNL     1      -9.189  15.479  68.347  1.00  0.00    -0.191 A  
HETATM   30 CL   UNL     1      -8.304  15.591  69.824  1.00  0.00    -0.118 Cl 
HETATM   31  C   UNL     1     -10.567  15.242  68.285  1.00  0.00    -0.244 A  
HETATM   32  C   UNL     1     -11.184  15.224  67.010  1.00  0.00    -0.275 A  
HETATM   33  C   UNL     1     -11.435  14.963  69.487  1.00  0.00    -0.297 C  
HETATM   34  F   UNL     1     -12.426  15.886  69.636  1.00  0.00    -0.345 F  
HETATM   35  F   UNL     1     -12.072  13.759  69.373  1.00  0.00    -0.322 F  
HETATM   36  F   UNL     1     -10.803  14.911  70.690  1.00  0.00    -0.256 F  
ENDBRANCH  24  26
ENDBRANCH  22  24
ENDBRANCH  20  22
ENDBRANCH  17  20
ENDBRANCH  12  13
ENDBRANCH   8  12
ENDBRANCH   3   6
TORSDOF 7
ENDMDL
MODEL       94
REMARK 921   NORMALIZED FREE ENERGY PREDICTED BY IDOCK:   -6.02 KCAL/MOL
REMARK 922        TOTAL FREE ENERGY PREDICTED BY IDOCK:  -10.46 KCAL/MOL
REMARK 923 INTER-LIGAND FREE ENERGY PREDICTED BY IDOCK:   -8.93 KCAL/MOL
REMARK 924 INTRA-LIGAND FREE ENERGY PREDICTED BY IDOCK:   -1.53 KCAL/MOL
REMARK 927      BINDING AFFINITY PREDICTED BY RF-SCORE:    0.00 PKD
ROOT
HETATM    1  C   UNL     1      -6.951  16.081  67.538  1.00  0.00    -0.176 C  
HETATM    2  N   UNL     1      -8.118  15.463  66.971  1.00  0.00    -0.216 N  
HETATM    3  C   UNL     1      -8.962  16.164  66.136  1.00  0.00    -0.337 C  
HETATM    4  H   UNL     1      -8.326  14.489  67.190  1.00  0.00     0.000 HD 
HETATM    5  O   UNL     1      -8.758  17.320  65.781  1.00  0.00    -0.531 OA 
ENDROOT
BRANCH   3   6
HETATM    6  C   UNL     1     -10.176  15.414  65.682  1.00  0.00    -0.376 A  
HETATM    7  C   UNL     1     -10.444  14.176  66.251  1.00  0.00    -0.286 A  
HETATM    8  C   UNL     1     -11.596  13.512  65.849  1.00  0.00    -0.335 A  
HETATM    9  C   UNL     1     -12.399  14.069  64.859  1.00  0.00    -0.447 A  
HETATM   10  N   UNL     1     -10.951  15.999  64.727  1.00  0.00    -0.609 NA 
HETATM   11  C   UNL     1     -12.041  15.303  64.337  1.00  0.00    -0.252 A  
BRANCH   8  12
HETATM   12  O   UNL     1     -11.963  12.273  66.321  1.00  0.00    -0.588 OA 
BRANCH  12  13
HETATM   13  C   UNL     1     -11.001  11.302  66.503  1.00  0.00    -0.245 A  
HETATM   14  C   UNL     1     -10.674  10.998  67.826  1.00  0.00    -0.270 A  
HETATM   15  C   UNL     1      -9.673  10.067  68.089  1.00  0.00    -0.140 A  
HETATM   16  F   UNL     1      -9.353   9.789  69.362  1.00  0.00    -0.156 F  
HETATM   17  C   UNL     1      -8.950   9.474  67.051  1.00  0.00    -0.134 A  
HETATM   18  C   UNL     1     -10.299  10.695  65.455  1.00  0.00    -0.303 A  
HETATM   19  C   UNL     1      -9.279   9.777  65.728  1.00  0.00    -0.242 A  
BRANCH  17  20
HETATM   20  N   UNL     1      -7.889   8.595  67.364  1.00  0.00    -0.098 N  
HETATM   21  H   UNL     1      -7.037   8.958  67.792  1.00  0.00     0.000 HD 
BRANCH  20  22
HETATM   22  C   UNL     1      -8.000   7.238  67.091  1.00  0.00    -0.110 C  
HETATM   23  O   UNL     1      -8.124   6.757  65.967  1.00  0.00    -0.107 OA 
BRANCH  22  24
HETATM   24  N   UNL     1      -7.963   6.496  68.256  1.00  0.00    -0.109 N  
HETATM   25  H   UNL     1      -7.138   5.932  68.460  1.00  0.00     0.000 HD 
BRANCH  24  26
HETATM   26  C   UNL     1      -9.035   6.498  69.169  1.00  0.00    -0.130 A  
HETATM   27  C   UNL     1     -10.300   6.144  68.710  1.00  0.00    -0.256 A  
HETATM   28  C   UNL     1     -11.380   6.141  69.592  1.00  0.00    -0.442 A  
HETATM   29  C   UNL     1     -11.224   6.560  70.920  1.00  0.00    -0.311 A  
HETATM   30 CL   UNL     1     -12.647   6.531  71.894  1.00  0.00    -0.338 Cl 
HETATM   31  C   UNL     1      -9.971   6.971  71.388  1.00  0.00    -0.190 A  
HETATM   32  C   UNL     1      -8.870   6.898  70.501  1.00  0.00    -0.155 A  
HETATM   33  C   UNL     1      -9.724   7.528  72.769  1.00  0.00    -0.187 C  
HETATM   34  F   UNL     1      -8.834   6.778  73.477  1.00  0.00    -0.128 F  
HETATM   35  F   UNL     1      -9.178   8.781  72.710  1.00  0.00    -0.311 F  
HETATM   36  F   UNL     1     -10.812   7.658  73.572  1.00  0.00    -0.420 F  
ENDBRANCH  24  26
ENDBRANCH  22  24
ENDBRANCH  20  22
ENDBRANCH  17  20
ENDBRANCH  12  13
ENDBRANCH   8  12
ENDBRANCH   3   6
TORSDOF 7
ENDMDL
MODEL       95
REMARK 921   NORMALIZED FREE ENERGY PREDICTED BY IDOCK:   -6.01 KCAL/MOL
REMARK 922        TOTAL FREE ENERGY PREDICTED BY IDOCK:  -10.46 KCAL/MOL
REMARK 923 INTER-LIGAND FREE ENERGY PREDICTED BY IDOCK:   -8.86 KCAL/MOL
REMARK 924 INTRA-LIGAND FREE ENERGY PREDICTED BY IDOCK:   -1.60 KCAL/MOL
REMARK 927      BINDING AFFINITY PREDICTED BY RF-SCORE:    0.00 PKD
ROOT
HETATM    1  C   UNL     1     -11.227   5.934  72.110  1.00  0.00    -0.287 C  
HETATM    2  N   UNL     1     -10.519   6.237  70.897  1.00  0.00    -0.215 N  
HETATM    3  C   UNL     1     -10.824   7.358  70.155  1.00  0.00    -0.256 C  
HETATM    4  H   UNL     1      -9.777   5.613  70.580  1.00  0.00     0.000 HD 
HETATM    5  O   UNL     1     -11.663   8.186  70.490  1.00  0.00    -0.201 OA 
ENDROOT
BRANCH   3   6
HETATM    6  C   UNL     1     -10.055   7.504  68.878  1.00  0.00    -0.192 A  
HETATM    7  C   UNL     1     -10.488   8.434  67.944  1.00  0.00    -0.255 A  
HETATM    8  C   UNL     1      -9.741   8.587  66.783  1.00  0.00    -0.236 A  
HETATM    9  C   UNL     1      -8.635   7.771  66.566  1.00  0.00    -0.149 A  
HETATM   10  N   UNL     1      -8.966   6.704  68.709  1.00  0.00    -0.126 NA 
HETATM   11  C   UNL     1      -8.288   6.857  67.550  1.00  0.00    -0.123 A  
BRANCH   8  12
HETATM   12  O   UNL     1     -10.075   9.459  65.773  1.00  0.00    -0.288 OA 
BRANCH  12  13
HETATM   13  C   UNL     1      -9.863  10.811  65.943  1.00  0.00    -0.239 A  
HETATM   14  C   UNL     1      -8.672  11.174  66.575  1.00  0.00    -0.174 A  
HETATM   15  C   UNL     1      -8.413  12.517  66.832  1.00  0.00    -0.130 A  
HETATM   16  F   UNL     1      -7.274  12.860  67.452  1.00  0.00    -0.125 F  
HETATM   17  C   UNL     1      -9.351  13.504  66.520  1.00  0.00    -0.215 A  
HETATM   18  C   UNL     1     -10.799  11.795  65.604  1.00  0.00    -0.342 A  
HETATM   19  C   UNL     1     -10.541  13.141  65.885  1.00  0.00    -0.290 A  
BRANCH  17  20
HETATM   20  N   UNL     1      -9.082  14.847  66.869  1.00  0.00    -0.235 N  
HETATM   21  H   UNL     1      -8.123  15.195  66.847  1.00  0.00     0.000 HD 
BRANCH  20  22
HETATM   22  C   UNL     1     -10.117  15.694  67.242  1.00  0.00    -0.255 C  
HETATM   23  O   UNL     1     -10.931  16.190  66.467  1.00  0.00    -0.205 OA 
BRANCH  22  24
HETATM   24  N   UNL     1     -10.104  15.916  68.606  1.00  0.00    -0.211 N  
HETATM   25  H   UNL     1      -9.427  16.571  68.997  1.00  0.00     0.000 HD 
BRANCH  24  26
HETATM   26  C   UNL     1     -11.003  15.262  69.471  1.00  0.00    -0.277 A  
HETATM   27  C   UNL     1     -11.646  16.010  70.451  1.00  0.00    -0.364 A  
HETATM   28  C   UNL     1     -12.538  15.387  71.323  1.00  0.00    -0.477 A  
HETATM   29  C   UNL     1     -12.742  14.001  71.272  1.00  0.00    -0.365 A  
HETATM   30 CL   UNL     1     -13.852  13.358  72.426  1.00  0.00    -0.693 Cl 
HETATM   31  C   UNL     1     -12.064  13.222  70.329  1.00  0.00    -0.405 A  
HETATM   32  C   UNL     1     -11.218  13.880  69.403  1.00  0.00    -0.273 A  
HETATM   33  C   UNL     1     -12.144  11.717  70.258  1.00  0.00    -0.358 C  
HETATM   34  F   UNL     1     -12.632  11.279  69.064  1.00  0.00    -0.286 F  
HETATM   35  F   UNL     1     -10.907  11.146  70.377  1.00  0.00    -0.178 F  
HETATM   36  F   UNL     1     -12.902  11.106  71.207  1.00  0.00    -0.431 F  
ENDBRANCH  24  26
ENDBRANCH  22  24
ENDBRANCH  20  22
ENDBRANCH  17  20
ENDBRANCH  12  13
ENDBRANCH   8  12
ENDBRANCH   3   6
TORSDOF 7
ENDMDL
MODEL       96
REMARK 921   NORMALIZED FREE ENERGY PREDICTED BY IDOCK:   -5.98 KCAL/MOL
REMARK 922        TOTAL FREE ENERGY PREDICTED BY IDOCK:  -10.42 KCAL/MOL
REMARK 923 INTER-LIGAND FREE ENERGY PREDICTED BY IDOCK:   -8.95 KCAL/MOL
REMARK 924 INTRA-LIGAND FREE ENERGY PREDICTED BY IDOCK:   -1.47 KCAL/MOL
REMARK 927      BINDING AFFINITY PREDICTED BY RF-SCORE:    0.00 PKD
ROOT
HETATM    1  C   UNL     1     -12.738  10.040  71.023  1.00  0.00    -0.362 C  
HETATM    2  N   UNL     1     -11.993   8.812  71.066  1.00  0.00    -0.366 N  
HETATM    3  C   UNL     1     -12.578   7.637  71.488  1.00  0.00    -0.343 C  
HETATM    4  H   UNL     1     -11.014   8.809  70.779  1.00  0.00     0.000 HD 
HETATM    5  O   UNL     1     -13.760   7.542  71.800  1.00  0.00    -0.356 OA 
ENDROOT
BRANCH   3   6
HETATM    6  C   UNL     1     -11.660   6.456  71.551  1.00  0.00    -0.310 A  
HETATM    7  C   UNL     1     -11.105   5.981  70.371  1.00  0.00    -0.399 A  
HETATM    8  C   UNL     1     -10.224   4.910  70.451  1.00  0.00    -0.222 A  
HETATM    9  C   UNL     1      -9.977   4.315  71.685  1.00  0.00    -0.250 A  
HETATM   10  N   UNL     1     -11.424   5.913  72.777  1.00  0.00    -0.263 NA 
HETATM   11  C   UNL     1     -10.591   4.849  72.808  1.00  0.00    -0.217 A  
BRANCH   8  12
HETATM   12  O   UNL     1      -9.624   4.335  69.355  1.00  0.00    -0.172 OA 
BRANCH  12  13
HETATM   13  C   UNL     1      -9.212   5.133  68.308  1.00  0.00    -0.117 A  
HETATM   14  C   UNL     1      -9.587   4.715  67.029  1.00  0.00    -0.198 A  
HETATM   15  C   UNL     1      -9.163   5.439  65.919  1.00  0.00    -0.156 A  
HETATM   16  F   UNL     1      -9.515   5.026  64.692  1.00  0.00    -0.118 F  
HETATM   17  C   UNL     1      -8.320   6.543  66.058  1.00  0.00    -0.133 A  
HETATM   18  C   UNL     1      -8.386   6.252  68.460  1.00  0.00    -0.115 A  
HETATM   19  C   UNL     1      -7.946   6.962  67.337  1.00  0.00    -0.112 A  
BRANCH  17  20
HETATM   20  N   UNL     1      -7.848   7.202  64.900  1.00  0.00    -0.121 N  
HETATM   21  H   UNL     1      -7.446   6.659  64.135  1.00  0.00     0.000 HD 
BRANCH  20  22
HETATM   22  C   UNL     1      -7.929   8.584  64.798  1.00  0.00    -0.143 C  
HETATM   23  O   UNL     1      -6.979   9.353  64.924  1.00  0.00    -0.091 OA 
BRANCH  22  24
HETATM   24  N   UNL     1      -9.227   8.984  64.546  1.00  0.00    -0.403 N  
HETATM   25  H   UNL     1      -9.735   8.560  63.770  1.00  0.00     0.000 HD 
BRANCH  24  26
HETATM   26  C   UNL     1      -9.866   9.962  65.332  1.00  0.00    -0.313 A  
HETATM   27  C   UNL     1     -10.047   9.710  66.688  1.00  0.00    -0.307 A  
HETATM   28  C   UNL     1     -10.680  10.659  67.490  1.00  0.00    -0.321 A  
HETATM   29  C   UNL     1     -11.201  11.835  66.934  1.00  0.00    -0.327 A  
HETATM   30 CL   UNL     1     -11.982  12.910  68.035  1.00  0.00    -0.373 Cl 
HETATM   31  C   UNL     1     -11.077  12.085  65.563  1.00  0.00    -0.361 A  
HETATM   32  C   UNL     1     -10.367  11.146  64.776  1.00  0.00    -0.387 A  
HETATM   33  C   UNL     1     -11.686  13.272  64.859  1.00  0.00    -0.342 C  
HETATM   34  F   UNL     1     -10.748  14.054  64.256  1.00  0.00    -0.392 F  
HETATM   35  F   UNL     1     -12.529  12.877  63.857  1.00  0.00    -0.450 F  
HETATM   36  F   UNL     1     -12.426  14.115  65.625  1.00  0.00    -0.408 F  
ENDBRANCH  24  26
ENDBRANCH  22  24
ENDBRANCH  20  22
ENDBRANCH  17  20
ENDBRANCH  12  13
ENDBRANCH   8  12
ENDBRANCH   3   6
TORSDOF 7
ENDMDL
MODEL       97
REMARK 921   NORMALIZED FREE ENERGY PREDICTED BY IDOCK:   -5.98 KCAL/MOL
REMARK 922        TOTAL FREE ENERGY PREDICTED BY IDOCK:  -10.41 KCAL/MOL
REMARK 923 INTER-LIGAND FREE ENERGY PREDICTED BY IDOCK:   -8.57 KCAL/MOL
REMARK 924 INTRA-LIGAND FREE ENERGY PREDICTED BY IDOCK:   -1.84 KCAL/MOL
REMARK 927      BINDING AFFINITY PREDICTED BY RF-SCORE:    0.00 PKD
ROOT
HETATM    1  C   UNL     1      -5.783   4.689  67.438  1.00  0.00    -0.022 C  
HETATM    2  N   UNL     1      -6.746   5.747  67.578  1.00  0.00    -0.057 N  
HETATM    3  C   UNL     1      -8.096   5.477  67.646  1.00  0.00    -0.101 C  
HETATM    4  H   UNL     1      -6.425   6.714  67.629  1.00  0.00     0.000 HD 
HETATM    5  O   UNL     1      -8.563   4.343  67.645  1.00  0.00    -0.102 OA 
ENDROOT
BRANCH   3   6
HETATM    6  C   UNL     1      -8.983   6.681  67.716  1.00  0.00    -0.112 A  
HETATM    7  C   UNL     1      -9.034   7.534  66.622  1.00  0.00    -0.177 A  
HETATM    8  C   UNL     1      -9.892   8.624  66.686  1.00  0.00    -0.266 A  
HETATM    9  C   UNL     1     -10.617   8.860  67.850  1.00  0.00    -0.244 A  
HETATM   10  N   UNL     1      -9.694   6.869  68.862  1.00  0.00    -0.142 NA 
HETATM   11  C   UNL     1     -10.488   7.961  68.899  1.00  0.00    -0.190 A  
BRANCH   8  12
HETATM   12  O   UNL     1     -10.019   9.553  65.679  1.00  0.00    -0.305 OA 
BRANCH  12  13
HETATM   13  C   UNL     1      -9.894  10.894  65.971  1.00  0.00    -0.233 A  
HETATM   14  C   UNL     1     -10.850  11.741  65.406  1.00  0.00    -0.347 A  
HETATM   15  C   UNL     1     -10.758  13.114  65.612  1.00  0.00    -0.280 A  
HETATM   16  F   UNL     1     -11.672  13.924  65.055  1.00  0.00    -0.320 F  
HETATM   17  C   UNL     1      -9.692  13.666  66.325  1.00  0.00    -0.283 A  
HETATM   18  C   UNL     1      -8.834  11.435  66.709  1.00  0.00    -0.179 A  
HETATM   19  C   UNL     1      -8.737  12.819  66.892  1.00  0.00    -0.169 A  
BRANCH  17  20
HETATM   20  N   UNL     1      -9.593  15.071  66.442  1.00  0.00    -0.271 N  
HETATM   21  H   UNL     1      -9.405  15.638  65.615  1.00  0.00     0.000 HD 
BRANCH  20  22
HETATM   22  C   UNL     1      -9.751  15.684  67.678  1.00  0.00    -0.225 C  
HETATM   23  O   UNL     1      -8.828  16.056  68.398  1.00  0.00    -0.177 OA 
BRANCH  22  24
HETATM   24  N   UNL     1     -11.090  15.810  67.998  1.00  0.00    -0.332 N  
HETATM   25  H   UNL     1     -11.678  16.427  67.439  1.00  0.00     0.000 HD 
BRANCH  24  26
HETATM   26  C   UNL     1     -11.663  15.108  69.077  1.00  0.00    -0.335 A  
HETATM   27  C   UNL     1     -12.166  15.835  70.150  1.00  0.00    -0.340 A  
HETATM   28  C   UNL     1     -12.735  15.165  71.233  1.00  0.00    -0.439 A  
HETATM   29  C   UNL     1     -12.743  13.765  71.287  1.00  0.00    -0.371 A  
HETATM   30 CL   UNL     1     -13.455  13.067  72.695  1.00  0.00    -0.521 Cl 
HETATM   31  C   UNL     1     -12.194  13.014  70.242  1.00  0.00    -0.368 A  
HETATM   32  C   UNL     1     -11.686  13.708  69.117  1.00  0.00    -0.376 A  
HETATM   33  C   UNL     1     -12.070  11.510  70.253  1.00  0.00    -0.359 C  
HETATM   34  F   UNL     1     -12.750  10.927  69.226  1.00  0.00    -0.311 F  
HETATM   35  F   UNL     1     -10.770  11.117  70.098  1.00  0.00    -0.196 F  
HETATM   36  F   UNL     1     -12.495  10.877  71.377  1.00  0.00    -0.421 F  
ENDBRANCH  24  26
ENDBRANCH  22  24
ENDBRANCH  20  22
ENDBRANCH  17  20
ENDBRANCH  12  13
ENDBRANCH   8  12
ENDBRANCH   3   6
TORSDOF 7
ENDMDL
MODEL       98
REMARK 921   NORMALIZED FREE ENERGY PREDICTED BY IDOCK:   -5.98 KCAL/MOL
REMARK 922        TOTAL FREE ENERGY PREDICTED BY IDOCK:  -10.41 KCAL/MOL
REMARK 923 INTER-LIGAND FREE ENERGY PREDICTED BY IDOCK:   -8.87 KCAL/MOL
REMARK 924 INTRA-LIGAND FREE ENERGY PREDICTED BY IDOCK:   -1.54 KCAL/MOL
REMARK 927      BINDING AFFINITY PREDICTED BY RF-SCORE:    0.00 PKD
ROOT
HETATM    1  C   UNL     1      -9.869   3.091  62.575  1.00  0.00    -0.093 C  
HETATM    2  N   UNL     1      -9.909   4.177  63.514  1.00  0.00    -0.278 N  
HETATM    3  C   UNL     1      -9.604   3.982  64.844  1.00  0.00    -0.179 C  
HETATM    4  H   UNL     1     -10.167   5.110  63.191  1.00  0.00     0.000 HD 
HETATM    5  O   UNL     1      -9.235   2.907  65.305  1.00  0.00    -0.147 OA 
ENDROOT
BRANCH   3   6
HETATM    6  C   UNL     1      -9.761   5.188  65.717  1.00  0.00    -0.105 A  
HETATM    7  C   UNL     1      -8.972   6.301  65.462  1.00  0.00     0.016 A  
HETATM    8  C   UNL     1      -9.158   7.427  66.254  1.00  0.00    -0.156 A  
HETATM    9  C   UNL     1     -10.071   7.383  67.304  1.00  0.00    -0.296 A  
HETATM   10  N   UNL     1     -10.679   5.119  66.721  1.00  0.00    -0.204 NA 
HETATM   11  C   UNL     1     -10.803   6.221  67.492  1.00  0.00    -0.349 A  
BRANCH   8  12
HETATM   12  O   UNL     1      -8.427   8.584  66.116  1.00  0.00    -0.118 OA 
BRANCH  12  13
HETATM   13  C   UNL     1      -9.025   9.708  65.588  1.00  0.00    -0.169 A  
HETATM   14  C   UNL     1      -9.406   9.631  64.247  1.00  0.00    -0.178 A  
HETATM   15  C   UNL     1      -9.968  10.744  63.628  1.00  0.00    -0.345 A  
HETATM   16  F   UNL     1     -10.319  10.670  62.335  1.00  0.00    -0.055 F  
HETATM   17  C   UNL     1     -10.102  11.956  64.309  1.00  0.00    -0.295 A  
HETATM   18  C   UNL     1      -9.179  10.911  66.287  1.00  0.00    -0.197 A  
HETATM   19  C   UNL     1      -9.723  12.032  65.652  1.00  0.00    -0.241 A  
BRANCH  17  20
HETATM   20  N   UNL     1     -10.603  13.084  63.620  1.00  0.00    -0.462 N  
HETATM   21  H   UNL     1      -9.988  13.619  63.008  1.00  0.00     0.000 HD 
BRANCH  20  22
HETATM   22  C   UNL     1     -11.929  13.466  63.773  1.00  0.00    -0.461 C  
HETATM   23  O   UNL     1     -12.893  12.712  63.662  1.00  0.00    -0.718 OA 
BRANCH  22  24
HETATM   24  N   UNL     1     -12.024  14.815  64.058  1.00  0.00    -0.838 N  
HETATM   25  H   UNL     1     -12.522  15.425  63.410  1.00  0.00     0.000 HD 
BRANCH  24  26
HETATM   26  C   UNL     1     -11.449  15.369  65.218  1.00  0.00    -0.158 A  
HETATM   27  C   UNL     1     -10.683  16.523  65.094  1.00  0.00    -0.261 A  
HETATM   28  C   UNL     1     -10.100  17.090  66.226  1.00  0.00    -0.330 A  
HETATM   29  C   UNL     1     -10.215  16.474  67.479  1.00  0.00    -0.283 A  
HETATM   30 CL   UNL     1      -9.422  17.268  68.789  1.00  0.00    -0.271 Cl 
HETATM   31  C   UNL     1     -10.937  15.283  67.617  1.00  0.00    -0.311 A  
HETATM   32  C   UNL     1     -11.585  14.759  66.472  1.00  0.00    -0.306 A  
HETATM   33  C   UNL     1     -11.037  14.496  68.900  1.00  0.00    -0.256 C  
HETATM   34  F   UNL     1     -12.323  14.370  69.331  1.00  0.00    -0.349 F  
HETATM   35  F   UNL     1     -10.582  13.217  68.737  1.00  0.00    -0.235 F  
HETATM   36  F   UNL     1     -10.343  14.981  69.963  1.00  0.00    -0.241 F  
ENDBRANCH  24  26
ENDBRANCH  22  24
ENDBRANCH  20  22
ENDBRANCH  17  20
ENDBRANCH  12  13
ENDBRANCH   8  12
ENDBRANCH   3   6
TORSDOF 7
ENDMDL
MODEL       99
REMARK 921   NORMALIZED FREE ENERGY PREDICTED BY IDOCK:   -5.97 KCAL/MOL
REMARK 922        TOTAL FREE ENERGY PREDICTED BY IDOCK:  -10.41 KCAL/MOL
REMARK 923 INTER-LIGAND FREE ENERGY PREDICTED BY IDOCK:   -8.90 KCAL/MOL
REMARK 924 INTRA-LIGAND FREE ENERGY PREDICTED BY IDOCK:   -1.50 KCAL/MOL
REMARK 927      BINDING AFFINITY PREDICTED BY RF-SCORE:    0.00 PKD
ROOT
HETATM    1  C   UNL     1     -10.064  20.180  66.135  1.00  0.00    -0.415 C  
HETATM    2  N   UNL     1     -10.550  18.848  65.902  1.00  0.00    -0.459 N  
HETATM    3  C   UNL     1      -9.923  17.753  66.458  1.00  0.00    -0.346 C  
HETATM    4  H   UNL     1     -11.372  18.710  65.315  1.00  0.00     0.000 HD 
HETATM    5  O   UNL     1      -8.962  17.834  67.216  1.00  0.00    -0.240 OA 
ENDROOT
BRANCH   3   6
HETATM    6  C   UNL     1     -10.496  16.426  66.068  1.00  0.00    -0.323 A  
HETATM    7  C   UNL     1     -10.530  15.412  67.015  1.00  0.00    -0.295 A  
HETATM    8  C   UNL     1     -11.101  14.200  66.650  1.00  0.00    -0.312 A  
HETATM    9  C   UNL     1     -11.557  14.021  65.347  1.00  0.00    -0.329 A  
HETATM   10  N   UNL     1     -10.952  16.293  64.791  1.00  0.00    -0.663 NA 
HETATM   11  C   UNL     1     -11.465  15.087  64.465  1.00  0.00    -0.318 A  
BRANCH   8  12
HETATM   12  O   UNL     1     -11.178  13.111  67.488  1.00  0.00    -0.261 OA 
BRANCH  12  13
HETATM   13  C   UNL     1     -10.387  12.009  67.245  1.00  0.00    -0.212 A  
HETATM   14  C   UNL     1     -11.035  10.772  67.246  1.00  0.00    -0.359 A  
HETATM   15  C   UNL     1     -10.294   9.608  67.062  1.00  0.00    -0.248 A  
HETATM   16  F   UNL     1     -10.921   8.421  67.077  1.00  0.00    -0.345 F  
HETATM   17  C   UNL     1      -8.905   9.652  66.935  1.00  0.00    -0.131 A  
HETATM   18  C   UNL     1      -8.997  12.065  67.094  1.00  0.00    -0.185 A  
HETATM   19  C   UNL     1      -8.256  10.889  66.932  1.00  0.00    -0.135 A  
BRANCH  17  20
HETATM   20  N   UNL     1      -8.182   8.441  66.830  1.00  0.00    -0.102 N  
HETATM   21  H   UNL     1      -7.968   8.056  65.910  1.00  0.00     0.000 HD 
BRANCH  20  22
HETATM   22  C   UNL     1      -7.763   7.775  67.974  1.00  0.00    -0.126 C  
HETATM   23  O   UNL     1      -6.850   8.147  68.706  1.00  0.00    -0.062 OA 
BRANCH  22  24
HETATM   24  N   UNL     1      -8.505   6.626  68.174  1.00  0.00    -0.117 N  
HETATM   25  H   UNL     1      -8.555   5.931  67.429  1.00  0.00     0.000 HD 
BRANCH  24  26
HETATM   26  C   UNL     1      -9.194   6.391  69.379  1.00  0.00    -0.143 A  
HETATM   27  C   UNL     1      -9.287   5.084  69.847  1.00  0.00    -0.198 A  
HETATM   28  C   UNL     1      -9.966   4.822  71.036  1.00  0.00    -0.279 A  
HETATM   29  C   UNL     1     -10.619   5.848  71.732  1.00  0.00    -0.234 A  
HETATM   30 CL   UNL     1     -11.443   5.380  73.173  1.00  0.00    -0.324 Cl 
HETATM   31  C   UNL     1     -10.583   7.162  71.250  1.00  0.00    -0.230 A  
HETATM   32  C   UNL     1      -9.827   7.424  70.081  1.00  0.00    -0.180 A  
HETATM   33  C   UNL     1     -11.331   8.314  71.874  1.00  0.00    -0.308 C  
HETATM   34  F   UNL     1     -10.499   9.309  72.288  1.00  0.00    -0.348 F  
HETATM   35  F   UNL     1     -12.180   8.900  70.976  1.00  0.00    -0.304 F  
HETATM   36  F   UNL     1     -12.109   8.019  72.949  1.00  0.00    -0.374 F  
ENDBRANCH  24  26
ENDBRANCH  22  24
ENDBRANCH  20  22
ENDBRANCH  17  20
ENDBRANCH  12  13
ENDBRANCH   8  12
ENDBRANCH   3   6
TORSDOF 7
ENDMDL
MODEL      100
REMARK 921   NORMALIZED FREE ENERGY PREDICTED BY IDOCK:   -5.96 KCAL/MOL
REMARK 922        TOTAL FREE ENERGY PREDICTED BY IDOCK:  -10.38 KCAL/MOL
REMARK 923 INTER-LIGAND FREE ENERGY PREDICTED BY IDOCK:   -9.46 KCAL/MOL
REMARK 924 INTRA-LIGAND FREE ENERGY PREDICTED BY IDOCK:   -0.92 KCAL/MOL
REMARK 927      BINDING AFFINITY PREDICTED BY RF-SCORE:    0.00 PKD
ROOT
HETATM    1  C   UNL     1      -7.222   4.674  66.189  1.00  0.00    -0.076 C  
HETATM    2  N   UNL     1      -7.820   5.956  66.441  1.00  0.00    -0.099 N  
HETATM    3  C   UNL     1      -9.187   6.096  66.554  1.00  0.00    -0.149 C  
HETATM    4  H   UNL     1      -7.223   6.777  66.539  1.00  0.00     0.000 HD 
HETATM    5  O   UNL     1      -9.971   5.155  66.502  1.00  0.00    -0.168 OA 
ENDROOT
BRANCH   3   6
HETATM    6  C   UNL     1      -9.669   7.501  66.743  1.00  0.00    -0.216 A  
HETATM    7  C   UNL     1      -9.378   8.441  65.764  1.00  0.00    -0.141 A  
HETATM    8  C   UNL     1      -9.868   9.729  65.933  1.00  0.00    -0.282 A  
HETATM    9  C   UNL     1     -10.571  10.049  67.091  1.00  0.00    -0.296 A  
HETATM   10  N   UNL     1     -10.373   7.773  67.877  1.00  0.00    -0.211 NA 
HETATM   11  C   UNL     1     -10.799   9.047  68.021  1.00  0.00    -0.041 A  
BRANCH   8  12
HETATM   12  O   UNL     1      -9.632  10.755  65.048  1.00  0.00    -0.216 OA 
BRANCH  12  13
HETATM   13  C   UNL     1      -9.680  12.060  65.490  1.00  0.00    -0.202 A  
HETATM   14  C   UNL     1     -10.573  12.904  64.828  1.00  0.00    -0.362 A  
HETATM   15  C   UNL     1     -10.639  14.249  65.183  1.00  0.00    -0.406 A  
HETATM   16  F   UNL     1     -11.489  15.058  64.533  1.00  0.00    -0.372 F  
HETATM   17  C   UNL     1      -9.783  14.781  66.149  1.00  0.00    -0.312 A  
HETATM   18  C   UNL     1      -8.834  12.579  66.478  1.00  0.00    -0.090 A  
HETATM   19  C   UNL     1      -8.891  13.936  66.813  1.00  0.00    -0.170 A  
BRANCH  17  20
HETATM   20  N   UNL     1      -9.827  16.167  66.422  1.00  0.00    -0.266 N  
HETATM   21  H   UNL     1      -9.760  16.838  65.656  1.00  0.00     0.000 HD 
BRANCH  20  22
HETATM   22  C   UNL     1      -9.962  16.620  67.728  1.00  0.00    -0.262 C  
HETATM   23  O   UNL     1      -9.044  17.060  68.415  1.00  0.00    -0.240 OA 
BRANCH  22  24
HETATM   24  N   UNL     1     -11.270  16.500  68.158  1.00  0.00    -0.307 N  
HETATM   25  H   UNL     1     -11.965  17.170  67.829  1.00  0.00     0.000 HD 
BRANCH  24  26
HETATM   26  C   UNL     1     -11.668  15.477  69.040  1.00  0.00    -0.377 A  
HETATM   27  C   UNL     1     -11.870  14.199  68.528  1.00  0.00    -0.390 A  
HETATM   28  C   UNL     1     -12.267  13.168  69.378  1.00  0.00    -0.189 A  
HETATM   29  C   UNL     1     -12.536  13.416  70.731  1.00  0.00    -0.341 A  
HETATM   30 CL   UNL     1     -13.044  12.056  71.663  1.00  0.00    -0.498 Cl 
HETATM   31  C   UNL     1     -12.390  14.705  71.255  1.00  0.00    -0.407 A  
HETATM   32  C   UNL     1     -11.915  15.726  70.396  1.00  0.00    -0.385 A  
HETATM   33  C   UNL     1     -12.746  15.090  72.670  1.00  0.00    -0.376 C  
HETATM   34  F   UNL     1     -11.675  15.570  73.361  1.00  0.00    -0.512 F  
HETATM   35  F   UNL     1     -13.675  16.093  72.695  1.00  0.00    -0.546 F  
HETATM   36  F   UNL     1     -13.271  14.108  73.450  1.00  0.00    -0.554 F  
ENDBRANCH  24  26
ENDBRANCH  22  24
ENDBRANCH  20  22
ENDBRANCH  17  20
ENDBRANCH  12  13
ENDBRANCH   8  12
ENDBRANCH   3   6
TORSDOF 7
ENDMDL
MODEL      101
REMARK 921   NORMALIZED FREE ENERGY PREDICTED BY IDOCK:   -5.95 KCAL/MOL
REMARK 922        TOTAL FREE ENERGY PREDICTED BY IDOCK:  -10.37 KCAL/MOL
REMARK 923 INTER-LIGAND FREE ENERGY PREDICTED BY IDOCK:   -8.93 KCAL/MOL
REMARK 924 INTRA-LIGAND FREE ENERGY PREDICTED BY IDOCK:   -1.43 KCAL/MOL
REMARK 927      BINDING AFFINITY PREDICTED BY RF-SCORE:    0.00 PKD
ROOT
HETATM    1  C   UNL     1     -11.064   2.573  73.729  1.00  0.00    -0.209 C  
HETATM    2  N   UNL     1     -10.461   3.231  72.603  1.00  0.00    -0.137 N  
HETATM    3  C   UNL     1     -10.697   4.565  72.347  1.00  0.00    -0.083 C  
HETATM    4  H   UNL     1      -9.848   2.703  71.982  1.00  0.00     0.000 HD 
HETATM    5  O   UNL     1     -11.378   5.285  73.070  1.00  0.00    -0.305 OA 
ENDROOT
BRANCH   3   6
HETATM    6  C   UNL     1     -10.063   5.095  71.099  1.00  0.00    -0.222 A  
HETATM    7  C   UNL     1      -9.569   6.393  71.103  1.00  0.00    -0.187 A  
HETATM    8  C   UNL     1      -8.947   6.856  69.951  1.00  0.00    -0.142 A  
HETATM    9  C   UNL     1      -8.895   6.041  68.824  1.00  0.00    -0.116 A  
HETATM   10  N   UNL     1     -10.009   4.263  70.022  1.00  0.00    -0.200 NA 
HETATM   11  C   UNL     1      -9.431   4.764  68.909  1.00  0.00    -0.146 A  
BRANCH   8  12
HETATM   12  O   UNL     1      -8.435   8.126  69.821  1.00  0.00    -0.122 OA 
BRANCH  12  13
HETATM   13  C   UNL     1      -8.919   8.957  68.833  1.00  0.00    -0.137 A  
HETATM   14  C   UNL     1      -8.031   9.916  68.342  1.00  0.00    -0.096 A  
HETATM   15  C   UNL     1      -8.464  10.826  67.382  1.00  0.00    -0.119 A  
HETATM   16  F   UNL     1      -7.611  11.755  66.925  1.00  0.00    -0.138 F  
HETATM   17  C   UNL     1      -9.790  10.833  66.943  1.00  0.00    -0.187 A  
HETATM   18  C   UNL     1     -10.244   8.940  68.381  1.00  0.00    -0.231 A  
HETATM   19  C   UNL     1     -10.678   9.872  67.432  1.00  0.00    -0.323 A  
BRANCH  17  20
HETATM   20  N   UNL     1     -10.208  11.824  66.027  1.00  0.00    -0.222 N  
HETATM   21  H   UNL     1      -9.721  11.932  65.137  1.00  0.00     0.000 HD 
BRANCH  20  22
HETATM   22  C   UNL     1     -11.280  12.653  66.332  1.00  0.00    -0.305 C  
HETATM   23  O   UNL     1     -12.385  12.593  65.800  1.00  0.00    -0.594 OA 
BRANCH  22  24
HETATM   24  N   UNL     1     -10.934  13.565  67.311  1.00  0.00    -0.276 N  
HETATM   25  H   UNL     1     -10.207  14.253  67.114  1.00  0.00     0.000 HD 
BRANCH  24  26
HETATM   26  C   UNL     1     -11.560  13.570  68.572  1.00  0.00    -0.333 A  
HETATM   27  C   UNL     1     -11.843  14.794  69.169  1.00  0.00    -0.340 A  
HETATM   28  C   UNL     1     -12.459  14.828  70.419  1.00  0.00    -0.405 A  
HETATM   29  C   UNL     1     -12.733  13.644  71.117  1.00  0.00    -0.353 A  
HETATM   30 CL   UNL     1     -13.472  13.832  72.664  1.00  0.00    -0.656 Cl 
HETATM   31  C   UNL     1     -12.407  12.404  70.558  1.00  0.00    -0.346 A  
HETATM   32  C   UNL     1     -11.850  12.383  69.257  1.00  0.00    -0.361 A  
HETATM   33  C   UNL     1     -12.574  11.084  71.270  1.00  0.00    -0.412 C  
HETATM   34  F   UNL     1     -13.419  10.243  70.610  1.00  0.00    -0.429 F  
HETATM   35  F   UNL     1     -11.387  10.412  71.358  1.00  0.00    -0.364 F  
HETATM   36  F   UNL     1     -13.039  11.139  72.546  1.00  0.00    -0.437 F  
ENDBRANCH  24  26
ENDBRANCH  22  24
ENDBRANCH  20  22
ENDBRANCH  17  20
ENDBRANCH  12  13
ENDBRANCH   8  12
ENDBRANCH   3   6
TORSDOF 7
ENDMDL
MODEL      102
REMARK 921   NORMALIZED FREE ENERGY PREDICTED BY IDOCK:   -5.93 KCAL/MOL
REMARK 922        TOTAL FREE ENERGY PREDICTED BY IDOCK:  -10.35 KCAL/MOL
REMARK 923 INTER-LIGAND FREE ENERGY PREDICTED BY IDOCK:   -9.51 KCAL/MOL
REMARK 924 INTRA-LIGAND FREE ENERGY PREDICTED BY IDOCK:   -0.84 KCAL/MOL
REMARK 927      BINDING AFFINITY PREDICTED BY RF-SCORE:    0.00 PKD
ROOT
HETATM    1  C   UNL     1      -9.610   5.033  73.839  1.00  0.00    -0.131 C  
HETATM    2  N   UNL     1      -9.462   6.105  72.893  1.00  0.00    -0.150 N  
HETATM    3  C   UNL     1     -10.282   7.212  72.937  1.00  0.00    -0.230 C  
HETATM    4  H   UNL     1      -8.738   6.046  72.177  1.00  0.00     0.000 HD 
HETATM    5  O   UNL     1     -11.142   7.386  73.795  1.00  0.00    -0.193 OA 
ENDROOT
BRANCH   3   6
HETATM    6  C   UNL     1     -10.061   8.212  71.845  1.00  0.00    -0.220 A  
HETATM    7  C   UNL     1     -11.168   8.773  71.223  1.00  0.00    -0.352 A  
HETATM    8  C   UNL     1     -10.947   9.729  70.239  1.00  0.00    -0.298 A  
HETATM    9  C   UNL     1      -9.643  10.044  69.870  1.00  0.00    -0.233 A  
HETATM   10  N   UNL     1      -8.772   8.513  71.524  1.00  0.00    -0.171 NA 
HETATM   11  C   UNL     1      -8.600   9.419  70.537  1.00  0.00    -0.223 A  
BRANCH   8  12
HETATM   12  O   UNL     1     -11.956  10.343  69.535  1.00  0.00    -0.206 OA 
BRANCH  12  13
HETATM   13  C   UNL     1     -11.992  11.719  69.459  1.00  0.00    -0.300 A  
HETATM   14  C   UNL     1     -11.777  12.273  68.195  1.00  0.00    -0.408 A  
HETATM   15  C   UNL     1     -11.745  13.657  68.048  1.00  0.00    -0.352 A  
HETATM   16  F   UNL     1     -11.523  14.183  66.834  1.00  0.00    -0.305 F  
HETATM   17  C   UNL     1     -11.865  14.501  69.154  1.00  0.00    -0.319 A  
HETATM   18  C   UNL     1     -12.139  12.558  70.570  1.00  0.00    -0.361 A  
HETATM   19  C   UNL     1     -12.083  13.948  70.418  1.00  0.00    -0.421 A  
BRANCH  17  20
HETATM   20  N   UNL     1     -11.747  15.898  68.972  1.00  0.00    -0.390 N  
HETATM   21  H   UNL     1     -12.553  16.440  68.660  1.00  0.00     0.000 HD 
BRANCH  20  22
HETATM   22  C   UNL     1     -10.538  16.536  69.216  1.00  0.00    -0.327 C  
HETATM   23  O   UNL     1      -9.506  15.970  69.569  1.00  0.00    -0.248 OA 
BRANCH  22  24
HETATM   24  N   UNL     1     -10.651  17.899  69.018  1.00  0.00    -0.361 N  
HETATM   25  H   UNL     1     -11.466  18.388  69.388  1.00  0.00     0.000 HD 
BRANCH  24  26
HETATM   26  C   UNL     1      -9.672  18.630  68.319  1.00  0.00    -0.357 A  
HETATM   27  C   UNL     1      -9.882  18.902  66.971  1.00  0.00    -0.368 A  
HETATM   28  C   UNL     1      -8.927  19.620  66.253  1.00  0.00    -0.420 A  
HETATM   29  C   UNL     1      -7.722  20.012  66.853  1.00  0.00    -0.293 A  
HETATM   30 CL   UNL     1      -6.619  20.871  65.843  1.00  0.00    -0.227 Cl 
HETATM   31  C   UNL     1      -7.467  19.702  68.194  1.00  0.00    -0.339 A  
HETATM   32  C   UNL     1      -8.478  19.037  68.929  1.00  0.00    -0.295 A  
HETATM   33  C   UNL     1      -6.166  19.995  68.899  1.00  0.00    -0.301 C  
HETATM   34  F   UNL     1      -6.332  20.821  69.970  1.00  0.00    -0.318 F  
HETATM   35  F   UNL     1      -5.605  18.854  69.402  1.00  0.00    -0.191 F  
HETATM   36  F   UNL     1      -5.187  20.565  68.148  1.00  0.00    -0.198 F  
ENDBRANCH  24  26
ENDBRANCH  22  24
ENDBRANCH  20  22
ENDBRANCH  17  20
ENDBRANCH  12  13
ENDBRANCH   8  12
ENDBRANCH   3   6
TORSDOF 7
ENDMDL
MODEL      103
REMARK 921   NORMALIZED FREE ENERGY PREDICTED BY IDOCK:   -5.92 KCAL/MOL
REMARK 922        TOTAL FREE ENERGY PREDICTED BY IDOCK:  -10.33 KCAL/MOL
REMARK 923 INTER-LIGAND FREE ENERGY PREDICTED BY IDOCK:   -9.34 KCAL/MOL
REMARK 924 INTRA-LIGAND FREE ENERGY PREDICTED BY IDOCK:   -1.00 KCAL/MOL
REMARK 927      BINDING AFFINITY PREDICTED BY RF-SCORE:    0.00 PKD
ROOT
HETATM    1  C   UNL     1      -6.022  13.857  70.612  1.00  0.00    -0.174 C  
HETATM    2  N   UNL     1      -7.108  14.548  69.972  1.00  0.00    -0.392 N  
HETATM    3  C   UNL     1      -6.965  15.845  69.528  1.00  0.00    -0.189 C  
HETATM    4  H   UNL     1      -8.000  14.070  69.844  1.00  0.00     0.000 HD 
HETATM    5  O   UNL     1      -5.913  16.473  69.596  1.00  0.00    -0.176 OA 
ENDROOT
BRANCH   3   6
HETATM    6  C   UNL     1      -8.202  16.460  68.951  1.00  0.00    -0.235 A  
HETATM    7  C   UNL     1      -9.415  15.811  69.134  1.00  0.00    -0.255 A  
HETATM    8  C   UNL     1     -10.559  16.415  68.628  1.00  0.00    -0.305 A  
HETATM    9  C   UNL     1     -10.447  17.602  67.909  1.00  0.00    -0.392 A  
HETATM   10  N   UNL     1      -8.059  17.633  68.273  1.00  0.00    -0.268 NA 
HETATM   11  C   UNL     1      -9.190  18.168  67.764  1.00  0.00    -0.263 A  
BRANCH   8  12
HETATM   12  O   UNL     1     -11.816  15.865  68.725  1.00  0.00    -0.393 OA 
BRANCH  12  13
HETATM   13  C   UNL     1     -11.953  14.498  68.835  1.00  0.00    -0.290 A  
HETATM   14  C   UNL     1     -12.294  14.011  70.098  1.00  0.00    -0.409 A  
HETATM   15  C   UNL     1     -12.398  12.638  70.300  1.00  0.00    -0.195 A  
HETATM   16  F   UNL     1     -12.712  12.176  71.520  1.00  0.00    -0.442 F  
HETATM   17  C   UNL     1     -12.109  11.736  69.275  1.00  0.00    -0.229 A  
HETATM   18  C   UNL     1     -11.685  13.602  67.793  1.00  0.00    -0.397 A  
HETATM   19  C   UNL     1     -11.770  12.222  68.010  1.00  0.00    -0.417 A  
BRANCH  17  20
HETATM   20  N   UNL     1     -12.149  10.349  69.545  1.00  0.00    -0.522 N  
HETATM   21  H   UNL     1     -13.048   9.876  69.645  1.00  0.00     0.000 HD 
BRANCH  20  22
HETATM   22  C   UNL     1     -10.971   9.626  69.674  1.00  0.00    -0.229 C  
HETATM   23  O   UNL     1      -9.899  10.095  70.049  1.00  0.00    -0.228 OA 
BRANCH  22  24
HETATM   24  N   UNL     1     -11.160   8.305  69.313  1.00  0.00    -0.430 N  
HETATM   25  H   UNL     1     -11.314   8.076  68.331  1.00  0.00     0.000 HD 
BRANCH  24  26
HETATM   26  C   UNL     1     -11.147   7.268  70.266  1.00  0.00    -0.266 A  
HETATM   27  C   UNL     1     -11.851   7.448  71.452  1.00  0.00    -0.329 A  
HETATM   28  C   UNL     1     -11.852   6.438  72.415  1.00  0.00    -0.255 A  
HETATM   29  C   UNL     1     -11.094   5.274  72.235  1.00  0.00    -0.153 A  
HETATM   30 CL   UNL     1     -11.165   4.120  73.515  1.00  0.00    -0.360 Cl 
HETATM   31  C   UNL     1     -10.336   5.097  71.072  1.00  0.00    -0.278 A  
HETATM   32  C   UNL     1     -10.404   6.097  70.072  1.00  0.00    -0.267 A  
HETATM   33  C   UNL     1      -9.416   3.926  70.830  1.00  0.00    -0.166 C  
HETATM   34  F   UNL     1      -9.772   3.206  69.729  1.00  0.00    -0.235 F  
HETATM   35  F   UNL     1      -8.134   4.340  70.596  1.00  0.00    -0.059 F  
HETATM   36  F   UNL     1      -9.312   3.020  71.839  1.00  0.00    -0.135 F  
ENDBRANCH  24  26
ENDBRANCH  22  24
ENDBRANCH  20  22
ENDBRANCH  17  20
ENDBRANCH  12  13
ENDBRANCH   8  12
ENDBRANCH   3   6
TORSDOF 7
ENDMDL
MODEL      104
REMARK 921   NORMALIZED FREE ENERGY PREDICTED BY IDOCK:   -5.89 KCAL/MOL
REMARK 922        TOTAL FREE ENERGY PREDICTED BY IDOCK:  -10.29 KCAL/MOL
REMARK 923 INTER-LIGAND FREE ENERGY PREDICTED BY IDOCK:   -8.75 KCAL/MOL
REMARK 924 INTRA-LIGAND FREE ENERGY PREDICTED BY IDOCK:   -1.54 KCAL/MOL
REMARK 927      BINDING AFFINITY PREDICTED BY RF-SCORE:    0.00 PKD
ROOT
HETATM    1  C   UNL     1      -5.649   8.061  72.811  1.00  0.00    -0.042 C  
HETATM    2  N   UNL     1      -6.963   7.651  72.396  1.00  0.00    -0.067 N  
HETATM    3  C   UNL     1      -8.079   7.986  73.132  1.00  0.00    -0.176 C  
HETATM    4  H   UNL     1      -7.071   7.103  71.543  1.00  0.00     0.000 HD 
HETATM    5  O   UNL     1      -8.043   8.685  74.140  1.00  0.00    -0.373 OA 
ENDROOT
BRANCH   3   6
HETATM    6  C   UNL     1      -9.371   7.427  72.620  1.00  0.00    -0.150 A  
HETATM    7  C   UNL     1      -9.346   6.631  71.483  1.00  0.00    -0.153 A  
HETATM    8  C   UNL     1     -10.546   6.087  71.045  1.00  0.00    -0.246 A  
HETATM    9  C   UNL     1     -11.727   6.401  71.711  1.00  0.00    -0.376 A  
HETATM   10  N   UNL     1     -10.503   7.737  73.310  1.00  0.00    -0.346 NA 
HETATM   11  C   UNL     1     -11.654   7.219  72.829  1.00  0.00    -0.171 A  
BRANCH   8  12
HETATM   12  O   UNL     1     -10.659   5.300  69.922  1.00  0.00    -0.306 OA 
BRANCH  12  13
HETATM   13  C   UNL     1     -10.318   5.819  68.691  1.00  0.00    -0.221 A  
HETATM   14  C   UNL     1      -9.186   5.272  68.083  1.00  0.00    -0.129 A  
HETATM   15  C   UNL     1      -8.748   5.781  66.864  1.00  0.00    -0.110 A  
HETATM   16  F   UNL     1      -7.652   5.262  66.291  1.00  0.00    -0.082 F  
HETATM   17  C   UNL     1      -9.388   6.869  66.266  1.00  0.00    -0.099 A  
HETATM   18  C   UNL     1     -10.981   6.894  68.088  1.00  0.00    -0.220 A  
HETATM   19  C   UNL     1     -10.521   7.415  66.873  1.00  0.00    -0.379 A  
BRANCH  17  20
HETATM   20  N   UNL     1      -8.862   7.406  65.069  1.00  0.00    -0.343 N  
HETATM   21  H   UNL     1      -8.779   6.816  64.241  1.00  0.00     0.000 HD 
BRANCH  20  22
HETATM   22  C   UNL     1      -8.460   8.734  65.014  1.00  0.00    -0.175 C  
HETATM   23  O   UNL     1      -7.572   9.226  65.706  1.00  0.00    -0.096 OA 
BRANCH  22  24
HETATM   24  N   UNL     1      -9.200   9.435  64.081  1.00  0.00    -0.427 N  
HETATM   25  H   UNL     1      -9.118   9.189  63.095  1.00  0.00     0.000 HD 
BRANCH  24  26
HETATM   26  C   UNL     1     -10.065  10.481  64.457  1.00  0.00    -0.332 A  
HETATM   27  C   UNL     1     -10.513  11.358  63.475  1.00  0.00    -0.477 A  
HETATM   28  C   UNL     1     -11.367  12.405  63.820  1.00  0.00    -0.536 A  
HETATM   29  C   UNL     1     -11.724  12.630  65.156  1.00  0.00    -0.367 A  
HETATM   30 CL   UNL     1     -12.765  13.975  65.444  1.00  0.00    -0.532 Cl 
HETATM   31  C   UNL     1     -11.241  11.791  66.167  1.00  0.00    -0.363 A  
HETATM   32  C   UNL     1     -10.435  10.689  65.792  1.00  0.00    -0.235 A  
HETATM   33  C   UNL     1     -11.491  12.008  67.639  1.00  0.00    -0.322 C  
HETATM   34  F   UNL     1     -12.150  10.963  68.212  1.00  0.00    -0.330 F  
HETATM   35  F   UNL     1     -10.317  12.122  68.331  1.00  0.00    -0.202 F  
HETATM   36  F   UNL     1     -12.203  13.116  67.975  1.00  0.00    -0.365 F  
ENDBRANCH  24  26
ENDBRANCH  22  24
ENDBRANCH  20  22
ENDBRANCH  17  20
ENDBRANCH  12  13
ENDBRANCH   8  12
ENDBRANCH   3   6
TORSDOF 7
ENDMDL
MODEL      105
REMARK 921   NORMALIZED FREE ENERGY PREDICTED BY IDOCK:   -5.89 KCAL/MOL
REMARK 922        TOTAL FREE ENERGY PREDICTED BY IDOCK:  -10.28 KCAL/MOL
REMARK 923 INTER-LIGAND FREE ENERGY PREDICTED BY IDOCK:   -8.35 KCAL/MOL
REMARK 924 INTRA-LIGAND FREE ENERGY PREDICTED BY IDOCK:   -1.93 KCAL/MOL
REMARK 927      BINDING AFFINITY PREDICTED BY RF-SCORE:    0.00 PKD
ROOT
HETATM    1  C   UNL     1      -5.911  20.417  68.890  1.00  0.00    -0.321 C  
HETATM    2  N   UNL     1      -6.532  19.228  68.374  1.00  0.00    -0.237 N  
HETATM    3  C   UNL     1      -6.455  18.031  69.053  1.00  0.00    -0.240 C  
HETATM    4  H   UNL     1      -7.038  19.270  67.489  1.00  0.00     0.000 HD 
HETATM    5  O   UNL     1      -5.912  17.904  70.145  1.00  0.00    -0.225 OA 
ENDROOT
BRANCH   3   6
HETATM    6  C   UNL     1      -7.084  16.863  68.358  1.00  0.00    -0.187 A  
HETATM    7  C   UNL     1      -6.332  15.710  68.182  1.00  0.00    -0.133 A  
HETATM    8  C   UNL     1      -6.943  14.622  67.572  1.00  0.00    -0.168 A  
HETATM    9  C   UNL     1      -8.249  14.740  67.107  1.00  0.00    -0.239 A  
HETATM   10  N   UNL     1      -8.371  17.006  67.936  1.00  0.00    -0.197 NA 
HETATM   11  C   UNL     1      -8.916  15.938  67.314  1.00  0.00    -0.195 A  
BRANCH   8  12
HETATM   12  O   UNL     1      -6.301  13.431  67.322  1.00  0.00    -0.291 OA 
BRANCH  12  13
HETATM   13  C   UNL     1      -6.919  12.243  67.649  1.00  0.00    -0.128 A  
HETATM   14  C   UNL     1      -7.264  11.412  66.581  1.00  0.00    -0.102 A  
HETATM   15  C   UNL     1      -7.940  10.221  66.828  1.00  0.00    -0.114 A  
HETATM   16  F   UNL     1      -8.281   9.433  65.797  1.00  0.00    -0.108 F  
HETATM   17  C   UNL     1      -8.332   9.870  68.122  1.00  0.00    -0.110 A  
HETATM   18  C   UNL     1      -7.286  11.889  68.953  1.00  0.00    -0.098 A  
HETATM   19  C   UNL     1      -7.985  10.700  69.191  1.00  0.00    -0.139 A  
BRANCH  17  20
HETATM   20  N   UNL     1      -9.086   8.691  68.319  1.00  0.00    -0.141 N  
HETATM   21  H   UNL     1      -8.662   7.889  68.786  1.00  0.00     0.000 HD 
BRANCH  20  22
HETATM   22  C   UNL     1     -10.401   8.620  67.880  1.00  0.00    -0.229 C  
HETATM   23  O   UNL     1     -10.769   8.041  66.860  1.00  0.00    -0.322 OA 
BRANCH  22  24
HETATM   24  N   UNL     1     -11.245   9.297  68.739  1.00  0.00    -0.447 N  
HETATM   25  H   UNL     1     -11.747   8.774  69.457  1.00  0.00     0.000 HD 
BRANCH  24  26
HETATM   26  C   UNL     1     -11.431  10.690  68.649  1.00  0.00    -0.263 A  
HETATM   27  C   UNL     1     -11.649  11.408  69.821  1.00  0.00    -0.407 A  
HETATM   28  C   UNL     1     -11.839  12.788  69.760  1.00  0.00    -0.380 A  
HETATM   29  C   UNL     1     -11.885  13.454  68.528  1.00  0.00    -0.366 A  
HETATM   30 CL   UNL     1     -12.153  15.156  68.597  1.00  0.00    -0.246 Cl 
HETATM   31  C   UNL     1     -11.721  12.742  67.334  1.00  0.00    -0.425 A  
HETATM   32  C   UNL     1     -11.455  11.353  67.416  1.00  0.00    -0.328 A  
HETATM   33  C   UNL     1     -11.848  13.351  65.960  1.00  0.00    -0.383 C  
HETATM   34  F   UNL     1     -10.702  13.235  65.233  1.00  0.00    -0.284 F  
HETATM   35  F   UNL     1     -12.811  12.719  65.223  1.00  0.00    -0.547 F  
HETATM   36  F   UNL     1     -12.179  14.668  65.911  1.00  0.00    -0.353 F  
ENDBRANCH  24  26
ENDBRANCH  22  24
ENDBRANCH  20  22
ENDBRANCH  17  20
ENDBRANCH  12  13
ENDBRANCH   8  12
ENDBRANCH   3   6
TORSDOF 7
ENDMDL
MODEL      106
REMARK 921   NORMALIZED FREE ENERGY PREDICTED BY IDOCK:   -5.88 KCAL/MOL
REMARK 922        TOTAL FREE ENERGY PREDICTED BY IDOCK:  -10.28 KCAL/MOL
REMARK 923 INTER-LIGAND FREE ENERGY PREDICTED BY IDOCK:   -9.23 KCAL/MOL
REMARK 924 INTRA-LIGAND FREE ENERGY PREDICTED BY IDOCK:   -1.05 KCAL/MOL
REMARK 927      BINDING AFFINITY PREDICTED BY RF-SCORE:    0.00 PKD
ROOT
HETATM    1  C   UNL     1     -10.379  19.400  66.049  1.00  0.00    -0.497 C  
HETATM    2  N   UNL     1     -10.511  17.971  65.973  1.00  0.00    -0.376 N  
HETATM    3  C   UNL     1      -9.402  17.153  65.957  1.00  0.00    -0.124 C  
HETATM    4  H   UNL     1     -11.441  17.555  65.930  1.00  0.00     0.000 HD 
HETATM    5  O   UNL     1      -8.252  17.567  66.057  1.00  0.00    -0.491 OA 
ENDROOT
BRANCH   3   6
HETATM    6  C   UNL     1      -9.690  15.692  65.798  1.00  0.00    -0.345 A  
HETATM    7  C   UNL     1      -9.131  14.802  66.704  1.00  0.00    -0.300 A  
HETATM    8  C   UNL     1      -9.442  13.455  66.569  1.00  0.00    -0.245 A  
HETATM    9  C   UNL     1     -10.240  13.038  65.508  1.00  0.00    -0.296 A  
HETATM   10  N   UNL     1     -10.493  15.322  64.762  1.00  0.00    -0.291 NA 
HETATM   11  C   UNL     1     -10.740  13.999  64.643  1.00  0.00    -0.399 A  
BRANCH   8  12
HETATM   12  O   UNL     1      -8.937  12.472  67.388  1.00  0.00    -0.172 OA 
BRANCH  12  13
HETATM   13  C   UNL     1      -9.790  11.766  68.210  1.00  0.00    -0.198 A  
HETATM   14  C   UNL     1      -9.522  10.404  68.355  1.00  0.00    -0.151 A  
HETATM   15  C   UNL     1     -10.372   9.615  69.125  1.00  0.00    -0.207 A  
HETATM   16  F   UNL     1     -10.117   8.303  69.248  1.00  0.00    -0.179 F  
HETATM   17  C   UNL     1     -11.521  10.151  69.708  1.00  0.00    -0.228 A  
HETATM   18  C   UNL     1     -10.927  12.320  68.811  1.00  0.00    -0.277 A  
HETATM   19  C   UNL     1     -11.789  11.515  69.565  1.00  0.00    -0.419 A  
BRANCH  17  20
HETATM   20  N   UNL     1     -12.399   9.299  70.415  1.00  0.00    -0.459 N  
HETATM   21  H   UNL     1     -12.815   8.495  69.944  1.00  0.00     0.000 HD 
BRANCH  20  22
HETATM   22  C   UNL     1     -12.698   9.550  71.748  1.00  0.00    -0.404 C  
HETATM   23  O   UNL     1     -13.069  10.635  72.189  1.00  0.00    -0.460 OA 
BRANCH  22  24
HETATM   24  N   UNL     1     -12.512   8.417  72.517  1.00  0.00    -0.555 N  
HETATM   25  H   UNL     1     -13.304   8.029  73.028  1.00  0.00     0.000 HD 
BRANCH  24  26
HETATM   26  C   UNL     1     -11.257   7.786  72.613  1.00  0.00    -0.381 A  
HETATM   27  C   UNL     1     -10.118   8.582  72.698  1.00  0.00    -0.253 A  
HETATM   28  C   UNL     1      -8.863   7.983  72.792  1.00  0.00    -0.277 A  
HETATM   29  C   UNL     1      -8.724   6.590  72.729  1.00  0.00    -0.124 A  
HETATM   30 CL   UNL     1      -7.112   5.985  72.830  1.00  0.00    -0.080 Cl 
HETATM   31  C   UNL     1      -9.853   5.774  72.590  1.00  0.00    -0.183 A  
HETATM   32  C   UNL     1     -11.126   6.393  72.571  1.00  0.00    -0.298 A  
HETATM   33  C   UNL     1      -9.799   4.276  72.418  1.00  0.00    -0.158 C  
HETATM   34  F   UNL     1     -10.453   3.616  73.414  1.00  0.00    -0.185 F  
HETATM   35  F   UNL     1     -10.412   3.885  71.260  1.00  0.00    -0.135 F  
HETATM   36  F   UNL     1      -8.561   3.717  72.363  1.00  0.00    -0.085 F  
ENDBRANCH  24  26
ENDBRANCH  22  24
ENDBRANCH  20  22
ENDBRANCH  17  20
ENDBRANCH  12  13
ENDBRANCH   8  12
ENDBRANCH   3   6
TORSDOF 7
ENDMDL
MODEL      107
REMARK 921   NORMALIZED FREE ENERGY PREDICTED BY IDOCK:   -5.87 KCAL/MOL
REMARK 922        TOTAL FREE ENERGY PREDICTED BY IDOCK:  -10.27 KCAL/MOL
REMARK 923 INTER-LIGAND FREE ENERGY PREDICTED BY IDOCK:   -8.84 KCAL/MOL
REMARK 924 INTRA-LIGAND FREE ENERGY PREDICTED BY IDOCK:   -1.42 KCAL/MOL
REMARK 927      BINDING AFFINITY PREDICTED BY RF-SCORE:    0.00 PKD
ROOT
HETATM    1  C   UNL     1      -7.298   2.608  69.206  1.00  0.00    -0.044 C  
HETATM    2  N   UNL     1      -8.077   3.631  68.564  1.00  0.00    -0.069 N  
HETATM    3  C   UNL     1      -8.234   4.874  69.139  1.00  0.00    -0.078 C  
HETATM    4  H   UNL     1      -8.520   3.435  67.666  1.00  0.00     0.000 HD 
HETATM    5  O   UNL     1      -7.694   5.209  70.188  1.00  0.00    -0.068 OA 
ENDROOT
BRANCH   3   6
HETATM    6  C   UNL     1      -9.132   5.812  68.393  1.00  0.00    -0.118 A  
HETATM    7  C   UNL     1      -8.582   6.611  67.401  1.00  0.00    -0.119 A  
HETATM    8  C   UNL     1      -9.434   7.446  66.690  1.00  0.00    -0.187 A  
HETATM    9  C   UNL     1     -10.782   7.500  67.031  1.00  0.00    -0.367 A  
HETATM   10  N   UNL     1     -10.450   5.823  68.738  1.00  0.00    -0.228 NA 
HETATM   11  C   UNL     1     -11.238   6.675  68.048  1.00  0.00    -0.117 A  
BRANCH   8  12
HETATM   12  O   UNL     1      -9.011   8.301  65.699  1.00  0.00    -0.171 OA 
BRANCH  12  13
HETATM   13  C   UNL     1      -9.191   9.659  65.849  1.00  0.00    -0.194 A  
HETATM   14  C   UNL     1      -9.962  10.291  64.871  1.00  0.00    -0.393 A  
HETATM   15  C   UNL     1     -10.144  11.670  64.925  1.00  0.00    -0.260 A  
HETATM   16  F   UNL     1     -10.873  12.274  63.975  1.00  0.00    -0.307 F  
HETATM   17  C   UNL     1      -9.520  12.441  65.908  1.00  0.00    -0.129 A  
HETATM   18  C   UNL     1      -8.581  10.420  66.854  1.00  0.00    -0.127 A  
HETATM   19  C   UNL     1      -8.751  11.808  66.888  1.00  0.00    -0.189 A  
BRANCH  17  20
HETATM   20  N   UNL     1      -9.666  13.846  65.880  1.00  0.00    -0.466 N  
HETATM   21  H   UNL     1      -9.378  14.370  65.053  1.00  0.00     0.000 HD 
BRANCH  20  22
HETATM   22  C   UNL     1     -10.200  14.517  66.972  1.00  0.00    -0.262 C  
HETATM   23  O   UNL     1      -9.609  15.372  67.627  1.00  0.00    -0.209 OA 
BRANCH  22  24
HETATM   24  N   UNL     1     -11.488  14.088  67.232  1.00  0.00    -0.330 N  
HETATM   25  H   UNL     1     -12.222  14.278  66.550  1.00  0.00     0.000 HD 
BRANCH  24  26
HETATM   26  C   UNL     1     -11.813  13.396  68.415  1.00  0.00    -0.366 A  
HETATM   27  C   UNL     1     -11.887  12.007  68.372  1.00  0.00    -0.360 A  
HETATM   28  C   UNL     1     -12.209  11.297  69.528  1.00  0.00    -0.325 A  
HETATM   29  C   UNL     1     -12.531  11.966  70.716  1.00  0.00    -0.291 A  
HETATM   30 CL   UNL     1     -12.937  10.966  72.062  1.00  0.00    -0.519 Cl 
HETATM   31  C   UNL     1     -12.514  13.364  70.766  1.00  0.00    -0.418 A  
HETATM   32  C   UNL     1     -12.113  14.069  69.605  1.00  0.00    -0.408 A  
HETATM   33  C   UNL     1     -12.936  14.174  71.967  1.00  0.00    -0.360 C  
HETATM   34  F   UNL     1     -11.929  14.959  72.442  1.00  0.00    -0.392 F  
HETATM   35  F   UNL     1     -13.952  15.035  71.655  1.00  0.00    -0.403 F  
HETATM   36  F   UNL     1     -13.389  13.474  73.040  1.00  0.00    -0.571 F  
ENDBRANCH  24  26
ENDBRANCH  22  24
ENDBRANCH  20  22
ENDBRANCH  17  20
ENDBRANCH  12  13
ENDBRANCH   8  12
ENDBRANCH   3   6
TORSDOF 7
ENDMDL
MODEL      108
REMARK 921   NORMALIZED FREE ENERGY PREDICTED BY IDOCK:   -5.85 KCAL/MOL
REMARK 922        TOTAL FREE ENERGY PREDICTED BY IDOCK:  -10.23 KCAL/MOL
REMARK 923 INTER-LIGAND FREE ENERGY PREDICTED BY IDOCK:   -8.61 KCAL/MOL
REMARK 924 INTRA-LIGAND FREE ENERGY PREDICTED BY IDOCK:   -1.62 KCAL/MOL
REMARK 927      BINDING AFFINITY PREDICTED BY RF-SCORE:    0.00 PKD
ROOT
HETATM    1  C   UNL     1      -9.477   1.642  68.414  1.00  0.00    -0.186 C  
HETATM    2  N   UNL     1      -8.916   2.903  68.013  1.00  0.00    -0.134 N  
HETATM    3  C   UNL     1      -9.188   4.059  68.714  1.00  0.00    -0.151 C  
HETATM    4  H   UNL     1      -8.306   2.944  67.197  1.00  0.00     0.000 HD 
HETATM    5  O   UNL     1      -9.867   4.090  69.734  1.00  0.00    -0.211 OA 
ENDROOT
BRANCH   3   6
HETATM    6  C   UNL     1      -8.596   5.307  68.136  1.00  0.00    -0.099 A  
HETATM    7  C   UNL     1      -8.890   6.523  68.738  1.00  0.00    -0.125 A  
HETATM    8  C   UNL     1      -8.300   7.667  68.216  1.00  0.00    -0.125 A  
HETATM    9  C   UNL     1      -7.495   7.569  67.085  1.00  0.00    -0.099 A  
HETATM   10  N   UNL     1      -7.795   5.171  67.043  1.00  0.00    -0.096 NA 
HETATM   11  C   UNL     1      -7.271   6.312  66.543  1.00  0.00    -0.073 A  
BRANCH   8  12
HETATM   12  O   UNL     1      -8.527   8.932  68.707  1.00  0.00    -0.128 OA 
BRANCH  12  13
HETATM   13  C   UNL     1      -9.032   9.905  67.873  1.00  0.00    -0.128 A  
HETATM   14  C   UNL     1      -8.350  11.124  67.862  1.00  0.00    -0.129 A  
HETATM   15  C   UNL     1      -8.832  12.174  67.085  1.00  0.00    -0.191 A  
HETATM   16  F   UNL     1      -8.181  13.347  67.090  1.00  0.00    -0.170 F  
HETATM   17  C   UNL     1     -10.020  12.048  66.362  1.00  0.00    -0.219 A  
HETATM   18  C   UNL     1     -10.211   9.761  67.131  1.00  0.00    -0.288 A  
HETATM   19  C   UNL     1     -10.701  10.828  66.370  1.00  0.00    -0.228 A  
BRANCH  17  20
HETATM   20  N   UNL     1     -10.516  13.163  65.650  1.00  0.00    -0.277 N  
HETATM   21  H   UNL     1     -10.100  13.421  64.755  1.00  0.00     0.000 HD 
BRANCH  20  22
HETATM   22  C   UNL     1     -11.568  13.911  66.163  1.00  0.00    -0.359 C  
HETATM   23  O   UNL     1     -12.696  13.957  65.679  1.00  0.00    -0.521 OA 
BRANCH  22  24
HETATM   24  N   UNL     1     -11.174  14.606  67.291  1.00  0.00    -0.325 N  
HETATM   25  H   UNL     1     -10.460  15.329  67.203  1.00  0.00     0.000 HD 
BRANCH  24  26
HETATM   26  C   UNL     1     -11.732  14.342  68.556  1.00  0.00    -0.341 A  
HETATM   27  C   UNL     1     -12.081  15.418  69.366  1.00  0.00    -0.308 A  
HETATM   28  C   UNL     1     -12.632  15.185  70.625  1.00  0.00    -0.450 A  
HETATM   29  C   UNL     1     -12.775  13.880  71.117  1.00  0.00    -0.367 A  
HETATM   30 CL   UNL     1     -13.446  13.738  72.699  1.00  0.00    -0.656 Cl 
HETATM   31  C   UNL     1     -12.381  12.786  70.340  1.00  0.00    -0.324 A  
HETATM   32  C   UNL     1     -11.891  13.035  69.034  1.00  0.00    -0.362 A  
HETATM   33  C   UNL     1     -12.406  11.355  70.817  1.00  0.00    -0.386 C  
HETATM   34  F   UNL     1     -13.213  10.567  70.053  1.00  0.00    -0.282 F  
HETATM   35  F   UNL     1     -11.165  10.784  70.743  1.00  0.00    -0.369 F  
HETATM   36  F   UNL     1     -12.807  11.152  72.100  1.00  0.00    -0.506 F  
ENDBRANCH  24  26
ENDBRANCH  22  24
ENDBRANCH  20  22
ENDBRANCH  17  20
ENDBRANCH  12  13
ENDBRANCH   8  12
ENDBRANCH   3   6
TORSDOF 7
ENDMDL
MODEL      109
REMARK 921   NORMALIZED FREE ENERGY PREDICTED BY IDOCK:   -5.82 KCAL/MOL
REMARK 922        TOTAL FREE ENERGY PREDICTED BY IDOCK:  -10.19 KCAL/MOL
REMARK 923 INTER-LIGAND FREE ENERGY PREDICTED BY IDOCK:   -9.62 KCAL/MOL
REMARK 924 INTRA-LIGAND FREE ENERGY PREDICTED BY IDOCK:   -0.58 KCAL/MOL
REMARK 927      BINDING AFFINITY PREDICTED BY RF-SCORE:    0.00 PKD
ROOT
HETATM    1  C   UNL     1     -10.754   4.583  74.194  1.00  0.00    -0.259 C  
HETATM    2  N   UNL     1     -10.521   5.815  73.491  1.00  0.00    -0.238 N  
HETATM    3  C   UNL     1     -10.517   5.860  72.114  1.00  0.00    -0.207 C  
HETATM    4  H   UNL     1     -10.356   6.670  74.021  1.00  0.00     0.000 HD 
HETATM    5  O   UNL     1     -10.758   4.891  71.402  1.00  0.00    -0.104 OA 
ENDROOT
BRANCH   3   6
HETATM    6  C   UNL     1     -10.187   7.195  71.522  1.00  0.00    -0.197 A  
HETATM    7  C   UNL     1     -11.171   8.174  71.497  1.00  0.00    -0.307 A  
HETATM    8  C   UNL     1     -10.836   9.420  70.982  1.00  0.00    -0.336 A  
HETATM    9  C   UNL     1      -9.564   9.627  70.458  1.00  0.00    -0.261 A  
HETATM   10  N   UNL     1      -8.926   7.369  71.038  1.00  0.00    -0.151 NA 
HETATM   11  C   UNL     1      -8.652   8.583  70.511  1.00  0.00    -0.147 A  
BRANCH   8  12
HETATM   12  O   UNL     1     -11.725  10.466  70.884  1.00  0.00    -0.335 OA 
BRANCH  12  13
HETATM   13  C   UNL     1     -11.679  11.295  69.783  1.00  0.00    -0.349 A  
HETATM   14  C   UNL     1     -11.988  12.638  70.009  1.00  0.00    -0.377 A  
HETATM   15  C   UNL     1     -12.016  13.526  68.937  1.00  0.00    -0.341 A  
HETATM   16  F   UNL     1     -12.327  14.812  69.158  1.00  0.00    -0.308 F  
HETATM   17  C   UNL     1     -11.798  13.084  67.631  1.00  0.00    -0.351 A  
HETATM   18  C   UNL     1     -11.435  10.847  68.479  1.00  0.00    -0.380 A  
HETATM   19  C   UNL     1     -11.487  11.741  67.405  1.00  0.00    -0.375 A  
BRANCH  17  20
HETATM   20  N   UNL     1     -11.915  14.003  66.563  1.00  0.00    -0.424 N  
HETATM   21  H   UNL     1     -12.821  14.418  66.347  1.00  0.00     0.000 HD 
BRANCH  20  22
HETATM   22  C   UNL     1     -10.801  14.343  65.807  1.00  0.00    -0.307 C  
HETATM   23  O   UNL     1     -10.706  14.190  64.592  1.00  0.00    -0.416 OA 
BRANCH  22  24
HETATM   24  N   UNL     1      -9.804  14.870  66.607  1.00  0.00    -0.250 N  
HETATM   25  H   UNL     1      -9.156  14.236  67.074  1.00  0.00     0.000 HD 
BRANCH  24  26
HETATM   26  C   UNL     1      -9.661  16.258  66.793  1.00  0.00    -0.239 A  
HETATM   27  C   UNL     1     -10.774  16.994  67.188  1.00  0.00    -0.177 A  
HETATM   28  C   UNL     1     -10.660  18.370  67.377  1.00  0.00    -0.445 A  
HETATM   29  C   UNL     1      -9.458  19.036  67.105  1.00  0.00    -0.307 A  
HETATM   30 CL   UNL     1      -9.465  20.743  67.356  1.00  0.00    -0.526 Cl 
HETATM   31  C   UNL     1      -8.341  18.323  66.656  1.00  0.00    -0.281 A  
HETATM   32  C   UNL     1      -8.451  16.915  66.540  1.00  0.00    -0.307 A  
HETATM   33  C   UNL     1      -7.036  18.960  66.247  1.00  0.00    -0.243 C  
HETATM   34  F   UNL     1      -5.989  18.528  67.003  1.00  0.00    -0.153 F  
HETATM   35  F   UNL     1      -6.709  18.642  64.957  1.00  0.00    -0.284 F  
HETATM   36  F   UNL     1      -6.985  20.318  66.295  1.00  0.00    -0.235 F  
ENDBRANCH  24  26
ENDBRANCH  22  24
ENDBRANCH  20  22
ENDBRANCH  17  20
ENDBRANCH  12  13
ENDBRANCH   8  12
ENDBRANCH   3   6
TORSDOF 7
ENDMDL
MODEL      110
REMARK 921   NORMALIZED FREE ENERGY PREDICTED BY IDOCK:   -5.80 KCAL/MOL
REMARK 922        TOTAL FREE ENERGY PREDICTED BY IDOCK:  -10.16 KCAL/MOL
REMARK 923 INTER-LIGAND FREE ENERGY PREDICTED BY IDOCK:   -9.60 KCAL/MOL
REMARK 924 INTRA-LIGAND FREE ENERGY PREDICTED BY IDOCK:   -0.56 KCAL/MOL
REMARK 927      BINDING AFFINITY PREDICTED BY RF-SCORE:    0.00 PKD
ROOT
HETATM    1  C   UNL     1     -10.253   3.029  73.635  1.00  0.00    -0.125 C  
HETATM    2  N   UNL     1     -10.185   3.907  72.499  1.00  0.00    -0.168 N  
HETATM    3  C   UNL     1     -10.468   5.251  72.618  1.00  0.00    -0.218 C  
HETATM    4  H   UNL     1      -9.924   3.529  71.588  1.00  0.00     0.000 HD 
HETATM    5  O   UNL     1     -10.739   5.795  73.683  1.00  0.00    -0.262 OA 
ENDROOT
BRANCH   3   6
HETATM    6  C   UNL     1     -10.429   6.026  71.337  1.00  0.00    -0.231 A  
HETATM    7  C   UNL     1     -10.123   7.378  71.387  1.00  0.00    -0.196 A  
HETATM    8  C   UNL     1     -10.051   8.074  70.187  1.00  0.00    -0.194 A  
HETATM    9  C   UNL     1     -10.346   7.419  68.996  1.00  0.00    -0.214 A  
HETATM   10  N   UNL     1     -10.702   5.347  70.188  1.00  0.00    -0.278 NA 
HETATM   11  C   UNL     1     -10.659   6.069  69.046  1.00  0.00    -0.291 A  
BRANCH   8  12
HETATM   12  O   UNL     1      -9.777   9.419  70.103  1.00  0.00    -0.202 OA 
BRANCH  12  13
HETATM   13  C   UNL     1     -10.316  10.160  69.073  1.00  0.00    -0.212 A  
HETATM   14  C   UNL     1      -9.524  10.297  67.931  1.00  0.00    -0.154 A  
HETATM   15  C   UNL     1      -9.978  11.076  66.870  1.00  0.00    -0.196 A  
HETATM   16  F   UNL     1      -9.207  11.215  65.781  1.00  0.00    -0.195 F  
HETATM   17  C   UNL     1     -11.186  11.771  66.952  1.00  0.00    -0.327 A  
HETATM   18  C   UNL     1     -11.541  10.833  69.155  1.00  0.00    -0.376 A  
HETATM   19  C   UNL     1     -11.980  11.632  68.094  1.00  0.00    -0.214 A  
BRANCH  17  20
HETATM   20  N   UNL     1     -11.572  12.613  65.885  1.00  0.00    -0.374 N  
HETATM   21  H   UNL     1     -11.356  12.347  64.924  1.00  0.00     0.000 HD 
BRANCH  20  22
HETATM   22  C   UNL     1     -12.244  13.802  66.139  1.00  0.00    -0.459 C  
HETATM   23  O   UNL     1     -13.266  14.165  65.562  1.00  0.00    -0.688 OA 
BRANCH  22  24
HETATM   24  N   UNL     1     -11.603  14.530  67.123  1.00  0.00    -0.375 N  
HETATM   25  H   UNL     1     -11.871  14.391  68.097  1.00  0.00     0.000 HD 
BRANCH  24  26
HETATM   26  C   UNL     1     -10.591  15.459  66.815  1.00  0.00    -0.309 A  
HETATM   27  C   UNL     1      -9.272  15.017  66.780  1.00  0.00    -0.280 A  
HETATM   28  C   UNL     1      -8.249  15.916  66.482  1.00  0.00    -0.307 A  
HETATM   29  C   UNL     1      -8.522  17.276  66.286  1.00  0.00    -0.243 A  
HETATM   30 CL   UNL     1      -7.161  18.280  65.950  1.00  0.00    -0.305 Cl 
HETATM   31  C   UNL     1      -9.836  17.751  66.369  1.00  0.00    -0.328 A  
HETATM   32  C   UNL     1     -10.872  16.814  66.600  1.00  0.00    -0.005 A  
HETATM   33  C   UNL     1     -10.218  19.207  66.268  1.00  0.00    -0.452 C  
HETATM   34  F   UNL     1     -11.062  19.451  65.227  1.00  0.00    -0.486 F  
HETATM   35  F   UNL     1     -10.888  19.624  67.385  1.00  0.00    -0.536 F  
HETATM   36  F   UNL     1      -9.196  20.092  66.124  1.00  0.00    -0.402 F  
ENDBRANCH  24  26
ENDBRANCH  22  24
ENDBRANCH  20  22
ENDBRANCH  17  20
ENDBRANCH  12  13
ENDBRANCH   8  12
ENDBRANCH   3   6
TORSDOF 7
ENDMDL
MODEL      111
REMARK 921   NORMALIZED FREE ENERGY PREDICTED BY IDOCK:   -5.80 KCAL/MOL
REMARK 922        TOTAL FREE ENERGY PREDICTED BY IDOCK:  -10.16 KCAL/MOL
REMARK 923 INTER-LIGAND FREE ENERGY PREDICTED BY IDOCK:   -8.66 KCAL/MOL
REMARK 924 INTRA-LIGAND FREE ENERGY PREDICTED BY IDOCK:   -1.49 KCAL/MOL
REMARK 927      BINDING AFFINITY PREDICTED BY RF-SCORE:    0.00 PKD
ROOT
HETATM    1  C   UNL     1      -9.470   5.577  72.766  1.00  0.00    -0.148 C  
HETATM    2  N   UNL     1      -9.363   5.996  71.396  1.00  0.00    -0.146 N  
HETATM    3  C   UNL     1      -9.590   5.114  70.361  1.00  0.00    -0.187 C  
HETATM    4  H   UNL     1      -9.114   6.963  71.185  1.00  0.00     0.000 HD 
HETATM    5  O   UNL     1      -9.942   3.951  70.525  1.00  0.00    -0.165 OA 
ENDROOT
BRANCH   3   6
HETATM    6  C   UNL     1      -9.368   5.673  68.989  1.00  0.00    -0.124 A  
HETATM    7  C   UNL     1     -10.186   6.705  68.551  1.00  0.00    -0.185 A  
HETATM    8  C   UNL     1      -9.941   7.240  67.293  1.00  0.00    -0.192 A  
HETATM    9  C   UNL     1      -8.941   6.690  66.496  1.00  0.00    -0.155 A  
HETATM   10  N   UNL     1      -8.367   5.125  68.246  1.00  0.00    -0.096 NA 
HETATM   11  C   UNL     1      -8.186   5.648  67.013  1.00  0.00    -0.101 A  
BRANCH   8  12
HETATM   12  O   UNL     1     -10.691   8.250  66.737  1.00  0.00    -0.267 OA 
BRANCH  12  13
HETATM   13  C   UNL     1     -10.156   9.517  66.635  1.00  0.00    -0.252 A  
HETATM   14  C   UNL     1      -9.460   9.985  67.751  1.00  0.00    -0.157 A  
HETATM   15  C   UNL     1      -8.938  11.275  67.744  1.00  0.00    -0.141 A  
HETATM   16  F   UNL     1      -8.282  11.724  68.825  1.00  0.00    -0.145 F  
HETATM   17  C   UNL     1      -9.150  12.131  66.662  1.00  0.00    -0.206 A  
HETATM   18  C   UNL     1     -10.353  10.360  65.534  1.00  0.00    -0.265 A  
HETATM   19  C   UNL     1      -9.844  11.663  65.544  1.00  0.00    -0.264 A  
BRANCH  17  20
HETATM   20  N   UNL     1      -8.671  13.460  66.729  1.00  0.00    -0.417 N  
HETATM   21  H   UNL     1      -7.994  13.791  66.041  1.00  0.00     0.000 HD 
BRANCH  20  22
HETATM   22  C   UNL     1      -9.119  14.316  67.725  1.00  0.00    -0.195 C  
HETATM   23  O   UNL     1      -8.394  14.885  68.538  1.00  0.00    -0.146 OA 
BRANCH  22  24
HETATM   24  N   UNL     1     -10.496  14.438  67.689  1.00  0.00    -0.245 N  
HETATM   25  H   UNL     1     -10.946  14.723  66.820  1.00  0.00     0.000 HD 
BRANCH  24  26
HETATM   26  C   UNL     1     -11.292  14.178  68.821  1.00  0.00    -0.278 A  
HETATM   27  C   UNL     1     -11.787  15.256  69.547  1.00  0.00    -0.368 A  
HETATM   28  C   UNL     1     -12.575  15.028  70.674  1.00  0.00    -0.429 A  
HETATM   29  C   UNL     1     -12.817  13.725  71.129  1.00  0.00    -0.335 A  
HETATM   30 CL   UNL     1     -13.785  13.587  72.550  1.00  0.00    -0.689 Cl 
HETATM   31  C   UNL     1     -12.284  12.627  70.444  1.00  0.00    -0.368 A  
HETATM   32  C   UNL     1     -11.547  12.873  69.260  1.00  0.00    -0.368 A  
HETATM   33  C   UNL     1     -12.408  11.197  70.908  1.00  0.00    -0.399 C  
HETATM   34  F   UNL     1     -13.054  10.412  70.002  1.00  0.00    -0.301 F  
HETATM   35  F   UNL     1     -11.180  10.620  71.078  1.00  0.00    -0.364 F  
HETATM   36  F   UNL     1     -13.053  10.997  72.088  1.00  0.00    -0.564 F  
ENDBRANCH  24  26
ENDBRANCH  22  24
ENDBRANCH  20  22
ENDBRANCH  17  20
ENDBRANCH  12  13
ENDBRANCH   8  12
ENDBRANCH   3   6
TORSDOF 7
ENDMDL
MODEL      112
REMARK 921   NORMALIZED FREE ENERGY PREDICTED BY IDOCK:   -5.79 KCAL/MOL
REMARK 922        TOTAL FREE ENERGY PREDICTED BY IDOCK:  -10.15 KCAL/MOL
REMARK 923 INTER-LIGAND FREE ENERGY PREDICTED BY IDOCK:   -8.73 KCAL/MOL
REMARK 924 INTRA-LIGAND FREE ENERGY PREDICTED BY IDOCK:   -1.42 KCAL/MOL
REMARK 927      BINDING AFFINITY PREDICTED BY RF-SCORE:    0.00 PKD
ROOT
HETATM    1  C   UNL     1     -12.777  13.959  65.748  1.00  0.00    -0.461 C  
HETATM    2  N   UNL     1     -11.708  13.083  65.353  1.00  0.00    -0.345 N  
HETATM    3  C   UNL     1     -11.623  12.600  64.065  1.00  0.00    -0.418 C  
HETATM    4  H   UNL     1     -11.001  12.815  66.037  1.00  0.00     0.000 HD 
HETATM    5  O   UNL     1     -12.400  12.913  63.169  1.00  0.00    -0.614 OA 
ENDROOT
BRANCH   3   6
HETATM    6  C   UNL     1     -10.501  11.639  63.819  1.00  0.00    -0.402 A  
HETATM    7  C   UNL     1     -10.309  10.597  64.716  1.00  0.00    -0.353 A  
HETATM    8  C   UNL     1      -9.290   9.690  64.452  1.00  0.00    -0.148 A  
HETATM    9  C   UNL     1      -8.465   9.888  63.348  1.00  0.00    -0.182 A  
HETATM   10  N   UNL     1      -9.727  11.849  62.718  1.00  0.00    -0.150 NA 
HETATM   11  C   UNL     1      -8.724  10.968  62.518  1.00  0.00    -0.287 A  
BRANCH   8  12
HETATM   12  O   UNL     1      -8.986   8.628  65.271  1.00  0.00    -0.181 OA 
BRANCH  12  13
HETATM   13  C   UNL     1      -8.720   8.853  66.605  1.00  0.00    -0.127 A  
HETATM   14  C   UNL     1      -7.381   9.062  66.942  1.00  0.00    -0.086 A  
HETATM   15  C   UNL     1      -7.028   9.241  68.276  1.00  0.00    -0.072 A  
HETATM   16  F   UNL     1      -5.738   9.427  68.595  1.00  0.00    -0.040 F  
HETATM   17  C   UNL     1      -7.984   9.158  69.291  1.00  0.00    -0.097 A  
HETATM   18  C   UNL     1      -9.689   8.792  67.613  1.00  0.00    -0.210 A  
HETATM   19  C   UNL     1      -9.323   8.951  68.955  1.00  0.00    -0.140 A  
BRANCH  17  20
HETATM   20  N   UNL     1      -7.571   9.267  70.638  1.00  0.00    -0.136 N  
HETATM   21  H   UNL     1      -7.228  10.159  70.994  1.00  0.00     0.000 HD 
BRANCH  20  22
HETATM   22  C   UNL     1      -7.629   8.164  71.480  1.00  0.00    -0.083 C  
HETATM   23  O   UNL     1      -6.938   7.155  71.362  1.00  0.00    -0.062 OA 
BRANCH  22  24
HETATM   24  N   UNL     1      -8.579   8.347  72.467  1.00  0.00    -0.197 N  
HETATM   25  H   UNL     1      -8.279   8.640  73.397  1.00  0.00     0.000 HD 
BRANCH  24  26
HETATM   26  C   UNL     1      -9.950   8.139  72.223  1.00  0.00    -0.263 A  
HETATM   27  C   UNL     1     -10.439   6.836  72.248  1.00  0.00    -0.233 A  
HETATM   28  C   UNL     1     -11.792   6.601  72.006  1.00  0.00    -0.365 A  
HETATM   29  C   UNL     1     -12.654   7.652  71.667  1.00  0.00    -0.339 A  
HETATM   30 CL   UNL     1     -14.296   7.216  71.367  1.00  0.00    -0.500 Cl 
HETATM   31  C   UNL     1     -12.171   8.963  71.583  1.00  0.00    -0.409 A  
HETATM   32  C   UNL     1     -10.812   9.195  71.904  1.00  0.00    -0.353 A  
HETATM   33  C   UNL     1     -12.997  10.143  71.133  1.00  0.00    -0.395 C  
HETATM   34  F   UNL     1     -13.089  11.106  72.092  1.00  0.00    -0.574 F  
HETATM   35  F   UNL     1     -12.434  10.760  70.051  1.00  0.00    -0.350 F  
HETATM   36  F   UNL     1     -14.276   9.878  70.759  1.00  0.00    -0.156 F  
ENDBRANCH  24  26
ENDBRANCH  22  24
ENDBRANCH  20  22
ENDBRANCH  17  20
ENDBRANCH  12  13
ENDBRANCH   8  12
ENDBRANCH   3   6
TORSDOF 7
ENDMDL
MODEL      113
REMARK 921   NORMALIZED FREE ENERGY PREDICTED BY IDOCK:   -5.76 KCAL/MOL
REMARK 922        TOTAL FREE ENERGY PREDICTED BY IDOCK:  -10.10 KCAL/MOL
REMARK 923 INTER-LIGAND FREE ENERGY PREDICTED BY IDOCK:   -9.07 KCAL/MOL
REMARK 924 INTRA-LIGAND FREE ENERGY PREDICTED BY IDOCK:   -1.03 KCAL/MOL
REMARK 927      BINDING AFFINITY PREDICTED BY RF-SCORE:    0.00 PKD
ROOT
HETATM    1  C   UNL     1     -13.244  10.186  71.607  1.00  0.00    -0.418 C  
HETATM    2  N   UNL     1     -12.680  11.469  71.291  1.00  0.00    -0.398 N  
HETATM    3  C   UNL     1     -13.191  12.627  71.837  1.00  0.00    -0.403 C  
HETATM    4  H   UNL     1     -11.888  11.525  70.651  1.00  0.00     0.000 HD 
HETATM    5  O   UNL     1     -14.107  12.646  72.653  1.00  0.00    -0.356 OA 
ENDROOT
BRANCH   3   6
HETATM    6  C   UNL     1     -12.551  13.893  71.359  1.00  0.00    -0.361 A  
HETATM    7  C   UNL     1     -12.419  14.097  69.993  1.00  0.00    -0.352 A  
HETATM    8  C   UNL     1     -11.861  15.294  69.564  1.00  0.00    -0.345 A  
HETATM    9  C   UNL     1     -11.400  16.211  70.504  1.00  0.00    -0.392 A  
HETATM   10  N   UNL     1     -12.132  14.778  72.306  1.00  0.00    -0.309 NA 
HETATM   11  C   UNL     1     -11.560  15.913  71.848  1.00  0.00    -0.449 A  
BRANCH   8  12
HETATM   12  O   UNL     1     -11.657  15.608  68.240  1.00  0.00    -0.362 OA 
BRANCH  12  13
HETATM   13  C   UNL     1     -11.075  14.679  67.403  1.00  0.00    -0.326 A  
HETATM   14  C   UNL     1     -11.931  14.031  66.510  1.00  0.00    -0.470 A  
HETATM   15  C   UNL     1     -11.427  13.043  65.670  1.00  0.00    -0.333 A  
HETATM   16  F   UNL     1     -12.257  12.413  64.824  1.00  0.00    -0.427 F  
HETATM   17  C   UNL     1     -10.090  12.646  65.747  1.00  0.00    -0.271 A  
HETATM   18  C   UNL     1      -9.728  14.306  67.470  1.00  0.00    -0.223 A  
HETATM   19  C   UNL     1      -9.233  13.296  66.638  1.00  0.00    -0.222 A  
BRANCH  17  20
HETATM   20  N   UNL     1      -9.638  11.583  64.932  1.00  0.00    -0.330 N  
HETATM   21  H   UNL     1      -9.740  11.641  63.918  1.00  0.00     0.000 HD 
BRANCH  20  22
HETATM   22  C   UNL     1      -9.055  10.461  65.505  1.00  0.00    -0.177 C  
HETATM   23  O   UNL     1      -7.964  10.449  66.070  1.00  0.00    -0.132 OA 
BRANCH  22  24
HETATM   24  N   UNL     1      -9.862   9.350  65.345  1.00  0.00    -0.445 N  
HETATM   25  H   UNL     1     -10.483   9.300  64.538  1.00  0.00     0.000 HD 
BRANCH  24  26
HETATM   26  C   UNL     1      -9.850   8.288  66.269  1.00  0.00    -0.157 A  
HETATM   27  C   UNL     1     -10.739   8.327  67.338  1.00  0.00    -0.236 A  
HETATM   28  C   UNL     1     -10.746   7.290  68.270  1.00  0.00    -0.174 A  
HETATM   29  C   UNL     1      -9.820   6.242  68.185  1.00  0.00    -0.129 A  
HETATM   30 CL   UNL     1      -9.924   5.039  69.418  1.00  0.00    -0.277 Cl 
HETATM   31  C   UNL     1      -8.882   6.211  67.147  1.00  0.00    -0.108 A  
HETATM   32  C   UNL     1      -8.936   7.232  66.168  1.00  0.00    -0.179 A  
HETATM   33  C   UNL     1      -7.787   5.180  67.025  1.00  0.00    -0.096 C  
HETATM   34  F   UNL     1      -7.876   4.464  65.870  1.00  0.00    -0.090 F  
HETATM   35  F   UNL     1      -6.552   5.766  66.996  1.00  0.00    -0.047 F  
HETATM   36  F   UNL     1      -7.712   4.257  68.020  1.00  0.00    -0.073 F  
ENDBRANCH  24  26
ENDBRANCH  22  24
ENDBRANCH  20  22
ENDBRANCH  17  20
ENDBRANCH  12  13
ENDBRANCH   8  12
ENDBRANCH   3   6
TORSDOF 7
ENDMDL
MODEL      114
REMARK 921   NORMALIZED FREE ENERGY PREDICTED BY IDOCK:   -5.75 KCAL/MOL
REMARK 922        TOTAL FREE ENERGY PREDICTED BY IDOCK:  -10.09 KCAL/MOL
REMARK 923 INTER-LIGAND FREE ENERGY PREDICTED BY IDOCK:   -9.09 KCAL/MOL
REMARK 924 INTRA-LIGAND FREE ENERGY PREDICTED BY IDOCK:   -1.00 KCAL/MOL
REMARK 927      BINDING AFFINITY PREDICTED BY RF-SCORE:    0.00 PKD
ROOT
HETATM    1  C   UNL     1      -5.353   8.429  71.642  1.00  0.00    -0.035 C  
HETATM    2  N   UNL     1      -6.776   8.611  71.561  1.00  0.00    -0.073 N  
HETATM    3  C   UNL     1      -7.642   7.763  72.218  1.00  0.00    -0.084 C  
HETATM    4  H   UNL     1      -7.152   9.381  71.008  1.00  0.00     0.000 HD 
HETATM    5  O   UNL     1      -7.274   6.847  72.944  1.00  0.00    -0.075 OA 
ENDROOT
BRANCH   3   6
HETATM    6  C   UNL     1      -9.096   8.030  71.981  1.00  0.00    -0.160 A  
HETATM    7  C   UNL     1      -9.507   8.390  70.705  1.00  0.00    -0.191 A  
HETATM    8  C   UNL     1     -10.864   8.594  70.491  1.00  0.00    -0.228 A  
HETATM    9  C   UNL     1     -11.749   8.496  71.560  1.00  0.00    -0.354 A  
HETATM   10  N   UNL     1      -9.937   7.904  73.045  1.00  0.00    -0.284 NA 
HETATM   11  C   UNL     1     -11.244   8.148  72.804  1.00  0.00    -0.337 A  
BRANCH   8  12
HETATM   12  O   UNL     1     -11.396   8.972  69.280  1.00  0.00     0.082 OA 
BRANCH  12  13
HETATM   13  C   UNL     1     -11.140  10.235  68.790  1.00  0.00    -0.228 A  
HETATM   14  C   UNL     1     -11.835  11.285  69.395  1.00  0.00    -0.424 A  
HETATM   15  C   UNL     1     -11.670  12.582  68.919  1.00  0.00    -0.322 A  
HETATM   16  F   UNL     1     -12.352  13.584  69.494  1.00  0.00    -0.344 F  
HETATM   17  C   UNL     1     -10.867  12.844  67.807  1.00  0.00    -0.229 A  
HETATM   18  C   UNL     1     -10.312  10.491  67.690  1.00  0.00    -0.257 A  
HETATM   19  C   UNL     1     -10.170  11.795  67.203  1.00  0.00    -0.236 A  
BRANCH  17  20
HETATM   20  N   UNL     1     -10.790  14.164  67.307  1.00  0.00    -0.282 N  
HETATM   21  H   UNL     1     -10.612  14.940  67.946  1.00  0.00     0.000 HD 
BRANCH  20  22
HETATM   22  C   UNL     1     -10.956  14.410  65.951  1.00  0.00    -0.312 C  
HETATM   23  O   UNL     1     -11.949  14.097  65.299  1.00  0.00    -0.351 OA 
BRANCH  22  24
HETATM   24  N   UNL     1      -9.848  15.047  65.426  1.00  0.00    -0.389 N  
HETATM   25  H   UNL     1      -9.416  14.676  64.580  1.00  0.00     0.000 HD 
BRANCH  24  26
HETATM   26  C   UNL     1      -9.299  16.195  66.029  1.00  0.00    -0.333 A  
HETATM   27  C   UNL     1      -8.107  16.068  66.735  1.00  0.00    -0.302 A  
HETATM   28  C   UNL     1      -7.543  17.188  67.346  1.00  0.00    -0.188 A  
HETATM   29  C   UNL     1      -8.197  18.427  67.319  1.00  0.00    -0.245 A  
HETATM   30 CL   UNL     1      -7.401  19.721  68.136  1.00  0.00    -0.332 Cl 
HETATM   31  C   UNL     1      -9.424  18.564  66.659  1.00  0.00    -0.313 A  
HETATM   32  C   UNL     1      -9.947  17.435  65.982  1.00  0.00    -0.230 A  
HETATM   33  C   UNL     1     -10.248  19.827  66.656  1.00  0.00    -0.478 C  
HETATM   34  F   UNL     1     -10.445  20.314  65.399  1.00  0.00    -0.520 F  
HETATM   35  F   UNL     1     -11.499  19.607  67.161  1.00  0.00    -0.447 F  
HETATM   36  F   UNL     1      -9.759  20.870  67.378  1.00  0.00    -0.589 F  
ENDBRANCH  24  26
ENDBRANCH  22  24
ENDBRANCH  20  22
ENDBRANCH  17  20
ENDBRANCH  12  13
ENDBRANCH   8  12
ENDBRANCH   3   6
TORSDOF 7
ENDMDL
MODEL      115
REMARK 921   NORMALIZED FREE ENERGY PREDICTED BY IDOCK:   -5.74 KCAL/MOL
REMARK 922        TOTAL FREE ENERGY PREDICTED BY IDOCK:  -10.08 KCAL/MOL
REMARK 923 INTER-LIGAND FREE ENERGY PREDICTED BY IDOCK:   -9.47 KCAL/MOL
REMARK 924 INTRA-LIGAND FREE ENERGY PREDICTED BY IDOCK:   -0.61 KCAL/MOL
REMARK 927      BINDING AFFINITY PREDICTED BY RF-SCORE:    0.00 PKD
ROOT
HETATM    1  C   UNL     1      -9.984   5.456  74.465  1.00  0.00    -0.247 C  
HETATM    2  N   UNL     1      -9.879   6.547  73.536  1.00  0.00    -0.176 N  
HETATM    3  C   UNL     1      -9.916   6.330  72.175  1.00  0.00    -0.166 C  
HETATM    4  H   UNL     1      -9.775   7.498  73.889  1.00  0.00     0.000 HD 
HETATM    5  O   UNL     1     -10.090   5.227  71.668  1.00  0.00    -0.185 OA 
ENDROOT
BRANCH   3   6
HETATM    6  C   UNL     1      -9.720   7.551  71.330  1.00  0.00    -0.166 A  
HETATM    7  C   UNL     1     -10.689   8.544  71.362  1.00  0.00    -0.317 A  
HETATM    8  C   UNL     1     -10.472   9.688  70.605  1.00  0.00    -0.312 A  
HETATM    9  C   UNL     1      -9.340   9.776  69.802  1.00  0.00    -0.249 A  
HETATM   10  N   UNL     1      -8.589   7.612  70.573  1.00  0.00    -0.136 NA 
HETATM   11  C   UNL     1      -8.435   8.725  69.823  1.00  0.00    -0.129 A  
BRANCH   8  12
HETATM   12  O   UNL     1     -11.364  10.734  70.535  1.00  0.00    -0.307 OA 
BRANCH  12  13
HETATM   13  C   UNL     1     -11.475  11.456  69.366  1.00  0.00    -0.310 A  
HETATM   14  C   UNL     1     -11.720  12.823  69.505  1.00  0.00    -0.383 A  
HETATM   15  C   UNL     1     -11.898  13.608  68.370  1.00  0.00    -0.372 A  
HETATM   16  F   UNL     1     -12.147  14.919  68.510  1.00  0.00    -0.333 F  
HETATM   17  C   UNL     1     -11.895  13.041  67.094  1.00  0.00    -0.373 A  
HETATM   18  C   UNL     1     -11.446  10.881  68.090  1.00  0.00    -0.368 A  
HETATM   19  C   UNL     1     -11.648  11.673  66.954  1.00  0.00    -0.246 A  
BRANCH  17  20
HETATM   20  N   UNL     1     -12.160  13.860  65.973  1.00  0.00    -0.411 N  
HETATM   21  H   UNL     1     -12.916  14.543  66.011  1.00  0.00     0.000 HD 
BRANCH  20  22
HETATM   22  C   UNL     1     -11.394  13.740  64.821  1.00  0.00    -0.360 C  
HETATM   23  O   UNL     1     -11.401  12.764  64.074  1.00  0.00    -0.360 OA 
BRANCH  22  24
HETATM   24  N   UNL     1     -10.611  14.863  64.630  1.00  0.00    -0.585 N  
HETATM   25  H   UNL     1     -10.580  15.294  63.706  1.00  0.00     0.000 HD 
BRANCH  24  26
HETATM   26  C   UNL     1      -9.856  15.426  65.677  1.00  0.00    -0.352 A  
HETATM   27  C   UNL     1      -8.918  14.628  66.323  1.00  0.00    -0.112 A  
HETATM   28  C   UNL     1      -8.159  15.159  67.365  1.00  0.00    -0.209 A  
HETATM   29  C   UNL     1      -8.378  16.466  67.819  1.00  0.00    -0.165 A  
HETATM   30 CL   UNL     1      -7.388  16.987  69.132  1.00  0.00    -0.225 Cl 
HETATM   31  C   UNL     1      -9.354  17.269  67.218  1.00  0.00    -0.237 A  
HETATM   32  C   UNL     1     -10.065  16.740  66.113  1.00  0.00    -0.360 A  
HETATM   33  C   UNL     1      -9.729  18.650  67.696  1.00  0.00    -0.303 C  
HETATM   34  F   UNL     1      -9.525  19.601  66.743  1.00  0.00    -0.343 F  
HETATM   35  F   UNL     1     -11.058  18.725  68.007  1.00  0.00    -0.300 F  
HETATM   36  F   UNL     1      -9.084  19.101  68.805  1.00  0.00    -0.370 F  
ENDBRANCH  24  26
ENDBRANCH  22  24
ENDBRANCH  20  22
ENDBRANCH  17  20
ENDBRANCH  12  13
ENDBRANCH   8  12
ENDBRANCH   3   6
TORSDOF 7
ENDMDL
MODEL      116
REMARK 921   NORMALIZED FREE ENERGY PREDICTED BY IDOCK:   -5.73 KCAL/MOL
REMARK 922        TOTAL FREE ENERGY PREDICTED BY IDOCK:  -10.06 KCAL/MOL
REMARK 923 INTER-LIGAND FREE ENERGY PREDICTED BY IDOCK:   -9.13 KCAL/MOL
REMARK 924 INTRA-LIGAND FREE ENERGY PREDICTED BY IDOCK:   -0.94 KCAL/MOL
REMARK 927      BINDING AFFINITY PREDICTED BY RF-SCORE:    0.00 PKD
ROOT
HETATM    1  C   UNL     1      -6.047   8.555  73.999  1.00  0.00    -0.126 C  
HETATM    2  N   UNL     1      -7.393   8.124  73.740  1.00  0.00    -0.147 N  
HETATM    3  C   UNL     1      -7.649   6.934  73.093  1.00  0.00    -0.084 C  
HETATM    4  H   UNL     1      -8.174   8.708  74.041  1.00  0.00     0.000 HD 
HETATM    5  O   UNL     1      -6.773   6.150  72.744  1.00  0.00    -0.067 OA 
ENDROOT
BRANCH   3   6
HETATM    6  C   UNL     1      -9.096   6.653  72.826  1.00  0.00    -0.136 A  
HETATM    7  C   UNL     1      -9.744   7.380  71.838  1.00  0.00    -0.179 A  
HETATM    8  C   UNL     1     -11.074   7.079  71.575  1.00  0.00    -0.243 A  
HETATM    9  C   UNL     1     -11.724   6.116  72.341  1.00  0.00    -0.319 A  
HETATM   10  N   UNL     1      -9.693   5.688  73.580  1.00  0.00    -0.150 NA 
HETATM   11  C   UNL     1     -10.998   5.452  73.319  1.00  0.00    -0.307 A  
BRANCH   8  12
HETATM   12  O   UNL     1     -11.833   7.740  70.637  1.00  0.00    -0.239 OA 
BRANCH  12  13
HETATM   13  C   UNL     1     -11.797   9.117  70.581  1.00  0.00    -0.175 A  
HETATM   14  C   UNL     1     -12.696   9.792  71.410  1.00  0.00    -0.483 A  
HETATM   15  C   UNL     1     -12.757  11.181  71.369  1.00  0.00    -0.418 A  
HETATM   16  F   UNL     1     -13.633  11.824  72.157  1.00  0.00    -0.527 F  
HETATM   17  C   UNL     1     -11.976  11.910  70.470  1.00  0.00    -0.267 A  
HETATM   18  C   UNL     1     -10.992   9.840  69.694  1.00  0.00    -0.269 A  
HETATM   19  C   UNL     1     -11.075  11.236  69.643  1.00  0.00    -0.273 A  
BRANCH  17  20
HETATM   20  N   UNL     1     -12.126  13.314  70.406  1.00  0.00    -0.443 N  
HETATM   21  H   UNL     1     -12.676  13.799  71.115  1.00  0.00     0.000 HD 
BRANCH  20  22
HETATM   22  C   UNL     1     -11.528  14.036  69.381  1.00  0.00    -0.290 C  
HETATM   23  O   UNL     1     -10.447  14.614  69.469  1.00  0.00    -0.200 OA 
BRANCH  22  24
HETATM   24  N   UNL     1     -12.318  14.029  68.247  1.00  0.00    -0.508 N  
HETATM   25  H   UNL     1     -13.269  14.393  68.302  1.00  0.00     0.000 HD 
BRANCH  24  26
HETATM   26  C   UNL     1     -11.844  13.532  67.018  1.00  0.00    -0.402 A  
HETATM   27  C   UNL     1     -12.425  13.998  65.844  1.00  0.00    -0.513 A  
HETATM   28  C   UNL     1     -11.977  13.520  64.613  1.00  0.00    -0.438 A  
HETATM   29  C   UNL     1     -10.997  12.522  64.544  1.00  0.00    -0.323 A  
HETATM   30 CL   UNL     1     -10.555  12.003  62.959  1.00  0.00    -0.245 Cl 
HETATM   31  C   UNL     1     -10.437  12.000  65.715  1.00  0.00    -0.290 A  
HETATM   32  C   UNL     1     -10.849  12.548  66.954  1.00  0.00    -0.280 A  
HETATM   33  C   UNL     1      -9.448  10.860  65.747  1.00  0.00    -0.211 C  
HETATM   34  F   UNL     1      -8.261  11.220  66.311  1.00  0.00    -0.162 F  
HETATM   35  F   UNL     1      -9.911   9.821  66.506  1.00  0.00    -0.235 F  
HETATM   36  F   UNL     1      -9.129  10.303  64.550  1.00  0.00    -0.179 F  
ENDBRANCH  24  26
ENDBRANCH  22  24
ENDBRANCH  20  22
ENDBRANCH  17  20
ENDBRANCH  12  13
ENDBRANCH   8  12
ENDBRANCH   3   6
TORSDOF 7
ENDMDL
MODEL      117
REMARK 921   NORMALIZED FREE ENERGY PREDICTED BY IDOCK:   -5.73 KCAL/MOL
REMARK 922        TOTAL FREE ENERGY PREDICTED BY IDOCK:  -10.06 KCAL/MOL
REMARK 923 INTER-LIGAND FREE ENERGY PREDICTED BY IDOCK:   -9.40 KCAL/MOL
REMARK 924 INTRA-LIGAND FREE ENERGY PREDICTED BY IDOCK:   -0.66 KCAL/MOL
REMARK 927      BINDING AFFINITY PREDICTED BY RF-SCORE:    0.00 PKD
ROOT
HETATM    1  C   UNL     1      -9.732   1.732  71.439  1.00  0.00    -0.142 C  
HETATM    2  N   UNL     1     -10.160   3.036  71.867  1.00  0.00    -0.133 N  
HETATM    3  C   UNL     1      -9.554   4.178  71.389  1.00  0.00    -0.168 C  
HETATM    4  H   UNL     1     -10.926   3.118  72.535  1.00  0.00     0.000 HD 
HETATM    5  O   UNL     1      -8.663   4.171  70.545  1.00  0.00    -0.075 OA 
ENDROOT
BRANCH   3   6
HETATM    6  C   UNL     1     -10.055   5.459  71.979  1.00  0.00    -0.190 A  
HETATM    7  C   UNL     1     -11.066   6.144  71.321  1.00  0.00    -0.351 A  
HETATM    8  C   UNL     1     -11.549   7.310  71.903  1.00  0.00    -0.277 A  
HETATM    9  C   UNL     1     -10.969   7.781  73.076  1.00  0.00    -0.442 A  
HETATM   10  N   UNL     1      -9.480   5.879  73.140  1.00  0.00    -0.143 NA 
HETATM   11  C   UNL     1      -9.951   7.037  73.653  1.00  0.00    -0.310 A  
BRANCH   8  12
HETATM   12  O   UNL     1     -12.533   8.090  71.341  1.00  0.00    -0.311 OA 
BRANCH  12  13
HETATM   13  C   UNL     1     -12.294   9.429  71.116  1.00  0.00    -0.308 A  
HETATM   14  C   UNL     1     -13.077  10.326  71.845  1.00  0.00    -0.568 A  
HETATM   15  C   UNL     1     -12.932  11.694  71.633  1.00  0.00    -0.378 A  
HETATM   16  F   UNL     1     -13.697  12.551  72.326  1.00  0.00    -0.579 F  
HETATM   17  C   UNL     1     -12.057  12.183  70.660  1.00  0.00    -0.250 A  
HETATM   18  C   UNL     1     -11.396   9.910  70.156  1.00  0.00    -0.335 A  
HETATM   19  C   UNL     1     -11.272  11.285  69.933  1.00  0.00    -0.264 A  
BRANCH  17  20
HETATM   20  N   UNL     1     -11.998  13.575  70.422  1.00  0.00    -0.471 N  
HETATM   21  H   UNL     1     -12.487  14.218  71.045  1.00  0.00     0.000 HD 
BRANCH  20  22
HETATM   22  C   UNL     1     -11.279  14.070  69.342  1.00  0.00    -0.237 C  
HETATM   23  O   UNL     1     -11.597  13.930  68.164  1.00  0.00    -0.295 OA 
BRANCH  22  24
HETATM   24  N   UNL     1     -10.146  14.737  69.770  1.00  0.00    -0.443 N  
HETATM   25  H   UNL     1      -9.606  14.352  70.545  1.00  0.00     0.000 HD 
BRANCH  24  26
HETATM   26  C   UNL     1      -9.719  15.934  69.164  1.00  0.00    -0.249 A  
HETATM   27  C   UNL     1     -10.654  16.941  68.950  1.00  0.00    -0.353 A  
HETATM   28  C   UNL     1     -10.259  18.136  68.349  1.00  0.00    -0.401 A  
HETATM   29  C   UNL     1      -8.946  18.309  67.891  1.00  0.00    -0.276 A  
HETATM   30 CL   UNL     1      -8.600  19.825  67.143  1.00  0.00    -0.355 Cl 
HETATM   31  C   UNL     1      -8.002  17.288  68.048  1.00  0.00    -0.215 A  
HETATM   32  C   UNL     1      -8.400  16.110  68.727  1.00  0.00    -0.231 A  
HETATM   33  C   UNL     1      -6.596  17.343  67.505  1.00  0.00    -0.144 C  
HETATM   34  F   UNL     1      -5.657  17.248  68.488  1.00  0.00    -0.135 F  
HETATM   35  F   UNL     1      -6.347  16.297  66.661  1.00  0.00    -0.195 F  
HETATM   36  F   UNL     1      -6.266  18.453  66.793  1.00  0.00    -0.173 F  
ENDBRANCH  24  26
ENDBRANCH  22  24
ENDBRANCH  20  22
ENDBRANCH  17  20
ENDBRANCH  12  13
ENDBRANCH   8  12
ENDBRANCH   3   6
TORSDOF 7
ENDMDL
MODEL      118
REMARK 921   NORMALIZED FREE ENERGY PREDICTED BY IDOCK:   -5.71 KCAL/MOL
REMARK 922        TOTAL FREE ENERGY PREDICTED BY IDOCK:  -10.04 KCAL/MOL
REMARK 923 INTER-LIGAND FREE ENERGY PREDICTED BY IDOCK:   -9.32 KCAL/MOL
REMARK 924 INTRA-LIGAND FREE ENERGY PREDICTED BY IDOCK:   -0.71 KCAL/MOL
REMARK 927      BINDING AFFINITY PREDICTED BY RF-SCORE:    0.00 PKD
ROOT
HETATM    1  C   UNL     1      -8.599   4.917  68.015  1.00  0.00    -0.102 C  
HETATM    2  N   UNL     1      -9.152   5.748  69.048  1.00  0.00    -0.116 N  
HETATM    3  C   UNL     1      -9.779   5.198  70.146  1.00  0.00    -0.204 C  
HETATM    4  H   UNL     1      -9.080   6.762  68.969  1.00  0.00     0.000 HD 
HETATM    5  O   UNL     1      -9.863   3.991  70.346  1.00  0.00    -0.198 OA 
ENDROOT
BRANCH   3   6
HETATM    6  C   UNL     1     -10.371   6.187  71.102  1.00  0.00    -0.208 A  
HETATM    7  C   UNL     1     -11.361   7.045  70.643  1.00  0.00    -0.349 A  
HETATM    8  C   UNL     1     -11.929   7.928  71.552  1.00  0.00    -0.301 A  
HETATM    9  C   UNL     1     -11.453   7.968  72.859  1.00  0.00    -0.329 A  
HETATM   10  N   UNL     1      -9.897   6.184  72.379  1.00  0.00    -0.165 NA 
HETATM   11  C   UNL     1     -10.449   7.083  73.222  1.00  0.00    -0.330 A  
BRANCH   8  12
HETATM   12  O   UNL     1     -12.903   8.841  71.219  1.00  0.00    -0.302 OA 
BRANCH  12  13
HETATM   13  C   UNL     1     -12.537  10.104  70.803  1.00  0.00    -0.317 A  
HETATM   14  C   UNL     1     -11.595  10.166  69.773  1.00  0.00    -0.245 A  
HETATM   15  C   UNL     1     -11.136  11.405  69.337  1.00  0.00    -0.241 A  
HETATM   16  F   UNL     1     -10.221  11.459  68.357  1.00  0.00    -0.171 F  
HETATM   17  C   UNL     1     -11.557  12.586  69.951  1.00  0.00    -0.169 A  
HETATM   18  C   UNL     1     -12.984  11.284  71.409  1.00  0.00    -0.482 A  
HETATM   19  C   UNL     1     -12.501  12.525  70.980  1.00  0.00    -0.353 A  
BRANCH  17  20
HETATM   20  N   UNL     1     -11.006  13.818  69.531  1.00  0.00    -0.441 N  
HETATM   21  H   UNL     1     -10.117  14.135  69.918  1.00  0.00     0.000 HD 
BRANCH  20  22
HETATM   22  C   UNL     1     -11.669  14.598  68.592  1.00  0.00    -0.329 C  
HETATM   23  O   UNL     1     -12.394  14.159  67.703  1.00  0.00    -0.273 OA 
BRANCH  22  24
HETATM   24  N   UNL     1     -11.395  15.939  68.784  1.00  0.00    -0.357 N  
HETATM   25  H   UNL     1     -11.899  16.450  69.509  1.00  0.00     0.000 HD 
BRANCH  24  26
HETATM   26  C   UNL     1     -10.439  16.618  68.005  1.00  0.00    -0.320 A  
HETATM   27  C   UNL     1      -9.175  16.054  67.863  1.00  0.00    -0.196 A  
HETATM   28  C   UNL     1      -8.208  16.707  67.100  1.00  0.00    -0.206 A  
HETATM   29  C   UNL     1      -8.469  17.961  66.530  1.00  0.00    -0.258 A  
HETATM   30 CL   UNL     1      -7.176  18.667  65.633  1.00  0.00    -0.221 Cl 
HETATM   31  C   UNL     1      -9.716  18.570  66.704  1.00  0.00    -0.353 A  
HETATM   32  C   UNL     1     -10.712  17.861  67.420  1.00  0.00    -0.306 A  
HETATM   33  C   UNL     1     -10.059  19.955  66.213  1.00  0.00    -0.502 C  
HETATM   34  F   UNL     1     -11.097  19.949  65.331  1.00  0.00    -0.529 F  
HETATM   35  F   UNL     1     -10.459  20.763  67.241  1.00  0.00    -0.381 F  
HETATM   36  F   UNL     1      -9.061  20.642  65.597  1.00  0.00    -0.067 F  
ENDBRANCH  24  26
ENDBRANCH  22  24
ENDBRANCH  20  22
ENDBRANCH  17  20
ENDBRANCH  12  13
ENDBRANCH   8  12
ENDBRANCH   3   6
TORSDOF 7
ENDMDL
MODEL      119
REMARK 921   NORMALIZED FREE ENERGY PREDICTED BY IDOCK:   -5.71 KCAL/MOL
REMARK 922        TOTAL FREE ENERGY PREDICTED BY IDOCK:  -10.03 KCAL/MOL
REMARK 923 INTER-LIGAND FREE ENERGY PREDICTED BY IDOCK:   -8.63 KCAL/MOL
REMARK 924 INTRA-LIGAND FREE ENERGY PREDICTED BY IDOCK:   -1.40 KCAL/MOL
REMARK 927      BINDING AFFINITY PREDICTED BY RF-SCORE:    0.00 PKD
ROOT
HETATM    1  C   UNL     1      -5.767  14.563  70.450  1.00  0.00    -0.144 C  
HETATM    2  N   UNL     1      -6.909  15.178  69.831  1.00  0.00    -0.177 N  
HETATM    3  C   UNL     1      -6.798  16.379  69.163  1.00  0.00    -0.210 C  
HETATM    4  H   UNL     1      -7.818  14.718  69.885  1.00  0.00     0.000 HD 
HETATM    5  O   UNL     1      -5.736  16.972  69.006  1.00  0.00    -0.145 OA 
ENDROOT
BRANCH   3   6
HETATM    6  C   UNL     1      -8.084  16.935  68.634  1.00  0.00    -0.253 A  
HETATM    7  C   UNL     1      -9.273  16.313  68.990  1.00  0.00    -0.253 A  
HETATM    8  C   UNL     1     -10.459  16.865  68.525  1.00  0.00    -0.361 A  
HETATM    9  C   UNL     1     -10.418  17.969  67.678  1.00  0.00    -0.422 A  
HETATM   10  N   UNL     1      -8.007  18.029  67.827  1.00  0.00    -0.232 NA 
HETATM   11  C   UNL     1      -9.181  18.512  67.365  1.00  0.00    -0.278 A  
BRANCH   8  12
HETATM   12  O   UNL     1     -11.701  16.333  68.788  1.00  0.00    -0.317 OA 
BRANCH  12  13
HETATM   13  C   UNL     1     -11.853  14.965  68.861  1.00  0.00    -0.301 A  
HETATM   14  C   UNL     1     -12.185  14.446  70.114  1.00  0.00    -0.401 A  
HETATM   15  C   UNL     1     -12.303  13.070  70.279  1.00  0.00    -0.241 A  
HETATM   16  F   UNL     1     -12.608  12.576  71.489  1.00  0.00    -0.415 F  
HETATM   17  C   UNL     1     -12.036  12.193  69.225  1.00  0.00    -0.262 A  
HETATM   18  C   UNL     1     -11.607  14.096  67.792  1.00  0.00    -0.379 A  
HETATM   19  C   UNL     1     -11.705  12.711  67.971  1.00  0.00    -0.402 A  
BRANCH  17  20
HETATM   20  N   UNL     1     -12.089  10.800  69.456  1.00  0.00    -0.469 N  
HETATM   21  H   UNL     1     -12.817  10.239  69.013  1.00  0.00     0.000 HD 
BRANCH  20  22
HETATM   22  C   UNL     1     -11.154  10.190  70.282  1.00  0.00    -0.317 C  
HETATM   23  O   UNL     1     -11.421   9.593  71.321  1.00  0.00    -0.339 OA 
BRANCH  22  24
HETATM   24  N   UNL     1      -9.875  10.354  69.783  1.00  0.00    -0.413 N  
HETATM   25  H   UNL     1      -9.211  10.932  70.299  1.00  0.00     0.000 HD 
BRANCH  24  26
HETATM   26  C   UNL     1      -9.465   9.744  68.582  1.00  0.00    -0.151 A  
HETATM   27  C   UNL     1      -8.828  10.526  67.624  1.00  0.00    -0.131 A  
HETATM   28  C   UNL     1      -8.415   9.949  66.424  1.00  0.00    -0.128 A  
HETATM   29  C   UNL     1      -8.696   8.607  66.138  1.00  0.00    -0.156 A  
HETATM   30 CL   UNL     1      -8.151   8.029  64.607  1.00  0.00    -0.150 Cl 
HETATM   31  C   UNL     1      -9.383   7.816  67.066  1.00  0.00    -0.196 A  
HETATM   32  C   UNL     1      -9.731   8.397  68.310  1.00  0.00    -0.170 A  
HETATM   33  C   UNL     1      -9.815   6.393  66.812  1.00  0.00    -0.162 C  
HETATM   34  F   UNL     1      -9.265   5.518  67.700  1.00  0.00    -0.113 F  
HETATM   35  F   UNL     1     -11.168   6.251  66.951  1.00  0.00    -0.402 F  
HETATM   36  F   UNL     1      -9.536   5.887  65.582  1.00  0.00    -0.142 F  
ENDBRANCH  24  26
ENDBRANCH  22  24
ENDBRANCH  20  22
ENDBRANCH  17  20
ENDBRANCH  12  13
ENDBRANCH   8  12
ENDBRANCH   3   6
TORSDOF 7
ENDMDL
MODEL      120
REMARK 921   NORMALIZED FREE ENERGY PREDICTED BY IDOCK:   -5.70 KCAL/MOL
REMARK 922        TOTAL FREE ENERGY PREDICTED BY IDOCK:  -10.02 KCAL/MOL
REMARK 923 INTER-LIGAND FREE ENERGY PREDICTED BY IDOCK:   -8.83 KCAL/MOL
REMARK 924 INTRA-LIGAND FREE ENERGY PREDICTED BY IDOCK:   -1.19 KCAL/MOL
REMARK 927      BINDING AFFINITY PREDICTED BY RF-SCORE:    0.00 PKD
ROOT
HETATM    1  C   UNL     1     -12.829  16.055  73.248  1.00  0.00    -0.543 C  
HETATM    2  N   UNL     1     -12.016  16.037  72.063  1.00  0.00    -0.497 N  
HETATM    3  C   UNL     1     -12.506  15.550  70.870  1.00  0.00    -0.440 C  
HETATM    4  H   UNL     1     -11.060  16.390  72.105  1.00  0.00     0.000 HD 
HETATM    5  O   UNL     1     -13.657  15.155  70.719  1.00  0.00    -0.353 OA 
ENDROOT
BRANCH   3   6
HETATM    6  C   UNL     1     -11.522  15.525  69.741  1.00  0.00    -0.331 A  
HETATM    7  C   UNL     1     -10.602  14.487  69.684  1.00  0.00    -0.075 A  
HETATM    8  C   UNL     1      -9.723  14.455  68.609  1.00  0.00    -0.216 A  
HETATM    9  C   UNL     1      -9.750  15.482  67.670  1.00  0.00    -0.212 A  
HETATM   10  N   UNL     1     -11.591  16.533  68.828  1.00  0.00    -0.166 NA 
HETATM   11  C   UNL     1     -10.695  16.486  67.819  1.00  0.00    -0.329 A  
BRANCH   8  12
HETATM   12  O   UNL     1      -8.752  13.494  68.448  1.00  0.00    -0.173 OA 
BRANCH  12  13
HETATM   13  C   UNL     1      -9.021  12.377  67.685  1.00  0.00    -0.183 A  
HETATM   14  C   UNL     1     -10.097  11.589  68.101  1.00  0.00    -0.201 A  
HETATM   15  C   UNL     1     -10.395  10.417  67.414  1.00  0.00    -0.228 A  
HETATM   16  F   UNL     1     -11.421   9.656  67.827  1.00  0.00    -0.205 F  
HETATM   17  C   UNL     1      -9.602   9.983  66.350  1.00  0.00    -0.196 A  
HETATM   18  C   UNL     1      -8.233  11.964  66.604  1.00  0.00    -0.088 A  
HETATM   19  C   UNL     1      -8.527  10.772  65.932  1.00  0.00    -0.166 A  
BRANCH  17  20
HETATM   20  N   UNL     1      -9.892   8.747  65.730  1.00  0.00    -0.458 N  
HETATM   21  H   UNL     1     -10.521   8.716  64.928  1.00  0.00     0.000 HD 
BRANCH  20  22
HETATM   22  C   UNL     1      -9.326   7.573  66.210  1.00  0.00    -0.120 C  
HETATM   23  O   UNL     1      -8.120   7.345  66.255  1.00  0.00    -0.108 OA 
BRANCH  22  24
HETATM   24  N   UNL     1     -10.303   6.686  66.620  1.00  0.00    -0.421 N  
HETATM   25  H   UNL     1     -11.041   6.423  65.967  1.00  0.00     0.000 HD 
BRANCH  24  26
HETATM   26  C   UNL     1     -10.307   6.137  67.917  1.00  0.00    -0.203 A  
HETATM   27  C   UNL     1      -9.662   4.922  68.126  1.00  0.00    -0.202 A  
HETATM   28  C   UNL     1      -9.653   4.355  69.399  1.00  0.00    -0.269 A  
HETATM   29  C   UNL     1     -10.345   4.955  70.459  1.00  0.00    -0.172 A  
HETATM   30 CL   UNL     1     -10.273   4.133  71.973  1.00  0.00    -0.233 Cl 
HETATM   31  C   UNL     1     -11.045   6.151  70.258  1.00  0.00    -0.436 A  
HETATM   32  C   UNL     1     -10.984   6.753  68.977  1.00  0.00    -0.281 A  
HETATM   33  C   UNL     1     -11.896   6.821  71.307  1.00  0.00    -0.348 C  
HETATM   34  F   UNL     1     -11.461   8.077  71.603  1.00  0.00    -0.259 F  
HETATM   35  F   UNL     1     -13.186   6.974  70.879  1.00  0.00    -0.398 F  
HETATM   36  F   UNL     1     -11.999   6.181  72.502  1.00  0.00    -0.321 F  
ENDBRANCH  24  26
ENDBRANCH  22  24
ENDBRANCH  20  22
ENDBRANCH  17  20
ENDBRANCH  12  13
ENDBRANCH   8  12
ENDBRANCH   3   6
TORSDOF 7
ENDMDL
MODEL      121
REMARK 921   NORMALIZED FREE ENERGY PREDICTED BY IDOCK:   -5.69 KCAL/MOL
REMARK 922        TOTAL FREE ENERGY PREDICTED BY IDOCK:  -10.00 KCAL/MOL
REMARK 923 INTER-LIGAND FREE ENERGY PREDICTED BY IDOCK:   -9.21 KCAL/MOL
REMARK 924 INTRA-LIGAND FREE ENERGY PREDICTED BY IDOCK:   -0.80 KCAL/MOL
REMARK 927      BINDING AFFINITY PREDICTED BY RF-SCORE:    0.00 PKD
ROOT
HETATM    1  C   UNL     1     -10.553   1.881  72.974  1.00  0.00    -0.144 C  
HETATM    2  N   UNL     1     -10.656   3.314  72.967  1.00  0.00    -0.161 N  
HETATM    3  C   UNL     1     -10.165   4.060  71.917  1.00  0.00    -0.089 C  
HETATM    4  H   UNL     1     -11.101   3.788  73.753  1.00  0.00     0.000 HD 
HETATM    5  O   UNL     1      -9.664   3.567  70.911  1.00  0.00    -0.170 OA 
ENDROOT
BRANCH   3   6
HETATM    6  C   UNL     1     -10.276   5.544  72.083  1.00  0.00    -0.199 A  
HETATM    7  C   UNL     1     -11.290   6.214  71.412  1.00  0.00    -0.336 A  
HETATM    8  C   UNL     1     -11.405   7.584  71.609  1.00  0.00    -0.252 A  
HETATM    9  C   UNL     1     -10.476   8.243  72.409  1.00  0.00    -0.404 A  
HETATM   10  N   UNL     1      -9.364   6.152  72.890  1.00  0.00    -0.144 NA 
HETATM   11  C   UNL     1      -9.487   7.491  73.025  1.00  0.00    -0.203 A  
BRANCH   8  12
HETATM   12  O   UNL     1     -12.352   8.365  70.988  1.00  0.00    -0.250 OA 
BRANCH  12  13
HETATM   13  C   UNL     1     -12.028   9.647  70.598  1.00  0.00    -0.229 A  
HETATM   14  C   UNL     1     -12.747  10.677  71.208  1.00  0.00    -0.537 A  
HETATM   15  C   UNL     1     -12.513  11.996  70.827  1.00  0.00    -0.279 A  
HETATM   16  F   UNL     1     -13.217  12.981  71.406  1.00  0.00    -0.415 F  
HETATM   17  C   UNL     1     -11.615  12.301  69.803  1.00  0.00    -0.243 A  
HETATM   18  C   UNL     1     -11.107   9.944  69.587  1.00  0.00    -0.279 A  
HETATM   19  C   UNL     1     -10.894  11.270  69.195  1.00  0.00    -0.269 A  
BRANCH  17  20
HETATM   20  N   UNL     1     -11.467  13.645  69.392  1.00  0.00    -0.295 N  
HETATM   21  H   UNL     1     -11.335  14.378  70.090  1.00  0.00     0.000 HD 
BRANCH  20  22
HETATM   22  C   UNL     1     -11.500  13.973  68.043  1.00  0.00    -0.311 C  
HETATM   23  O   UNL     1     -12.517  14.005  67.355  1.00  0.00    -0.217 OA 
BRANCH  22  24
HETATM   24  N   UNL     1     -10.231  14.251  67.572  1.00  0.00    -0.239 N  
HETATM   25  H   UNL     1      -9.731  13.537  67.041  1.00  0.00     0.000 HD 
BRANCH  24  26
HETATM   26  C   UNL     1      -9.609  15.493  67.806  1.00  0.00    -0.209 A  
HETATM   27  C   UNL     1      -8.515  15.536  68.664  1.00  0.00    -0.174 A  
HETATM   28  C   UNL     1      -7.883  16.753  68.916  1.00  0.00    -0.244 A  
HETATM   29  C   UNL     1      -8.378  17.946  68.374  1.00  0.00    -0.304 A  
HETATM   30 CL   UNL     1      -7.516  19.381  68.788  1.00  0.00    -0.384 Cl 
HETATM   31  C   UNL     1      -9.510  17.932  67.551  1.00  0.00    -0.258 A  
HETATM   32  C   UNL     1     -10.097  16.679  67.245  1.00  0.00    -0.279 A  
HETATM   33  C   UNL     1     -10.173  19.170  67.000  1.00  0.00    -0.393 C  
HETATM   34  F   UNL     1     -10.189  19.186  65.638  1.00  0.00    -0.399 F  
HETATM   35  F   UNL     1     -11.485  19.243  67.380  1.00  0.00    -0.420 F  
HETATM   36  F   UNL     1      -9.635  20.361  67.372  1.00  0.00    -0.476 F  
ENDBRANCH  24  26
ENDBRANCH  22  24
ENDBRANCH  20  22
ENDBRANCH  17  20
ENDBRANCH  12  13
ENDBRANCH   8  12
ENDBRANCH   3   6
TORSDOF 7
ENDMDL
MODEL      122
REMARK 921   NORMALIZED FREE ENERGY PREDICTED BY IDOCK:   -5.69 KCAL/MOL
REMARK 922        TOTAL FREE ENERGY PREDICTED BY IDOCK:  -10.00 KCAL/MOL
REMARK 923 INTER-LIGAND FREE ENERGY PREDICTED BY IDOCK:   -8.29 KCAL/MOL
REMARK 924 INTRA-LIGAND FREE ENERGY PREDICTED BY IDOCK:   -1.72 KCAL/MOL
REMARK 927      BINDING AFFINITY PREDICTED BY RF-SCORE:    0.00 PKD
ROOT
HETATM    1  C   UNL     1      -5.865  14.189  70.896  1.00  0.00    -0.213 C  
HETATM    2  N   UNL     1      -6.073  12.797  70.606  1.00  0.00    -0.343 N  
HETATM    3  C   UNL     1      -6.705  12.397  69.448  1.00  0.00    -0.032 C  
HETATM    4  H   UNL     1      -5.747  12.092  71.267  1.00  0.00     0.000 HD 
HETATM    5  O   UNL     1      -7.080  13.174  68.576  1.00  0.00    -0.093 OA 
ENDROOT
BRANCH   3   6
HETATM    6  C   UNL     1      -6.917  10.921  69.316  1.00  0.00    -0.112 A  
HETATM    7  C   UNL     1      -7.280  10.409  68.077  1.00  0.00    -0.084 A  
HETATM    8  C   UNL     1      -7.433   9.033  67.961  1.00  0.00    -0.084 A  
HETATM    9  C   UNL     1      -7.283   8.229  69.087  1.00  0.00    -0.072 A  
HETATM   10  N   UNL     1      -6.741  10.161  70.432  1.00  0.00    -0.182 NA 
HETATM   11  C   UNL     1      -6.937   8.833  70.286  1.00  0.00    -0.043 A  
BRANCH   8  12
HETATM   12  O   UNL     1      -7.809   8.405  66.796  1.00  0.00    -0.093 OA 
BRANCH  12  13
HETATM   13  C   UNL     1      -8.643   9.055  65.912  1.00  0.00    -0.154 A  
HETATM   14  C   UNL     1      -8.131   9.281  64.632  1.00  0.00    -0.136 A  
HETATM   15  C   UNL     1      -8.894   9.978  63.701  1.00  0.00    -0.232 A  
HETATM   16  F   UNL     1      -8.392  10.205  62.478  1.00  0.00    -0.126 F  
HETATM   17  C   UNL     1     -10.140  10.509  64.043  1.00  0.00    -0.251 A  
HETATM   18  C   UNL     1      -9.902   9.561  66.257  1.00  0.00    -0.334 A  
HETATM   19  C   UNL     1     -10.653  10.281  65.322  1.00  0.00     0.036 A  
BRANCH  17  20
HETATM   20  N   UNL     1     -10.847  11.279  63.091  1.00  0.00    -0.817 N  
HETATM   21  H   UNL     1     -10.797  11.035  62.102  1.00  0.00     0.000 HD 
BRANCH  20  22
HETATM   22  C   UNL     1     -11.609  12.366  63.498  1.00  0.00    -0.497 C  
HETATM   23  O   UNL     1     -12.837  12.402  63.493  1.00  0.00    -0.749 OA 
BRANCH  22  24
HETATM   24  N   UNL     1     -10.801  13.412  63.901  1.00  0.00    -0.528 N  
HETATM   25  H   UNL     1     -10.078  13.754  63.267  1.00  0.00     0.000 HD 
BRANCH  24  26
HETATM   26  C   UNL     1     -10.949  14.018  65.163  1.00  0.00    -0.353 A  
HETATM   27  C   UNL     1     -10.861  15.404  65.249  1.00  0.00    -0.423 A  
HETATM   28  C   UNL     1     -11.001  16.030  66.487  1.00  0.00    -0.080 A  
HETATM   29  C   UNL     1     -11.157  15.278  67.659  1.00  0.00    -0.323 A  
HETATM   30 CL   UNL     1     -11.291  16.178  69.124  1.00  0.00    -0.331 Cl 
HETATM   31  C   UNL     1     -11.194  13.880  67.601  1.00  0.00    -0.316 A  
HETATM   32  C   UNL     1     -11.125  13.262  66.329  1.00  0.00    -0.306 A  
HETATM   33  C   UNL     1     -11.262  12.983  68.813  1.00  0.00    -0.282 C  
HETATM   34  F   UNL     1     -12.376  12.199  68.815  1.00  0.00    -0.290 F  
HETATM   35  F   UNL     1     -10.206  12.116  68.850  1.00  0.00    -0.214 F  
HETATM   36  F   UNL     1     -11.249  13.601  70.024  1.00  0.00    -0.231 F  
ENDBRANCH  24  26
ENDBRANCH  22  24
ENDBRANCH  20  22
ENDBRANCH  17  20
ENDBRANCH  12  13
ENDBRANCH   8  12
ENDBRANCH   3   6
TORSDOF 7
ENDMDL
MODEL      123
REMARK 921   NORMALIZED FREE ENERGY PREDICTED BY IDOCK:   -5.68 KCAL/MOL
REMARK 922        TOTAL FREE ENERGY PREDICTED BY IDOCK:   -9.99 KCAL/MOL
REMARK 923 INTER-LIGAND FREE ENERGY PREDICTED BY IDOCK:   -8.32 KCAL/MOL
REMARK 924 INTRA-LIGAND FREE ENERGY PREDICTED BY IDOCK:   -1.67 KCAL/MOL
REMARK 927      BINDING AFFINITY PREDICTED BY RF-SCORE:    0.00 PKD
ROOT
HETATM    1  C   UNL     1      -5.297  14.144  71.018  1.00  0.00    -0.153 C  
HETATM    2  N   UNL     1      -5.992  12.928  70.695  1.00  0.00    -0.348 N  
HETATM    3  C   UNL     1      -5.983  12.421  69.413  1.00  0.00    -0.100 C  
HETATM    4  H   UNL     1      -6.499  12.431  71.427  1.00  0.00     0.000 HD 
HETATM    5  O   UNL     1      -5.357  12.926  68.488  1.00  0.00    -0.057 OA 
ENDROOT
BRANCH   3   6
HETATM    6  C   UNL     1      -6.811  11.190  69.210  1.00  0.00    -0.110 A  
HETATM    7  C   UNL     1      -7.298  10.918  67.939  1.00  0.00    -0.088 A  
HETATM    8  C   UNL     1      -8.029   9.751  67.759  1.00  0.00    -0.101 A  
HETATM    9  C   UNL     1      -8.301   8.936  68.853  1.00  0.00    -0.122 A  
HETATM   10  N   UNL     1      -7.039  10.404  70.299  1.00  0.00    -0.255 NA 
HETATM   11  C   UNL     1      -7.787   9.298  70.089  1.00  0.00    -0.125 A  
BRANCH   8  12
HETATM   12  O   UNL     1      -8.582   9.378  66.555  1.00  0.00    -0.130 OA 
BRANCH  12  13
HETATM   13  C   UNL     1      -9.408  10.256  65.885  1.00  0.00    -0.180 A  
HETATM   14  C   UNL     1      -9.075  10.524  64.556  1.00  0.00    -0.251 A  
HETATM   15  C   UNL     1      -9.830  11.441  63.831  1.00  0.00    -0.300 A  
HETATM   16  F   UNL     1      -9.496  11.705  62.558  1.00  0.00    -0.371 F  
HETATM   17  C   UNL     1     -10.879  12.142  64.428  1.00  0.00    -0.328 A  
HETATM   18  C   UNL     1     -10.474  10.935  66.486  1.00  0.00    -0.308 A  
HETATM   19  C   UNL     1     -11.214  11.872  65.757  1.00  0.00    -0.365 A  
BRANCH  17  20
HETATM   20  N   UNL     1     -11.569  13.122  63.679  1.00  0.00    -0.630 N  
HETATM   21  H   UNL     1     -11.628  13.037  62.664  1.00  0.00     0.000 HD 
BRANCH  20  22
HETATM   22  C   UNL     1     -12.167  14.200  64.318  1.00  0.00    -0.420 C  
HETATM   23  O   UNL     1     -13.213  14.142  64.959  1.00  0.00    -0.691 OA 
BRANCH  22  24
HETATM   24  N   UNL     1     -11.431  15.355  64.129  1.00  0.00    -0.749 N  
HETATM   25  H   UNL     1     -11.455  15.815  63.219  1.00  0.00     0.000 HD 
BRANCH  24  26
HETATM   26  C   UNL     1     -10.651  15.912  65.160  1.00  0.00    -0.397 A  
HETATM   27  C   UNL     1     -10.489  17.294  65.198  1.00  0.00     0.203 A  
HETATM   28  C   UNL     1      -9.718  17.872  66.206  1.00  0.00    -0.278 A  
HETATM   29  C   UNL     1      -9.045  17.076  67.141  1.00  0.00    -0.223 A  
HETATM   30 CL   UNL     1      -8.106  17.920  68.317  1.00  0.00    -0.283 Cl 
HETATM   31  C   UNL     1      -9.151  15.681  67.089  1.00  0.00    -0.227 A  
HETATM   32  C   UNL     1      -9.997  15.113  66.105  1.00  0.00    -0.317 A  
HETATM   33  C   UNL     1      -8.391  14.739  67.989  1.00  0.00    -0.143 C  
HETATM   34  F   UNL     1      -9.218  13.958  68.739  1.00  0.00    -0.189 F  
HETATM   35  F   UNL     1      -7.626  13.867  67.265  1.00  0.00    -0.170 F  
HETATM   36  F   UNL     1      -7.530  15.309  68.873  1.00  0.00    -0.113 F  
ENDBRANCH  24  26
ENDBRANCH  22  24
ENDBRANCH  20  22
ENDBRANCH  17  20
ENDBRANCH  12  13
ENDBRANCH   8  12
ENDBRANCH   3   6
TORSDOF 7
ENDMDL
MODEL      124
REMARK 921   NORMALIZED FREE ENERGY PREDICTED BY IDOCK:   -5.67 KCAL/MOL
REMARK 922        TOTAL FREE ENERGY PREDICTED BY IDOCK:   -9.98 KCAL/MOL
REMARK 923 INTER-LIGAND FREE ENERGY PREDICTED BY IDOCK:   -9.91 KCAL/MOL
REMARK 924 INTRA-LIGAND FREE ENERGY PREDICTED BY IDOCK:   -0.07 KCAL/MOL
REMARK 927      BINDING AFFINITY PREDICTED BY RF-SCORE:    0.00 PKD
ROOT
HETATM    1  C   UNL     1      -7.544  20.070  66.427  1.00  0.00    -0.295 C  
HETATM    2  N   UNL     1      -8.389  18.917  66.580  1.00  0.00    -0.294 N  
HETATM    3  C   UNL     1      -9.247  18.800  67.652  1.00  0.00    -0.285 C  
HETATM    4  H   UNL     1      -8.353  18.173  65.883  1.00  0.00     0.000 HD 
HETATM    5  O   UNL     1      -9.390  19.669  68.505  1.00  0.00    -0.355 OA 
ENDROOT
BRANCH   3   6
HETATM    6  C   UNL     1     -10.009  17.512  67.719  1.00  0.00    -0.312 A  
HETATM    7  C   UNL     1     -10.490  17.087  68.950  1.00  0.00    -0.347 A  
HETATM    8  C   UNL     1     -11.230  15.913  68.989  1.00  0.00    -0.327 A  
HETATM    9  C   UNL     1     -11.410  15.176  67.822  1.00  0.00    -0.335 A  
HETATM   10  N   UNL     1     -10.185  16.829  66.554  1.00  0.00    -0.307 NA 
HETATM   11  C   UNL     1     -10.878  15.672  66.642  1.00  0.00    -0.266 A  
BRANCH   8  12
HETATM   12  O   UNL     1     -11.743  15.375  70.147  1.00  0.00    -0.279 OA 
BRANCH  12  13
HETATM   13  C   UNL     1     -12.041  14.030  70.198  1.00  0.00    -0.351 A  
HETATM   14  C   UNL     1     -12.757  13.599  71.317  1.00  0.00    -0.443 A  
HETATM   15  C   UNL     1     -13.048  12.246  71.466  1.00  0.00    -0.257 A  
HETATM   16  F   UNL     1     -13.724  11.836  72.550  1.00  0.00    -0.435 F  
HETATM   17  C   UNL     1     -12.585  11.304  70.545  1.00  0.00    -0.246 A  
HETATM   18  C   UNL     1     -11.593  13.096  69.256  1.00  0.00    -0.370 A  
HETATM   19  C   UNL     1     -11.871  11.735  69.425  1.00  0.00    -0.398 A  
BRANCH  17  20
HETATM   20  N   UNL     1     -12.835   9.932  70.777  1.00  0.00    -0.530 N  
HETATM   21  H   UNL     1     -13.581   9.459  70.267  1.00  0.00     0.000 HD 
BRANCH  20  22
HETATM   22  C   UNL     1     -12.069   9.226  71.694  1.00  0.00    -0.379 C  
HETATM   23  O   UNL     1     -12.448   8.893  72.814  1.00  0.00    -0.280 OA 
BRANCH  22  24
HETATM   24  N   UNL     1     -10.813   8.955  71.183  1.00  0.00    -0.258 N  
HETATM   25  H   UNL     1      -9.998   9.391  71.613  1.00  0.00     0.000 HD 
BRANCH  24  26
HETATM   26  C   UNL     1     -10.632   8.092  70.086  1.00  0.00    -0.237 A  
HETATM   27  C   UNL     1     -10.846   6.729  70.269  1.00  0.00    -0.314 A  
HETATM   28  C   UNL     1     -10.670   5.852  69.200  1.00  0.00    -0.394 A  
HETATM   29  C   UNL     1     -10.211   6.314  67.960  1.00  0.00    -0.172 A  
HETATM   30 CL   UNL     1     -10.013   5.117  66.733  1.00  0.00    -0.201 Cl 
HETATM   31  C   UNL     1      -9.939   7.673  67.769  1.00  0.00    -0.219 A  
HETATM   32  C   UNL     1     -10.193   8.562  68.842  1.00  0.00    -0.221 A  
HETATM   33  C   UNL     1      -9.352   8.250  66.504  1.00  0.00    -0.206 C  
HETATM   34  F   UNL     1     -10.173   9.171  65.926  1.00  0.00    -0.373 F  
HETATM   35  F   UNL     1      -8.183   8.913  66.755  1.00  0.00    -0.106 F  
HETATM   36  F   UNL     1      -9.047   7.365  65.519  1.00  0.00    -0.123 F  
ENDBRANCH  24  26
ENDBRANCH  22  24
ENDBRANCH  20  22
ENDBRANCH  17  20
ENDBRANCH  12  13
ENDBRANCH   8  12
ENDBRANCH   3   6
TORSDOF 7
ENDMDL
MODEL      125
REMARK 921   NORMALIZED FREE ENERGY PREDICTED BY IDOCK:   -5.67 KCAL/MOL
REMARK 922        TOTAL FREE ENERGY PREDICTED BY IDOCK:   -9.97 KCAL/MOL
REMARK 923 INTER-LIGAND FREE ENERGY PREDICTED BY IDOCK:   -8.88 KCAL/MOL
REMARK 924 INTRA-LIGAND FREE ENERGY PREDICTED BY IDOCK:   -1.10 KCAL/MOL
REMARK 927      BINDING AFFINITY PREDICTED BY RF-SCORE:    0.00 PKD
ROOT
HETATM    1  C   UNL     1      -5.830  14.206  70.925  1.00  0.00    -0.213 C  
HETATM    2  N   UNL     1      -6.066  12.808  70.692  1.00  0.00    -0.343 N  
HETATM    3  C   UNL     1      -6.700  12.373  69.548  1.00  0.00     0.015 C  
HETATM    4  H   UNL     1      -5.759  12.125  71.384  1.00  0.00     0.000 HD 
HETATM    5  O   UNL     1      -7.055  13.120  68.642  1.00  0.00    -0.095 OA 
ENDROOT
BRANCH   3   6
HETATM    6  C   UNL     1      -6.944  10.897  69.477  1.00  0.00    -0.131 A  
HETATM    7  C   UNL     1      -7.294  10.339  68.255  1.00  0.00    -0.085 A  
HETATM    8  C   UNL     1      -7.476   8.963  68.197  1.00  0.00    -0.092 A  
HETATM    9  C   UNL     1      -7.366   8.207  69.360  1.00  0.00    -0.076 A  
HETATM   10  N   UNL     1      -6.805  10.185  70.629  1.00  0.00    -0.320 NA 
HETATM   11  C   UNL     1      -7.028   8.855  70.538  1.00  0.00    -0.057 A  
BRANCH   8  12
HETATM   12  O   UNL     1      -7.844   8.292  67.054  1.00  0.00    -0.095 OA 
BRANCH  12  13
HETATM   13  C   UNL     1      -8.596   8.940  66.097  1.00  0.00    -0.140 A  
HETATM   14  C   UNL     1      -8.012   9.066  64.834  1.00  0.00    -0.126 A  
HETATM   15  C   UNL     1      -8.687   9.756  63.832  1.00  0.00    -0.218 A  
HETATM   16  F   UNL     1      -8.115   9.886  62.625  1.00  0.00    -0.118 F  
HETATM   17  C   UNL     1      -9.913  10.375  64.083  1.00  0.00    -0.267 A  
HETATM   18  C   UNL     1      -9.836   9.536  66.352  1.00  0.00    -0.320 A  
HETATM   19  C   UNL     1     -10.499  10.247  65.345  1.00  0.00    -0.125 A  
BRANCH  17  20
HETATM   20  N   UNL     1     -10.527  11.132  63.060  1.00  0.00    -0.766 N  
HETATM   21  H   UNL     1     -10.464  10.822  62.090  1.00  0.00     0.000 HD 
BRANCH  20  22
HETATM   22  C   UNL     1     -11.217  12.297  63.369  1.00  0.00    -0.420 C  
HETATM   23  O   UNL     1     -12.431  12.446  63.246  1.00  0.00    -0.604 OA 
BRANCH  22  24
HETATM   24  N   UNL     1     -10.354  13.275  63.825  1.00  0.00    -0.413 N  
HETATM   25  H   UNL     1      -9.508  13.478  63.292  1.00  0.00     0.000 HD 
BRANCH  24  26
HETATM   26  C   UNL     1     -10.612  13.998  65.006  1.00  0.00    -0.410 A  
HETATM   27  C   UNL     1     -11.288  13.360  66.040  1.00  0.00    -0.329 A  
HETATM   28  C   UNL     1     -11.559  14.053  67.219  1.00  0.00    -0.396 A  
HETATM   29  C   UNL     1     -11.223  15.406  67.351  1.00  0.00    -0.287 A  
HETATM   30 CL   UNL     1     -11.640  16.148  68.851  1.00  0.00    -0.341 Cl 
HETATM   31  C   UNL     1     -10.590  16.082  66.301  1.00  0.00    -0.288 A  
HETATM   32  C   UNL     1     -10.255  15.345  65.139  1.00  0.00    -0.360 A  
HETATM   33  C   UNL     1     -10.275  17.557  66.311  1.00  0.00    -0.355 C  
HETATM   34  F   UNL     1      -8.941  17.803  66.190  1.00  0.00    -0.268 F  
HETATM   35  F   UNL     1     -10.860  18.198  65.253  1.00  0.00    -0.441 F  
HETATM   36  F   UNL     1     -10.677  18.254  67.406  1.00  0.00    -0.395 F  
ENDBRANCH  24  26
ENDBRANCH  22  24
ENDBRANCH  20  22
ENDBRANCH  17  20
ENDBRANCH  12  13
ENDBRANCH   8  12
ENDBRANCH   3   6
TORSDOF 7
ENDMDL
MODEL      126
REMARK 921   NORMALIZED FREE ENERGY PREDICTED BY IDOCK:   -5.64 KCAL/MOL
REMARK 922        TOTAL FREE ENERGY PREDICTED BY IDOCK:   -9.94 KCAL/MOL
REMARK 923 INTER-LIGAND FREE ENERGY PREDICTED BY IDOCK:   -9.30 KCAL/MOL
REMARK 924 INTRA-LIGAND FREE ENERGY PREDICTED BY IDOCK:   -0.64 KCAL/MOL
REMARK 927      BINDING AFFINITY PREDICTED BY RF-SCORE:    0.00 PKD
ROOT
HETATM    1  C   UNL     1     -13.799   8.637  72.200  1.00  0.00    -0.429 C  
HETATM    2  N   UNL     1     -13.040   8.116  71.097  1.00  0.00    -0.518 N  
HETATM    3  C   UNL     1     -12.056   7.171  71.291  1.00  0.00    -0.348 C  
HETATM    4  H   UNL     1     -13.234   8.451  70.153  1.00  0.00     0.000 HD 
HETATM    5  O   UNL     1     -11.795   6.678  72.384  1.00  0.00    -0.266 OA 
ENDROOT
BRANCH   3   6
HETATM    6  C   UNL     1     -11.299   6.778  70.061  1.00  0.00    -0.342 A  
HETATM    7  C   UNL     1     -11.227   7.678  69.007  1.00  0.00     0.279 A  
HETATM    8  C   UNL     1     -10.488   7.315  67.889  1.00  0.00    -0.209 A  
HETATM    9  C   UNL     1      -9.903   6.054  67.834  1.00  0.00    -0.130 A  
HETATM   10  N   UNL     1     -10.721   5.545  70.050  1.00  0.00    -0.314 NA 
HETATM   11  C   UNL     1     -10.042   5.214  68.929  1.00  0.00    -0.167 A  
BRANCH   8  12
HETATM   12  O   UNL     1     -10.356   8.108  66.773  1.00  0.00    -0.311 OA 
BRANCH  12  13
HETATM   13  C   UNL     1     -10.192   9.469  66.921  1.00  0.00    -0.249 A  
HETATM   14  C   UNL     1     -10.019  10.202  65.746  1.00  0.00    -0.339 A  
HETATM   15  C   UNL     1      -9.793  11.573  65.818  1.00  0.00    -0.234 A  
HETATM   16  F   UNL     1      -9.613  12.270  64.685  1.00  0.00    -0.176 F  
HETATM   17  C   UNL     1      -9.679  12.220  67.050  1.00  0.00    -0.205 A  
HETATM   18  C   UNL     1     -10.103  10.113  68.162  1.00  0.00    -0.178 A  
HETATM   19  C   UNL     1      -9.854  11.488  68.226  1.00  0.00    -0.203 A  
BRANCH  17  20
HETATM   20  N   UNL     1      -9.370  13.599  67.080  1.00  0.00    -0.239 N  
HETATM   21  H   UNL     1      -8.538  13.923  67.573  1.00  0.00     0.000 HD 
BRANCH  20  22
HETATM   22  C   UNL     1     -10.194  14.515  66.440  1.00  0.00    -0.287 C  
HETATM   23  O   UNL     1      -9.868  15.191  65.467  1.00  0.00    -0.338 OA 
BRANCH  22  24
HETATM   24  N   UNL     1     -11.432  14.576  67.051  1.00  0.00    -0.357 N  
HETATM   25  H   UNL     1     -12.258  14.280  66.531  1.00  0.00     0.000 HD 
BRANCH  24  26
HETATM   26  C   UNL     1     -11.583  15.035  68.374  1.00  0.00    -0.331 A  
HETATM   27  C   UNL     1     -10.976  16.234  68.734  1.00  0.00    -0.343 A  
HETATM   28  C   UNL     1     -11.106  16.710  70.038  1.00  0.00    -0.105 A  
HETATM   29  C   UNL     1     -11.780  15.961  71.012  1.00  0.00    -0.432 A  
HETATM   30 CL   UNL     1     -11.843  16.656  72.590  1.00  0.00    -0.496 Cl 
HETATM   31  C   UNL     1     -12.352  14.727  70.684  1.00  0.00    -0.401 A  
HETATM   32  C   UNL     1     -12.275  14.292  69.339  1.00  0.00    -0.319 A  
HETATM   33  C   UNL     1     -13.012  13.807  71.681  1.00  0.00    -0.364 C  
HETATM   34  F   UNL     1     -14.320  13.571  71.381  1.00  0.00    -0.101 F  
HETATM   35  F   UNL     1     -12.415  12.577  71.696  1.00  0.00    -0.336 F  
HETATM   36  F   UNL     1     -13.004  14.215  72.978  1.00  0.00    -0.512 F  
ENDBRANCH  24  26
ENDBRANCH  22  24
ENDBRANCH  20  22
ENDBRANCH  17  20
ENDBRANCH  12  13
ENDBRANCH   8  12
ENDBRANCH   3   6
TORSDOF 7
ENDMDL
MODEL      127
REMARK 921   NORMALIZED FREE ENERGY PREDICTED BY IDOCK:   -5.60 KCAL/MOL
REMARK 922        TOTAL FREE ENERGY PREDICTED BY IDOCK:   -9.88 KCAL/MOL
REMARK 923 INTER-LIGAND FREE ENERGY PREDICTED BY IDOCK:   -8.81 KCAL/MOL
REMARK 924 INTRA-LIGAND FREE ENERGY PREDICTED BY IDOCK:   -1.07 KCAL/MOL
REMARK 927      BINDING AFFINITY PREDICTED BY RF-SCORE:    0.00 PKD
ROOT
HETATM    1  C   UNL     1      -6.541   3.359  67.121  1.00  0.00    -0.038 C  
HETATM    2  N   UNL     1      -6.444   4.544  66.314  1.00  0.00    -0.040 N  
HETATM    3  C   UNL     1      -7.223   5.651  66.576  1.00  0.00    -0.077 C  
HETATM    4  H   UNL     1      -5.787   4.567  65.534  1.00  0.00     0.000 HD 
HETATM    5  O   UNL     1      -7.998   5.726  67.523  1.00  0.00    -0.101 OA 
ENDROOT
BRANCH   3   6
HETATM    6  C   UNL     1      -7.067   6.782  65.607  1.00  0.00    -0.072 A  
HETATM    7  C   UNL     1      -8.210   7.375  65.088  1.00  0.00    -0.115 A  
HETATM    8  C   UNL     1      -8.049   8.450  64.223  1.00  0.00    -0.151 A  
HETATM    9  C   UNL     1      -6.768   8.852  63.859  1.00  0.00    -0.087 A  
HETATM   10  N   UNL     1      -5.799   7.164  65.291  1.00  0.00    -0.036 NA 
HETATM   11  C   UNL     1      -5.686   8.188  64.417  1.00  0.00    -0.052 A  
BRANCH   8  12
HETATM   12  O   UNL     1      -9.099   9.109  63.626  1.00  0.00    -0.072 OA 
BRANCH  12  13
HETATM   13  C   UNL     1      -9.520  10.320  64.136  1.00  0.00    -0.301 A  
HETATM   14  C   UNL     1     -10.466  11.013  63.379  1.00  0.00    -0.320 A  
HETATM   15  C   UNL     1     -10.899  12.266  63.801  1.00  0.00    -0.442 A  
HETATM   16  F   UNL     1     -11.798  12.934  63.062  1.00  0.00    -0.576 F  
HETATM   17  C   UNL     1     -10.358  12.869  64.938  1.00  0.00    -0.308 A  
HETATM   18  C   UNL     1      -8.989  10.905  65.291  1.00  0.00    -0.202 A  
HETATM   19  C   UNL     1      -9.413  12.175  65.697  1.00  0.00    -0.117 A  
BRANCH  17  20
HETATM   20  N   UNL     1     -10.767  14.177  65.287  1.00  0.00    -0.341 N  
HETATM   21  H   UNL     1     -10.342  14.981  64.826  1.00  0.00     0.000 HD 
BRANCH  20  22
HETATM   22  C   UNL     1     -11.745  14.370  66.254  1.00  0.00    -0.385 C  
HETATM   23  O   UNL     1     -12.947  14.191  66.079  1.00  0.00    -0.357 OA 
BRANCH  22  24
HETATM   24  N   UNL     1     -11.185  14.803  67.441  1.00  0.00    -0.328 N  
HETATM   25  H   UNL     1     -10.347  15.385  67.412  1.00  0.00     0.000 HD 
BRANCH  24  26
HETATM   26  C   UNL     1     -11.740  14.461  68.689  1.00  0.00    -0.332 A  
HETATM   27  C   UNL     1     -12.122  15.486  69.549  1.00  0.00    -0.326 A  
HETATM   28  C   UNL     1     -12.672  15.176  70.792  1.00  0.00    -0.463 A  
HETATM   29  C   UNL     1     -12.779  13.845  71.219  1.00  0.00    -0.367 A  
HETATM   30 CL   UNL     1     -13.452  13.606  72.789  1.00  0.00    -0.584 Cl 
HETATM   31  C   UNL     1     -12.351  12.802  70.391  1.00  0.00    -0.324 A  
HETATM   32  C   UNL     1     -11.863  13.129  69.102  1.00  0.00    -0.364 A  
HETATM   33  C   UNL     1     -12.336  11.349  70.797  1.00  0.00    -0.386 C  
HETATM   34  F   UNL     1     -13.118  10.577  69.991  1.00  0.00    -0.320 F  
HETATM   35  F   UNL     1     -11.080  10.817  70.702  1.00  0.00    -0.355 F  
HETATM   36  F   UNL     1     -12.737  11.072  72.066  1.00  0.00    -0.477 F  
ENDBRANCH  24  26
ENDBRANCH  22  24
ENDBRANCH  20  22
ENDBRANCH  17  20
ENDBRANCH  12  13
ENDBRANCH   8  12
ENDBRANCH   3   6
TORSDOF 7
ENDMDL
MODEL      128
REMARK 921   NORMALIZED FREE ENERGY PREDICTED BY IDOCK:   -5.60 KCAL/MOL
REMARK 922        TOTAL FREE ENERGY PREDICTED BY IDOCK:   -9.88 KCAL/MOL
REMARK 923 INTER-LIGAND FREE ENERGY PREDICTED BY IDOCK:   -8.78 KCAL/MOL
REMARK 924 INTRA-LIGAND FREE ENERGY PREDICTED BY IDOCK:   -1.10 KCAL/MOL
REMARK 927      BINDING AFFINITY PREDICTED BY RF-SCORE:    0.00 PKD
ROOT
HETATM    1  C   UNL     1     -13.428  15.360  71.070  1.00  0.00    -0.444 C  
HETATM    2  N   UNL     1     -12.876  15.040  69.783  1.00  0.00    -0.600 N  
HETATM    3  C   UNL     1     -12.158  13.881  69.584  1.00  0.00    -0.349 C  
HETATM    4  H   UNL     1     -13.018  15.682  69.003  1.00  0.00     0.000 HD 
HETATM    5  O   UNL     1     -11.985  13.032  70.452  1.00  0.00    -0.332 OA 
ENDROOT
BRANCH   3   6
HETATM    6  C   UNL     1     -11.580  13.718  68.212  1.00  0.00    -0.338 A  
HETATM    7  C   UNL     1     -10.389  13.019  68.070  1.00  0.00    -0.237 A  
HETATM    8  C   UNL     1      -9.888  12.841  66.787  1.00  0.00    -0.242 A  
HETATM    9  C   UNL     1     -10.551  13.413  65.706  1.00  0.00    -0.286 A  
HETATM   10  N   UNL     1     -12.267  14.272  67.174  1.00  0.00    -0.369 NA 
HETATM   11  C   UNL     1     -11.726  14.109  65.947  1.00  0.00    -0.365 A  
BRANCH   8  12
HETATM   12  O   UNL     1      -8.709  12.186  66.515  1.00  0.00    -0.189 OA 
BRANCH  12  13
HETATM   13  C   UNL     1      -8.732  10.840  66.217  1.00  0.00    -0.169 A  
HETATM   14  C   UNL     1      -9.849  10.129  66.659  1.00  0.00    -0.253 A  
HETATM   15  C   UNL     1      -9.918   8.755  66.443  1.00  0.00    -0.275 A  
HETATM   16  F   UNL     1     -10.988   8.075  66.882  1.00  0.00    -0.387 F  
HETATM   17  C   UNL     1      -8.862   8.067  65.844  1.00  0.00    -0.153 A  
HETATM   18  C   UNL     1      -7.677  10.162  65.594  1.00  0.00    -0.143 A  
HETATM   19  C   UNL     1      -7.744   8.778  65.401  1.00  0.00    -0.089 A  
BRANCH  17  20
HETATM   20  N   UNL     1      -8.938   6.661  65.716  1.00  0.00    -0.333 N  
HETATM   21  H   UNL     1      -9.495   6.249  64.967  1.00  0.00     0.000 HD 
BRANCH  20  22
HETATM   22  C   UNL     1      -8.260   5.838  66.606  1.00  0.00    -0.106 C  
HETATM   23  O   UNL     1      -7.917   4.683  66.369  1.00  0.00    -0.101 OA 
BRANCH  22  24
HETATM   24  N   UNL     1      -8.028   6.491  67.802  1.00  0.00    -0.113 N  
HETATM   25  H   UNL     1      -7.151   6.994  67.931  1.00  0.00     0.000 HD 
BRANCH  24  26
HETATM   26  C   UNL     1      -8.973   6.479  68.847  1.00  0.00    -0.128 A  
HETATM   27  C   UNL     1      -9.864   5.413  68.924  1.00  0.00    -0.226 A  
HETATM   28  C   UNL     1     -10.811   5.377  69.946  1.00  0.00    -0.196 A  
HETATM   29  C   UNL     1     -10.927   6.437  70.856  1.00  0.00    -0.280 A  
HETATM   30 CL   UNL     1     -12.159   6.275  72.053  1.00  0.00    -0.374 Cl 
HETATM   31  C   UNL     1     -10.076   7.543  70.763  1.00  0.00    -0.192 A  
HETATM   32  C   UNL     1      -9.070   7.531  69.766  1.00  0.00    -0.140 A  
HETATM   33  C   UNL     1     -10.184   8.771  71.633  1.00  0.00    -0.324 C  
HETATM   34  F   UNL     1      -9.055   8.992  72.362  1.00  0.00    -0.279 F  
HETATM   35  F   UNL     1     -10.358   9.900  70.881  1.00  0.00    -0.353 F  
HETATM   36  F   UNL     1     -11.206   8.789  72.530  1.00  0.00    -0.415 F  
ENDBRANCH  24  26
ENDBRANCH  22  24
ENDBRANCH  20  22
ENDBRANCH  17  20
ENDBRANCH  12  13
ENDBRANCH   8  12
ENDBRANCH   3   6
TORSDOF 7
ENDMDL
MODEL      129
REMARK 921   NORMALIZED FREE ENERGY PREDICTED BY IDOCK:   -5.60 KCAL/MOL
REMARK 922        TOTAL FREE ENERGY PREDICTED BY IDOCK:   -9.88 KCAL/MOL
REMARK 923 INTER-LIGAND FREE ENERGY PREDICTED BY IDOCK:   -8.38 KCAL/MOL
REMARK 924 INTRA-LIGAND FREE ENERGY PREDICTED BY IDOCK:   -1.50 KCAL/MOL
REMARK 927      BINDING AFFINITY PREDICTED BY RF-SCORE:    0.00 PKD
ROOT
HETATM    1  C   UNL     1     -10.067  20.059  67.022  1.00  0.00    -0.457 C  
HETATM    2  N   UNL     1     -10.509  18.790  66.511  1.00  0.00    -0.417 N  
HETATM    3  C   UNL     1     -10.024  17.607  67.027  1.00  0.00    -0.320 C  
HETATM    4  H   UNL     1     -11.192  18.764  65.755  1.00  0.00     0.000 HD 
HETATM    5  O   UNL     1      -9.241  17.547  67.969  1.00  0.00    -0.261 OA 
ENDROOT
BRANCH   3   6
HETATM    6  C   UNL     1     -10.517  16.367  66.346  1.00  0.00    -0.286 A  
HETATM    7  C   UNL     1     -10.567  15.186  67.072  1.00  0.00    -0.300 A  
HETATM    8  C   UNL     1     -11.065  14.054  66.440  1.00  0.00    -0.316 A  
HETATM    9  C   UNL     1     -11.434  14.123  65.100  1.00  0.00    -0.336 A  
HETATM   10  N   UNL     1     -10.890  16.477  65.041  1.00  0.00    -0.648 NA 
HETATM   11  C   UNL     1     -11.333  15.345  64.452  1.00  0.00    -0.238 A  
BRANCH   8  12
HETATM   12  O   UNL     1     -11.148  12.820  67.042  1.00  0.00    -0.260 OA 
BRANCH  12  13
HETATM   13  C   UNL     1     -10.228  11.844  66.722  1.00  0.00    -0.206 A  
HETATM   14  C   UNL     1     -10.715  10.537  66.647  1.00  0.00    -0.222 A  
HETATM   15  C   UNL     1      -9.836   9.491  66.382  1.00  0.00    -0.253 A  
HETATM   16  F   UNL     1     -10.307   8.236  66.326  1.00  0.00    -0.343 F  
HETATM   17  C   UNL     1      -8.465   9.719  66.248  1.00  0.00    -0.123 A  
HETATM   18  C   UNL     1      -8.858  12.086  66.564  1.00  0.00    -0.172 A  
HETATM   19  C   UNL     1      -7.978  11.026  66.320  1.00  0.00    -0.148 A  
BRANCH  17  20
HETATM   20  N   UNL     1      -7.598   8.619  66.059  1.00  0.00    -0.091 N  
HETATM   21  H   UNL     1      -7.758   7.973  65.285  1.00  0.00     0.000 HD 
BRANCH  20  22
HETATM   22  C   UNL     1      -6.529   8.414  66.920  1.00  0.00    -0.057 C  
HETATM   23  O   UNL     1      -5.423   8.936  66.802  1.00  0.00    -0.039 OA 
BRANCH  22  24
HETATM   24  N   UNL     1      -6.870   7.532  67.928  1.00  0.00    -0.068 N  
HETATM   25  H   UNL     1      -6.386   6.636  67.989  1.00  0.00     0.000 HD 
BRANCH  24  26
HETATM   26  C   UNL     1      -7.869   7.837  68.872  1.00  0.00    -0.122 A  
HETATM   27  C   UNL     1      -7.698   8.955  69.682  1.00  0.00    -0.078 A  
HETATM   28  C   UNL     1      -8.671   9.279  70.627  1.00  0.00    -0.282 A  
HETATM   29  C   UNL     1      -9.786   8.453  70.823  1.00  0.00    -0.176 A  
HETATM   30 CL   UNL     1     -10.896   8.958  72.043  1.00  0.00    -0.428 Cl 
HETATM   31  C   UNL     1      -9.950   7.295  70.055  1.00  0.00    -0.184 A  
HETATM   32  C   UNL     1      -8.992   7.019  69.049  1.00  0.00    -0.133 A  
HETATM   33  C   UNL     1     -11.063   6.296  70.256  1.00  0.00    -0.364 C  
HETATM   34  F   UNL     1     -11.843   6.159  69.148  1.00  0.00    -0.381 F  
HETATM   35  F   UNL     1     -10.569   5.046  70.510  1.00  0.00    -0.318 F  
HETATM   36  F   UNL     1     -11.923   6.546  71.278  1.00  0.00    -0.353 F  
ENDBRANCH  24  26
ENDBRANCH  22  24
ENDBRANCH  20  22
ENDBRANCH  17  20
ENDBRANCH  12  13
ENDBRANCH   8  12
ENDBRANCH   3   6
TORSDOF 7
ENDMDL
MODEL      130
REMARK 921   NORMALIZED FREE ENERGY PREDICTED BY IDOCK:   -5.60 KCAL/MOL
REMARK 922        TOTAL FREE ENERGY PREDICTED BY IDOCK:   -9.87 KCAL/MOL
REMARK 923 INTER-LIGAND FREE ENERGY PREDICTED BY IDOCK:   -8.78 KCAL/MOL
REMARK 924 INTRA-LIGAND FREE ENERGY PREDICTED BY IDOCK:   -1.09 KCAL/MOL
REMARK 927      BINDING AFFINITY PREDICTED BY RF-SCORE:    0.00 PKD
ROOT
HETATM    1  C   UNL     1     -10.755   5.498  70.210  1.00  0.00    -0.263 C  
HETATM    2  N   UNL     1     -10.084   5.503  68.939  1.00  0.00    -0.180 N  
HETATM    3  C   UNL     1     -10.060   6.634  68.150  1.00  0.00    -0.158 C  
HETATM    4  H   UNL     1      -9.616   4.657  68.615  1.00  0.00     0.000 HD 
HETATM    5  O   UNL     1     -10.551   7.706  68.486  1.00  0.00    -0.192 OA 
ENDROOT
BRANCH   3   6
HETATM    6  C   UNL     1      -9.389   6.468  66.821  1.00  0.00    -0.156 A  
HETATM    7  C   UNL     1      -8.822   7.583  66.220  1.00  0.00    -0.184 A  
HETATM    8  C   UNL     1      -8.168   7.406  65.007  1.00  0.00    -0.098 A  
HETATM    9  C   UNL     1      -8.156   6.148  64.412  1.00  0.00    -0.102 A  
HETATM   10  N   UNL     1      -9.377   5.220  66.278  1.00  0.00    -0.148 NA 
HETATM   11  C   UNL     1      -8.764   5.097  65.080  1.00  0.00    -0.151 A  
BRANCH   8  12
HETATM   12  O   UNL     1      -7.583   8.432  64.301  1.00  0.00    -0.109 OA 
BRANCH  12  13
HETATM   13  C   UNL     1      -8.295   9.590  64.069  1.00  0.00    -0.170 A  
HETATM   14  C   UNL     1      -8.456  10.445  65.161  1.00  0.00    -0.177 A  
HETATM   15  C   UNL     1      -9.208  11.607  65.018  1.00  0.00     0.045 A  
HETATM   16  F   UNL     1      -9.371  12.418  66.075  1.00  0.00    -0.232 F  
HETATM   17  C   UNL     1      -9.854  11.903  63.817  1.00  0.00    -0.285 A  
HETATM   18  C   UNL     1      -8.919   9.890  62.852  1.00  0.00    -0.271 A  
HETATM   19  C   UNL     1      -9.692  11.049  62.723  1.00  0.00    -0.303 A  
BRANCH  17  20
HETATM   20  N   UNL     1     -10.674  13.052  63.739  1.00  0.00    -0.517 N  
HETATM   21  H   UNL     1     -10.254  13.964  63.558  1.00  0.00     0.000 HD 
BRANCH  20  22
HETATM   22  C   UNL     1     -12.048  12.945  63.906  1.00  0.00    -0.480 C  
HETATM   23  O   UNL     1     -12.742  12.043  63.443  1.00  0.00    -0.706 OA 
BRANCH  22  24
HETATM   24  N   UNL     1     -12.537  13.998  64.657  1.00  0.00    -0.659 N  
HETATM   25  H   UNL     1     -13.313  14.549  64.292  1.00  0.00     0.000 HD 
BRANCH  24  26
HETATM   26  C   UNL     1     -11.989  14.329  65.911  1.00  0.00    -0.391 A  
HETATM   27  C   UNL     1     -12.214  13.470  66.982  1.00  0.00    -0.351 A  
HETATM   28  C   UNL     1     -11.687  13.775  68.236  1.00  0.00    -0.394 A  
HETATM   29  C   UNL     1     -10.992  14.972  68.451  1.00  0.00    -0.264 A  
HETATM   30 CL   UNL     1     -10.416  15.236  70.056  1.00  0.00    -0.287 Cl 
HETATM   31  C   UNL     1     -10.800  15.876  67.400  1.00  0.00    -0.291 A  
HETATM   32  C   UNL     1     -11.277  15.518  66.115  1.00  0.00    -0.102 A  
HETATM   33  C   UNL     1     -10.151  17.229  67.553  1.00  0.00    -0.315 C  
HETATM   34  F   UNL     1      -9.033  17.358  66.786  1.00  0.00    -0.226 F  
HETATM   35  F   UNL     1     -10.988  18.232  67.148  1.00  0.00    -0.391 F  
HETATM   36  F   UNL     1      -9.771  17.579  68.811  1.00  0.00    -0.272 F  
ENDBRANCH  24  26
ENDBRANCH  22  24
ENDBRANCH  20  22
ENDBRANCH  17  20
ENDBRANCH  12  13
ENDBRANCH   8  12
ENDBRANCH   3   6
TORSDOF 7
ENDMDL
MODEL      131
REMARK 921   NORMALIZED FREE ENERGY PREDICTED BY IDOCK:   -5.58 KCAL/MOL
REMARK 922        TOTAL FREE ENERGY PREDICTED BY IDOCK:   -9.85 KCAL/MOL
REMARK 923 INTER-LIGAND FREE ENERGY PREDICTED BY IDOCK:   -9.19 KCAL/MOL
REMARK 924 INTRA-LIGAND FREE ENERGY PREDICTED BY IDOCK:   -0.66 KCAL/MOL
REMARK 927      BINDING AFFINITY PREDICTED BY RF-SCORE:    0.00 PKD
ROOT
HETATM    1  C   UNL     1      -9.482  20.198  66.745  1.00  0.00    -0.403 C  
HETATM    2  N   UNL     1      -9.284  18.830  67.139  1.00  0.00    -0.283 N  
HETATM    3  C   UNL     1      -9.837  17.793  66.418  1.00  0.00    -0.324 C  
HETATM    4  H   UNL     1      -8.725  18.623  67.966  1.00  0.00     0.000 HD 
HETATM    5  O   UNL     1     -10.478  17.951  65.385  1.00  0.00    -0.635 OA 
ENDROOT
BRANCH   3   6
HETATM    6  C   UNL     1      -9.609  16.428  66.990  1.00  0.00    -0.237 A  
HETATM    7  C   UNL     1     -10.552  15.439  66.747  1.00  0.00    -0.309 A  
HETATM    8  C   UNL     1     -10.306  14.168  67.249  1.00  0.00    -0.267 A  
HETATM    9  C   UNL     1      -9.171  13.944  68.022  1.00  0.00    -0.193 A  
HETATM   10  N   UNL     1      -8.477  16.239  67.723  1.00  0.00    -0.162 NA 
HETATM   11  C   UNL     1      -8.293  14.998  68.225  1.00  0.00    -0.145 A  
BRANCH   8  12
HETATM   12  O   UNL     1     -11.170  13.109  67.095  1.00  0.00    -0.275 OA 
BRANCH  12  13
HETATM   13  C   UNL     1     -11.560  12.382  68.200  1.00  0.00    -0.341 A  
HETATM   14  C   UNL     1     -11.925  13.121  69.327  1.00  0.00    -0.344 A  
HETATM   15  C   UNL     1     -12.278  12.458  70.498  1.00  0.00    -0.295 A  
HETATM   16  F   UNL     1     -12.614  13.173  71.583  1.00  0.00    -0.392 F  
HETATM   17  C   UNL     1     -12.217  11.066  70.584  1.00  0.00    -0.385 A  
HETATM   18  C   UNL     1     -11.519  10.985  68.268  1.00  0.00    -0.374 A  
HETATM   19  C   UNL     1     -11.855  10.326  69.456  1.00  0.00    -0.148 A  
BRANCH  17  20
HETATM   20  N   UNL     1     -12.508  10.436  71.815  1.00  0.00    -0.362 N  
HETATM   21  H   UNL     1     -12.769  11.000  72.625  1.00  0.00     0.000 HD 
BRANCH  20  22
HETATM   22  C   UNL     1     -12.438   9.054  71.929  1.00  0.00    -0.384 C  
HETATM   23  O   UNL     1     -13.405   8.297  71.877  1.00  0.00    -0.333 OA 
BRANCH  22  24
HETATM   24  N   UNL     1     -11.133   8.640  72.120  1.00  0.00    -0.362 N  
HETATM   25  H   UNL     1     -10.494   9.238  72.643  1.00  0.00     0.000 HD 
BRANCH  24  26
HETATM   26  C   UNL     1     -10.664   7.414  71.610  1.00  0.00    -0.214 A  
HETATM   27  C   UNL     1     -10.449   7.304  70.240  1.00  0.00    -0.231 A  
HETATM   28  C   UNL     1      -9.987   6.100  69.708  1.00  0.00    -0.213 A  
HETATM   29  C   UNL     1      -9.804   4.977  70.525  1.00  0.00    -0.219 A  
HETATM   30 CL   UNL     1      -9.254   3.547  69.732  1.00  0.00    -0.203 Cl 
HETATM   31  C   UNL     1     -10.065   5.052  71.898  1.00  0.00    -0.257 A  
HETATM   32  C   UNL     1     -10.463   6.300  72.435  1.00  0.00    -0.223 A  
HETATM   33  C   UNL     1      -9.990   3.876  72.840  1.00  0.00    -0.146 C  
HETATM   34  F   UNL     1      -9.077   4.064  73.832  1.00  0.00    -0.094 F  
HETATM   35  F   UNL     1     -11.183   3.672  73.477  1.00  0.00    -0.285 F  
HETATM   36  F   UNL     1      -9.682   2.674  72.284  1.00  0.00    -0.158 F  
ENDBRANCH  24  26
ENDBRANCH  22  24
ENDBRANCH  20  22
ENDBRANCH  17  20
ENDBRANCH  12  13
ENDBRANCH   8  12
ENDBRANCH   3   6
TORSDOF 7
ENDMDL
MODEL      132
REMARK 921   NORMALIZED FREE ENERGY PREDICTED BY IDOCK:   -5.58 KCAL/MOL
REMARK 922        TOTAL FREE ENERGY PREDICTED BY IDOCK:   -9.84 KCAL/MOL
REMARK 923 INTER-LIGAND FREE ENERGY PREDICTED BY IDOCK:   -8.64 KCAL/MOL
REMARK 924 INTRA-LIGAND FREE ENERGY PREDICTED BY IDOCK:   -1.21 KCAL/MOL
REMARK 927      BINDING AFFINITY PREDICTED BY RF-SCORE:    0.00 PKD
ROOT
HETATM    1  C   UNL     1     -10.299   6.848  70.545  1.00  0.00    -0.204 C  
HETATM    2  N   UNL     1     -10.031   7.298  69.207  1.00  0.00    -0.167 N  
HETATM    3  C   UNL     1      -9.617   8.589  68.957  1.00  0.00    -0.167 C  
HETATM    4  H   UNL     1     -10.150   6.651  68.428  1.00  0.00     0.000 HD 
HETATM    5  O   UNL     1      -9.400   9.414  69.839  1.00  0.00    -0.183 OA 
ENDROOT
BRANCH   3   6
HETATM    6  C   UNL     1      -9.450   8.935  67.510  1.00  0.00    -0.141 A  
HETATM    7  C   UNL     1     -10.129  10.036  67.007  1.00  0.00    -0.274 A  
HETATM    8  C   UNL     1      -9.932  10.369  65.674  1.00  0.00    -0.272 A  
HETATM    9  C   UNL     1      -9.121   9.564  64.878  1.00  0.00    -0.276 A  
HETATM   10  N   UNL     1      -8.632   8.139  66.767  1.00  0.00    -0.128 NA 
HETATM   11  C   UNL     1      -8.497   8.475  65.466  1.00  0.00    -0.167 A  
BRANCH   8  12
HETATM   12  O   UNL     1     -10.561  11.422  65.051  1.00  0.00    -0.286 OA 
BRANCH  12  13
HETATM   13  C   UNL     1     -10.934  12.525  65.790  1.00  0.00    -0.292 A  
HETATM   14  C   UNL     1     -10.119  13.652  65.672  1.00  0.00    -0.299 A  
HETATM   15  C   UNL     1     -10.400  14.785  66.428  1.00  0.00    -0.293 A  
HETATM   16  F   UNL     1      -9.605  15.861  66.321  1.00  0.00    -0.250 F  
HETATM   17  C   UNL     1     -11.450  14.794  67.349  1.00  0.00    -0.363 A  
HETATM   18  C   UNL     1     -12.005  12.532  66.692  1.00  0.00    -0.351 A  
HETATM   19  C   UNL     1     -12.268  13.668  67.466  1.00  0.00    -0.259 A  
BRANCH  17  20
HETATM   20  N   UNL     1     -11.652  15.938  68.154  1.00  0.00    -0.287 N  
HETATM   21  H   UNL     1     -12.400  16.594  67.926  1.00  0.00     0.000 HD 
BRANCH  20  22
HETATM   22  C   UNL     1     -10.839  16.172  69.255  1.00  0.00    -0.310 C  
HETATM   23  O   UNL     1     -10.374  15.297  69.981  1.00  0.00    -0.273 OA 
BRANCH  22  24
HETATM   24  N   UNL     1     -10.627  17.527  69.432  1.00  0.00    -0.350 N  
HETATM   25  H   UNL     1     -11.167  18.024  70.140  1.00  0.00     0.000 HD 
BRANCH  24  26
HETATM   26  C   UNL     1      -9.687  18.236  68.661  1.00  0.00    -0.361 A  
HETATM   27  C   UNL     1     -10.089  19.417  68.045  1.00  0.00    -0.516 A  
HETATM   28  C   UNL     1      -9.180  20.139  67.273  1.00  0.00    -0.504 A  
HETATM   29  C   UNL     1      -7.885  19.653  67.048  1.00  0.00    -0.270 A  
HETATM   30 CL   UNL     1      -6.873  20.632  66.052  1.00  0.00    -0.250 Cl 
HETATM   31  C   UNL     1      -7.477  18.440  67.614  1.00  0.00    -0.228 A  
HETATM   32  C   UNL     1      -8.388  17.757  68.456  1.00  0.00    -0.298 A  
HETATM   33  C   UNL     1      -6.140  17.791  67.353  1.00  0.00    -0.147 C  
HETATM   34  F   UNL     1      -5.412  17.630  68.493  1.00  0.00    -0.144 F  
HETATM   35  F   UNL     1      -6.291  16.533  66.837  1.00  0.00    -0.187 F  
HETATM   36  F   UNL     1      -5.317  18.430  66.481  1.00  0.00    -0.143 F  
ENDBRANCH  24  26
ENDBRANCH  22  24
ENDBRANCH  20  22
ENDBRANCH  17  20
ENDBRANCH  12  13
ENDBRANCH   8  12
ENDBRANCH   3   6
TORSDOF 7
ENDMDL
MODEL      133
REMARK 921   NORMALIZED FREE ENERGY PREDICTED BY IDOCK:   -5.57 KCAL/MOL
REMARK 922        TOTAL FREE ENERGY PREDICTED BY IDOCK:   -9.83 KCAL/MOL
REMARK 923 INTER-LIGAND FREE ENERGY PREDICTED BY IDOCK:   -8.97 KCAL/MOL
REMARK 924 INTRA-LIGAND FREE ENERGY PREDICTED BY IDOCK:   -0.86 KCAL/MOL
REMARK 927      BINDING AFFINITY PREDICTED BY RF-SCORE:    0.00 PKD
ROOT
HETATM    1  C   UNL     1      -9.290   4.797  67.620  1.00  0.00    -0.138 C  
HETATM    2  N   UNL     1      -9.637   5.773  68.615  1.00  0.00    -0.123 N  
HETATM    3  C   UNL     1      -9.457   5.518  69.958  1.00  0.00    -0.159 C  
HETATM    4  H   UNL     1     -10.024   6.671  68.324  1.00  0.00     0.000 HD 
HETATM    5  O   UNL     1      -8.951   4.489  70.391  1.00  0.00    -0.087 OA 
ENDROOT
BRANCH   3   6
HETATM    6  C   UNL     1      -9.933   6.597  70.881  1.00  0.00    -0.187 A  
HETATM    7  C   UNL     1     -11.122   7.249  70.584  1.00  0.00    -0.287 A  
HETATM    8  C   UNL     1     -11.572   8.219  71.471  1.00  0.00    -0.279 A  
HETATM    9  C   UNL     1     -10.797   8.547  72.579  1.00  0.00    -0.304 A  
HETATM   10  N   UNL     1      -9.161   6.877  71.967  1.00  0.00    -0.137 NA 
HETATM   11  C   UNL     1      -9.614   7.853  72.784  1.00  0.00    -0.247 A  
BRANCH   8  12
HETATM   12  O   UNL     1     -12.722   8.949  71.281  1.00  0.00    -0.313 OA 
BRANCH  12  13
HETATM   13  C   UNL     1     -12.633  10.279  70.929  1.00  0.00    -0.371 A  
HETATM   14  C   UNL     1     -12.027  10.554  69.702  1.00  0.00    -0.279 A  
HETATM   15  C   UNL     1     -11.852  11.876  69.303  1.00  0.00    -0.318 A  
HETATM   16  F   UNL     1     -11.256  12.135  68.129  1.00  0.00    -0.232 F  
HETATM   17  C   UNL     1     -12.220  12.934  70.137  1.00  0.00    -0.266 A  
HETATM   18  C   UNL     1     -13.028  11.333  71.762  1.00  0.00    -0.519 A  
HETATM   19  C   UNL     1     -12.828  12.659  71.364  1.00  0.00    -0.358 A  
BRANCH  17  20
HETATM   20  N   UNL     1     -11.952  14.260  69.728  1.00  0.00    -0.319 N  
HETATM   21  H   UNL     1     -12.503  14.682  68.980  1.00  0.00     0.000 HD 
BRANCH  20  22
HETATM   22  C   UNL     1     -10.942  14.992  70.340  1.00  0.00    -0.190 C  
HETATM   23  O   UNL     1     -10.957  15.362  71.511  1.00  0.00    -0.316 OA 
BRANCH  22  24
HETATM   24  N   UNL     1      -9.919  15.258  69.451  1.00  0.00    -0.248 N  
HETATM   25  H   UNL     1      -9.231  14.531  69.253  1.00  0.00     0.000 HD 
BRANCH  24  26
HETATM   26  C   UNL     1      -9.800  16.507  68.812  1.00  0.00    -0.254 A  
HETATM   27  C   UNL     1     -10.857  16.954  68.025  1.00  0.00    -0.338 A  
HETATM   28  C   UNL     1     -10.764  18.186  67.378  1.00  0.00    -0.355 A  
HETATM   29  C   UNL     1      -9.592  18.949  67.451  1.00  0.00    -0.306 A  
HETATM   30 CL   UNL     1      -9.604  20.439  66.582  1.00  0.00    -0.506 Cl 
HETATM   31  C   UNL     1      -8.497  18.493  68.194  1.00  0.00    -0.317 A  
HETATM   32  C   UNL     1      -8.633  17.276  68.905  1.00  0.00    -0.170 A  
HETATM   33  C   UNL     1      -7.163  19.195  68.254  1.00  0.00    -0.271 C  
HETATM   34  F   UNL     1      -6.829  19.565  69.522  1.00  0.00    -0.343 F  
HETATM   35  F   UNL     1      -6.150  18.376  67.836  1.00  0.00    -0.171 F  
HETATM   36  F   UNL     1      -7.036  20.319  67.501  1.00  0.00    -0.264 F  
ENDBRANCH  24  26
ENDBRANCH  22  24
ENDBRANCH  20  22
ENDBRANCH  17  20
ENDBRANCH  12  13
ENDBRANCH   8  12
ENDBRANCH   3   6
TORSDOF 7
ENDMDL
MODEL      134
REMARK 921   NORMALIZED FREE ENERGY PREDICTED BY IDOCK:   -5.57 KCAL/MOL
REMARK 922        TOTAL FREE ENERGY PREDICTED BY IDOCK:   -9.83 KCAL/MOL
REMARK 923 INTER-LIGAND FREE ENERGY PREDICTED BY IDOCK:   -8.44 KCAL/MOL
REMARK 924 INTRA-LIGAND FREE ENERGY PREDICTED BY IDOCK:   -1.39 KCAL/MOL
REMARK 927      BINDING AFFINITY PREDICTED BY RF-SCORE:    0.00 PKD
ROOT
HETATM    1  C   UNL     1     -10.979   5.771  66.756  1.00  0.00    -0.154 C  
HETATM    2  N   UNL     1     -10.961   6.586  67.940  1.00  0.00    -0.419 N  
HETATM    3  C   UNL     1     -10.412   6.121  69.116  1.00  0.00    -0.251 C  
HETATM    4  H   UNL     1     -11.361   7.523  67.910  1.00  0.00     0.000 HD 
HETATM    5  O   UNL     1      -9.865   5.029  69.225  1.00  0.00    -0.163 OA 
ENDROOT
BRANCH   3   6
HETATM    6  C   UNL     1     -10.532   7.050  70.284  1.00  0.00    -0.208 A  
HETATM    7  C   UNL     1     -11.656   7.858  70.379  1.00  0.00    -0.092 A  
HETATM    8  C   UNL     1     -11.772   8.684  71.490  1.00  0.00    -0.305 A  
HETATM    9  C   UNL     1     -10.744   8.722  72.427  1.00  0.00    -0.220 A  
HETATM   10  N   UNL     1      -9.517   7.045  71.193  1.00  0.00    -0.165 NA 
HETATM   11  C   UNL     1      -9.650   7.890  72.239  1.00  0.00    -0.195 A  
BRANCH   8  12
HETATM   12  O   UNL     1     -12.826   9.545  71.691  1.00  0.00    -0.339 OA 
BRANCH  12  13
HETATM   13  C   UNL     1     -12.796  10.801  71.121  1.00  0.00    -0.414 A  
HETATM   14  C   UNL     1     -12.497  10.854  69.759  1.00  0.00    -0.250 A  
HETATM   15  C   UNL     1     -12.396  12.089  69.125  1.00  0.00     0.125 A  
HETATM   16  F   UNL     1     -12.094  12.134  67.818  1.00  0.00    -0.390 F  
HETATM   17  C   UNL     1     -12.530  13.279  69.843  1.00  0.00    -0.054 A  
HETATM   18  C   UNL     1     -12.957  11.988  71.845  1.00  0.00    -0.428 A  
HETATM   19  C   UNL     1     -12.831  13.226  71.206  1.00  0.00    -0.398 A  
BRANCH  17  20
HETATM   20  N   UNL     1     -12.340  14.511  69.177  1.00  0.00    -0.571 N  
HETATM   21  H   UNL     1     -13.144  15.015  68.802  1.00  0.00     0.000 HD 
BRANCH  20  22
HETATM   22  C   UNL     1     -11.065  15.040  69.032  1.00  0.00    -0.262 C  
HETATM   23  O   UNL     1     -10.242  15.145  69.939  1.00  0.00    -0.234 OA 
BRANCH  22  24
HETATM   24  N   UNL     1     -10.844  15.445  67.729  1.00  0.00    -0.294 N  
HETATM   25  H   UNL     1     -10.861  16.441  67.509  1.00  0.00     0.000 HD 
BRANCH  24  26
HETATM   26  C   UNL     1     -10.598  14.519  66.698  1.00  0.00    -0.283 A  
HETATM   27  C   UNL     1     -11.254  14.688  65.483  1.00  0.00    -0.343 A  
HETATM   28  C   UNL     1     -11.031  13.783  64.445  1.00  0.00    -0.356 A  
HETATM   29  C   UNL     1     -10.210  12.664  64.632  1.00  0.00    -0.294 A  
HETATM   30 CL   UNL     1     -10.043  11.613  63.275  1.00  0.00    -0.436 Cl 
HETATM   31  C   UNL     1      -9.583  12.446  65.864  1.00  0.00    -0.193 A  
HETATM   32  C   UNL     1      -9.760  13.413  66.884  1.00  0.00    -0.253 A  
HETATM   33  C   UNL     1      -8.760  11.224  66.192  1.00  0.00    -0.179 C  
HETATM   34  F   UNL     1      -7.474  11.538  66.516  1.00  0.00    -0.140 F  
HETATM   35  F   UNL     1      -9.259  10.565  67.281  1.00  0.00    -0.141 F  
HETATM   36  F   UNL     1      -8.670  10.277  65.221  1.00  0.00    -0.145 F  
ENDBRANCH  24  26
ENDBRANCH  22  24
ENDBRANCH  20  22
ENDBRANCH  17  20
ENDBRANCH  12  13
ENDBRANCH   8  12
ENDBRANCH   3   6
TORSDOF 7
ENDMDL
MODEL      135
REMARK 921   NORMALIZED FREE ENERGY PREDICTED BY IDOCK:   -5.57 KCAL/MOL
REMARK 922        TOTAL FREE ENERGY PREDICTED BY IDOCK:   -9.83 KCAL/MOL
REMARK 923 INTER-LIGAND FREE ENERGY PREDICTED BY IDOCK:  -10.28 KCAL/MOL
REMARK 924 INTRA-LIGAND FREE ENERGY PREDICTED BY IDOCK:    0.45 KCAL/MOL
REMARK 927      BINDING AFFINITY PREDICTED BY RF-SCORE:    0.00 PKD
ROOT
HETATM    1  C   UNL     1      -9.268   6.614  68.931  1.00  0.00    -0.130 C  
HETATM    2  N   UNL     1     -10.487   7.097  69.519  1.00  0.00    -0.219 N  
HETATM    3  C   UNL     1     -10.551   7.432  70.855  1.00  0.00    -0.223 C  
HETATM    4  H   UNL     1     -11.320   7.195  68.938  1.00  0.00     0.000 HD 
HETATM    5  O   UNL     1      -9.586   7.394  71.610  1.00  0.00    -0.152 OA 
ENDROOT
BRANCH   3   6
HETATM    6  C   UNL     1     -11.904   7.848  71.343  1.00  0.00    -0.299 A  
HETATM    7  C   UNL     1     -12.120   9.186  71.642  1.00  0.00    -0.432 A  
HETATM    8  C   UNL     1     -13.392   9.563  72.054  1.00  0.00    -0.452 A  
HETATM    9  C   UNL     1     -14.377   8.594  72.213  1.00  0.00    -0.486 A  
HETATM   10  N   UNL     1     -12.850   6.877  71.465  1.00  0.00    -0.364 NA 
HETATM   11  C   UNL     1     -14.063   7.279  71.905  1.00  0.00    -0.279 A  
BRANCH   8  12
HETATM   12  O   UNL     1     -13.729  10.852  72.399  1.00  0.00    -0.049 OA 
BRANCH  12  13
HETATM   13  C   UNL     1     -13.167  11.908  71.713  1.00  0.00    -0.321 A  
HETATM   14  C   UNL     1     -12.194  11.583  70.767  1.00  0.00    -0.463 A  
HETATM   15  C   UNL     1     -11.543  12.599  70.073  1.00  0.00    -0.123 A  
HETATM   16  F   UNL     1     -10.598  12.280  69.175  1.00  0.00    -0.216 F  
HETATM   17  C   UNL     1     -11.806  13.942  70.350  1.00  0.00    -0.265 A  
HETATM   18  C   UNL     1     -13.456  13.252  71.981  1.00  0.00    -0.596 A  
HETATM   19  C   UNL     1     -12.782  14.268  71.295  1.00  0.00    -0.427 A  
BRANCH  17  20
HETATM   20  N   UNL     1     -11.066  14.942  69.680  1.00  0.00    -0.267 N  
HETATM   21  H   UNL     1     -10.213  15.310  70.101  1.00  0.00     0.000 HD 
BRANCH  20  22
HETATM   22  C   UNL     1     -11.495  15.426  68.451  1.00  0.00    -0.355 C  
HETATM   23  O   UNL     1     -11.156  16.503  67.965  1.00  0.00    -0.345 OA 
BRANCH  22  24
HETATM   24  N   UNL     1     -12.367  14.539  67.849  1.00  0.00    -0.599 N  
HETATM   25  H   UNL     1     -13.282  14.380  68.268  1.00  0.00     0.000 HD 
BRANCH  24  26
HETATM   26  C   UNL     1     -12.022  13.847  66.671  1.00  0.00    -0.442 A  
HETATM   27  C   UNL     1     -12.597  14.253  65.471  1.00  0.00    -0.429 A  
HETATM   28  C   UNL     1     -12.276  13.584  64.290  1.00  0.00    -0.450 A  
HETATM   29  C   UNL     1     -11.437  12.462  64.306  1.00  0.00    -0.363 A  
HETATM   30 CL   UNL     1     -11.146  11.715  62.778  1.00  0.00     0.221 Cl 
HETATM   31  C   UNL     1     -10.892  12.005  65.510  1.00  0.00    -0.336 A  
HETATM   32  C   UNL     1     -11.167  12.739  66.689  1.00  0.00    -0.344 A  
HETATM   33  C   UNL     1     -10.058  10.754  65.642  1.00  0.00    -0.267 C  
HETATM   34  F   UNL     1      -8.808  11.012  66.118  1.00  0.00    -0.165 F  
HETATM   35  F   UNL     1     -10.613   9.878  66.533  1.00  0.00    -0.289 F  
HETATM   36  F   UNL     1      -9.874  10.028  64.508  1.00  0.00    -0.354 F  
ENDBRANCH  24  26
ENDBRANCH  22  24
ENDBRANCH  20  22
ENDBRANCH  17  20
ENDBRANCH  12  13
ENDBRANCH   8  12
ENDBRANCH   3   6
TORSDOF 7
ENDMDL
MODEL      136
REMARK 921   NORMALIZED FREE ENERGY PREDICTED BY IDOCK:   -5.56 KCAL/MOL
REMARK 922        TOTAL FREE ENERGY PREDICTED BY IDOCK:   -9.82 KCAL/MOL
REMARK 923 INTER-LIGAND FREE ENERGY PREDICTED BY IDOCK:   -8.49 KCAL/MOL
REMARK 924 INTRA-LIGAND FREE ENERGY PREDICTED BY IDOCK:   -1.33 KCAL/MOL
REMARK 927      BINDING AFFINITY PREDICTED BY RF-SCORE:    0.00 PKD
ROOT
HETATM    1  C   UNL     1      -9.361  15.867  69.091  1.00  0.00    -0.252 C  
HETATM    2  N   UNL     1     -10.068  14.809  69.758  1.00  0.00    -0.443 N  
HETATM    3  C   UNL     1     -11.339  14.444  69.368  1.00  0.00    -0.281 C  
HETATM    4  H   UNL     1      -9.622  14.319  70.534  1.00  0.00     0.000 HD 
HETATM    5  O   UNL     1     -11.926  14.945  68.415  1.00  0.00    -0.299 OA 
ENDROOT
BRANCH   3   6
HETATM    6  C   UNL     1     -11.979  13.378  70.202  1.00  0.00    -0.326 A  
HETATM    7  C   UNL     1     -11.889  12.059  69.780  1.00  0.00    -0.401 A  
HETATM    8  C   UNL     1     -12.452  11.078  70.585  1.00  0.00    -0.373 A  
HETATM    9  C   UNL     1     -13.134  11.446  71.740  1.00  0.00    -0.523 A  
HETATM   10  N   UNL     1     -12.619  13.773  71.338  1.00  0.00    -0.358 NA 
HETATM   11  C   UNL     1     -13.187  12.792  72.073  1.00  0.00    -0.436 A  
BRANCH   8  12
HETATM   12  O   UNL     1     -12.448   9.739  70.269  1.00  0.00    -0.057 OA 
BRANCH  12  13
HETATM   13  C   UNL     1     -11.730   8.858  71.049  1.00  0.00    -0.289 A  
HETATM   14  C   UNL     1     -12.362   7.652  71.361  1.00  0.00    -0.358 A  
HETATM   15  C   UNL     1     -11.722   6.735  72.189  1.00  0.00    -0.297 A  
HETATM   16  F   UNL     1     -12.340   5.585  72.497  1.00  0.00    -0.307 F  
HETATM   17  C   UNL     1     -10.482   7.026  72.762  1.00  0.00    -0.238 A  
HETATM   18  C   UNL     1     -10.476   9.148  71.599  1.00  0.00    -0.403 A  
HETATM   19  C   UNL     1      -9.849   8.230  72.449  1.00  0.00    -0.375 A  
BRANCH  17  20
HETATM   20  N   UNL     1      -9.904   6.101  73.661  1.00  0.00    -0.170 N  
HETATM   21  H   UNL     1      -9.714   6.379  74.624  1.00  0.00     0.000 HD 
BRANCH  20  22
HETATM   22  C   UNL     1      -9.593   4.815  73.239  1.00  0.00    -0.129 C  
HETATM   23  O   UNL     1     -10.128   3.791  73.660  1.00  0.00    -0.118 OA 
BRANCH  22  24
HETATM   24  N   UNL     1      -8.591   4.836  72.288  1.00  0.00    -0.119 N  
HETATM   25  H   UNL     1      -7.661   5.157  72.554  1.00  0.00     0.000 HD 
BRANCH  24  26
HETATM   26  C   UNL     1      -8.823   4.428  70.960  1.00  0.00    -0.106 A  
HETATM   27  C   UNL     1      -8.363   3.177  70.560  1.00  0.00    -0.085 A  
HETATM   28  C   UNL     1      -8.575   2.749  69.251  1.00  0.00    -0.114 A  
HETATM   29  C   UNL     1      -9.183   3.590  68.309  1.00  0.00    -0.170 A  
HETATM   30 CL   UNL     1      -9.360   2.944  66.720  1.00  0.00    -0.140 Cl 
HETATM   31  C   UNL     1      -9.606   4.872  68.677  1.00  0.00    -0.215 A  
HETATM   32  C   UNL     1      -9.450   5.265  70.029  1.00  0.00    -0.216 A  
HETATM   33  C   UNL     1     -10.182   5.883  67.716  1.00  0.00    -0.182 C  
HETATM   34  F   UNL     1     -11.447   6.256  68.054  1.00  0.00    -0.397 F  
HETATM   35  F   UNL     1      -9.450   7.038  67.711  1.00  0.00    -0.126 F  
HETATM   36  F   UNL     1     -10.249   5.507  66.411  1.00  0.00    -0.187 F  
ENDBRANCH  24  26
ENDBRANCH  22  24
ENDBRANCH  20  22
ENDBRANCH  17  20
ENDBRANCH  12  13
ENDBRANCH   8  12
ENDBRANCH   3   6
TORSDOF 7
ENDMDL
MODEL      137
REMARK 921   NORMALIZED FREE ENERGY PREDICTED BY IDOCK:   -5.55 KCAL/MOL
REMARK 922        TOTAL FREE ENERGY PREDICTED BY IDOCK:   -9.81 KCAL/MOL
REMARK 923 INTER-LIGAND FREE ENERGY PREDICTED BY IDOCK:   -9.25 KCAL/MOL
REMARK 924 INTRA-LIGAND FREE ENERGY PREDICTED BY IDOCK:   -0.56 KCAL/MOL
REMARK 927      BINDING AFFINITY PREDICTED BY RF-SCORE:    0.00 PKD
ROOT
HETATM    1  C   UNL     1      -6.512  12.378  67.240  1.00  0.00    -0.140 C  
HETATM    2  N   UNL     1      -7.549  13.368  67.325  1.00  0.00    -0.339 N  
HETATM    3  C   UNL     1      -7.248  14.710  67.422  1.00  0.00    -0.154 C  
HETATM    4  H   UNL     1      -8.526  13.074  67.314  1.00  0.00     0.000 HD 
HETATM    5  O   UNL     1      -6.104  15.152  67.390  1.00  0.00    -0.325 OA 
ENDROOT
BRANCH   3   6
HETATM    6  C   UNL     1      -8.428  15.618  67.579  1.00  0.00    -0.167 A  
HETATM    7  C   UNL     1      -9.648  15.066  67.943  1.00  0.00    -0.203 A  
HETATM    8  C   UNL     1     -10.723  15.926  68.125  1.00  0.00    -0.302 A  
HETATM    9  C   UNL     1     -10.563  17.286  67.878  1.00  0.00    -0.384 A  
HETATM   10  N   UNL     1      -8.229  16.946  67.351  1.00  0.00    -0.179 NA 
HETATM   11  C   UNL     1      -9.309  17.744  67.501  1.00  0.00    -0.245 A  
BRANCH   8  12
HETATM   12  O   UNL     1     -11.987  15.503  68.466  1.00  0.00    -0.319 OA 
BRANCH  12  13
HETATM   13  C   UNL     1     -12.160  14.249  69.012  1.00  0.00    -0.285 A  
HETATM   14  C   UNL     1     -12.596  14.207  70.337  1.00  0.00    -0.397 A  
HETATM   15  C   UNL     1     -12.742  12.978  70.974  1.00  0.00    -0.262 A  
HETATM   16  F   UNL     1     -13.147  12.945  72.253  1.00  0.00    -0.494 F  
HETATM   17  C   UNL     1     -12.403  11.788  70.327  1.00  0.00    -0.240 A  
HETATM   18  C   UNL     1     -11.841  13.059  68.346  1.00  0.00    -0.370 A  
HETATM   19  C   UNL     1     -11.969  11.829  69.000  1.00  0.00    -0.341 A  
BRANCH  17  20
HETATM   20  N   UNL     1     -12.490  10.568  71.036  1.00  0.00    -0.362 N  
HETATM   21  H   UNL     1     -13.289  10.391  71.647  1.00  0.00     0.000 HD 
BRANCH  20  22
HETATM   22  C   UNL     1     -11.495   9.609  70.906  1.00  0.00    -0.353 C  
HETATM   23  O   UNL     1     -10.347   9.729  71.327  1.00  0.00    -0.201 OA 
BRANCH  22  24
HETATM   24  N   UNL     1     -11.964   8.501  70.226  1.00  0.00    -0.421 N  
HETATM   25  H   UNL     1     -12.787   8.595  69.632  1.00  0.00     0.000 HD 
BRANCH  24  26
HETATM   26  C   UNL     1     -11.334   7.246  70.334  1.00  0.00    -0.271 A  
HETATM   27  C   UNL     1     -10.795   6.672  69.187  1.00  0.00    -0.329 A  
HETATM   28  C   UNL     1     -10.169   5.429  69.264  1.00  0.00    -0.315 A  
HETATM   29  C   UNL     1     -10.138   4.714  70.469  1.00  0.00    -0.192 A  
HETATM   30 CL   UNL     1      -9.356   3.178  70.417  1.00  0.00    -0.221 Cl 
HETATM   31  C   UNL     1     -10.722   5.249  71.623  1.00  0.00    -0.227 A  
HETATM   32  C   UNL     1     -11.288   6.545  71.545  1.00  0.00    -0.339 A  
HETATM   33  C   UNL     1     -10.823   4.517  72.938  1.00  0.00    -0.199 C  
HETATM   34  F   UNL     1     -10.181   5.171  73.946  1.00  0.00    -0.161 F  
HETATM   35  F   UNL     1     -12.124   4.406  73.347  1.00  0.00    -0.329 F  
HETATM   36  F   UNL     1     -10.340   3.247  72.963  1.00  0.00    -0.188 F  
ENDBRANCH  24  26
ENDBRANCH  22  24
ENDBRANCH  20  22
ENDBRANCH  17  20
ENDBRANCH  12  13
ENDBRANCH   8  12
ENDBRANCH   3   6
TORSDOF 7
ENDMDL
MODEL      138
REMARK 921   NORMALIZED FREE ENERGY PREDICTED BY IDOCK:   -5.55 KCAL/MOL
REMARK 922        TOTAL FREE ENERGY PREDICTED BY IDOCK:   -9.81 KCAL/MOL
REMARK 923 INTER-LIGAND FREE ENERGY PREDICTED BY IDOCK:   -9.30 KCAL/MOL
REMARK 924 INTRA-LIGAND FREE ENERGY PREDICTED BY IDOCK:   -0.51 KCAL/MOL
REMARK 927      BINDING AFFINITY PREDICTED BY RF-SCORE:    0.00 PKD
ROOT
HETATM    1  C   UNL     1      -8.810   6.574  66.580  1.00  0.00    -0.132 C  
HETATM    2  N   UNL     1      -9.278   7.674  65.783  1.00  0.00    -0.393 N  
HETATM    3  C   UNL     1      -8.404   8.440  65.042  1.00  0.00    -0.158 C  
HETATM    4  H   UNL     1     -10.274   7.891  65.764  1.00  0.00     0.000 HD 
HETATM    5  O   UNL     1      -7.200   8.215  64.967  1.00  0.00    -0.072 OA 
ENDROOT
BRANCH   3   6
HETATM    6  C   UNL     1      -9.024   9.596  64.321  1.00  0.00    -0.229 A  
HETATM    7  C   UNL     1     -10.096  10.250  64.911  1.00  0.00    -0.346 A  
HETATM    8  C   UNL     1     -10.635  11.346  64.250  1.00  0.00    -0.355 A  
HETATM    9  C   UNL     1     -10.132  11.711  63.004  1.00  0.00    -0.311 A  
HETATM   10  N   UNL     1      -8.493   9.939  63.115  1.00  0.00    -0.161 NA 
HETATM   11  C   UNL     1      -9.069  10.987  62.486  1.00  0.00    -0.323 A  
BRANCH   8  12
HETATM   12  O   UNL     1     -11.709  12.066  64.719  1.00  0.00    -0.333 OA 
BRANCH  12  13
HETATM   13  C   UNL     1     -11.703  12.528  66.018  1.00  0.00    -0.417 A  
HETATM   14  C   UNL     1     -11.416  11.586  67.007  1.00  0.00    -0.290 A  
HETATM   15  C   UNL     1     -11.444  11.966  68.346  1.00  0.00    -0.299 A  
HETATM   16  F   UNL     1     -11.181  11.053  69.293  1.00  0.00    -0.212 F  
HETATM   17  C   UNL     1     -11.814  13.259  68.720  1.00  0.00    -0.334 A  
HETATM   18  C   UNL     1     -12.051  13.835  66.381  1.00  0.00    -0.483 A  
HETATM   19  C   UNL     1     -12.099  14.203  67.730  1.00  0.00    -0.321 A  
BRANCH  17  20
HETATM   20  N   UNL     1     -11.907  13.581  70.093  1.00  0.00    -0.451 N  
HETATM   21  H   UNL     1     -12.053  12.840  70.779  1.00  0.00     0.000 HD 
BRANCH  20  22
HETATM   22  C   UNL     1     -11.802  14.900  70.512  1.00  0.00    -0.303 C  
HETATM   23  O   UNL     1     -12.755  15.638  70.752  1.00  0.00    -0.458 OA 
BRANCH  22  24
HETATM   24  N   UNL     1     -10.477  15.280  70.615  1.00  0.00    -0.486 N  
HETATM   25  H   UNL     1      -9.943  15.004  71.439  1.00  0.00     0.000 HD 
BRANCH  24  26
HETATM   26  C   UNL     1      -9.845  16.039  69.611  1.00  0.00    -0.196 A  
HETATM   27  C   UNL     1     -10.567  17.055  68.992  1.00  0.00    -0.314 A  
HETATM   28  C   UNL     1      -9.967  17.820  67.993  1.00  0.00    -0.333 A  
HETATM   29  C   UNL     1      -8.668  17.533  67.552  1.00  0.00    -0.225 A  
HETATM   30 CL   UNL     1      -8.058  18.541  66.291  1.00  0.00    -0.283 Cl 
HETATM   31  C   UNL     1      -7.943  16.482  68.124  1.00  0.00    -0.163 A  
HETATM   32  C   UNL     1      -8.539  15.762  69.188  1.00  0.00    -0.256 A  
HETATM   33  C   UNL     1      -6.581  16.037  67.653  1.00  0.00    -0.162 C  
HETATM   34  F   UNL     1      -5.637  16.137  68.630  1.00  0.00    -0.100 F  
HETATM   35  F   UNL     1      -6.586  14.720  67.286  1.00  0.00    -0.198 F  
HETATM   36  F   UNL     1      -6.066  16.696  66.581  1.00  0.00    -0.204 F  
ENDBRANCH  24  26
ENDBRANCH  22  24
ENDBRANCH  20  22
ENDBRANCH  17  20
ENDBRANCH  12  13
ENDBRANCH   8  12
ENDBRANCH   3   6
TORSDOF 7
ENDMDL
MODEL      139
REMARK 921   NORMALIZED FREE ENERGY PREDICTED BY IDOCK:   -5.54 KCAL/MOL
REMARK 922        TOTAL FREE ENERGY PREDICTED BY IDOCK:   -9.80 KCAL/MOL
REMARK 923 INTER-LIGAND FREE ENERGY PREDICTED BY IDOCK:   -8.24 KCAL/MOL
REMARK 924 INTRA-LIGAND FREE ENERGY PREDICTED BY IDOCK:   -1.56 KCAL/MOL
REMARK 927      BINDING AFFINITY PREDICTED BY RF-SCORE:    0.00 PKD
ROOT
HETATM    1  C   UNL     1      -9.265   6.851  73.581  1.00  0.00    -0.162 C  
HETATM    2  N   UNL     1      -8.917   7.429  72.312  1.00  0.00    -0.126 N  
HETATM    3  C   UNL     1      -8.035   8.485  72.227  1.00  0.00    -0.074 C  
HETATM    4  H   UNL     1      -9.330   7.052  71.459  1.00  0.00     0.000 HD 
HETATM    5  O   UNL     1      -7.454   8.963  73.196  1.00  0.00    -0.360 OA 
ENDROOT
BRANCH   3   6
HETATM    6  C   UNL     1      -7.826   9.031  70.849  1.00  0.00    -0.146 A  
HETATM    7  C   UNL     1      -8.584   8.515  69.807  1.00  0.00    -0.131 A  
HETATM    8  C   UNL     1      -8.408   9.060  68.542  1.00  0.00    -0.124 A  
HETATM    9  C   UNL     1      -7.447  10.047  68.348  1.00  0.00    -0.082 A  
HETATM   10  N   UNL     1      -6.892  10.011  70.699  1.00  0.00    -0.292 NA 
HETATM   11  C   UNL     1      -6.725  10.488  69.447  1.00  0.00    -0.076 A  
BRANCH   8  12
HETATM   12  O   UNL     1      -9.083   8.625  67.425  1.00  0.00    -0.132 OA 
BRANCH  12  13
HETATM   13  C   UNL     1      -9.743   9.537  66.630  1.00  0.00    -0.211 A  
HETATM   14  C   UNL     1      -9.449   9.494  65.265  1.00  0.00    -0.326 A  
HETATM   15  C   UNL     1     -10.035  10.419  64.407  1.00  0.00    -0.318 A  
HETATM   16  F   UNL     1      -9.738  10.382  63.099  1.00  0.00    -0.309 F  
HETATM   17  C   UNL     1     -10.867  11.429  64.895  1.00  0.00    -0.257 A  
HETATM   18  C   UNL     1     -10.595  10.531  67.127  1.00  0.00    -0.319 A  
HETATM   19  C   UNL     1     -11.163  11.471  66.260  1.00  0.00    -0.286 A  
BRANCH  17  20
HETATM   20  N   UNL     1     -11.377  12.396  64.000  1.00  0.00    -0.365 N  
HETATM   21  H   UNL     1     -11.388  12.206  62.998  1.00  0.00     0.000 HD 
BRANCH  20  22
HETATM   22  C   UNL     1     -11.864  13.605  64.479  1.00  0.00    -0.412 C  
HETATM   23  O   UNL     1     -12.947  13.751  65.042  1.00  0.00    -0.732 OA 
BRANCH  22  24
HETATM   24  N   UNL     1     -10.972  14.630  64.228  1.00  0.00    -0.570 N  
HETATM   25  H   UNL     1     -10.825  14.936  63.267  1.00  0.00     0.000 HD 
BRANCH  24  26
HETATM   26  C   UNL     1     -10.260  15.262  65.266  1.00  0.00    -0.364 A  
HETATM   27  C   UNL     1     -10.369  16.643  65.401  1.00  0.00    -0.214 A  
HETATM   28  C   UNL     1      -9.672  17.294  66.418  1.00  0.00    -0.303 A  
HETATM   29  C   UNL     1      -8.807  16.588  67.263  1.00  0.00    -0.192 A  
HETATM   30 CL   UNL     1      -7.988  17.522  68.460  1.00  0.00    -0.264 Cl 
HETATM   31  C   UNL     1      -8.642  15.207  67.110  1.00  0.00    -0.247 A  
HETATM   32  C   UNL     1      -9.412  14.548  66.121  1.00  0.00    -0.290 A  
HETATM   33  C   UNL     1      -7.665  14.377  67.906  1.00  0.00    -0.146 C  
HETATM   34  F   UNL     1      -8.282  13.400  68.627  1.00  0.00    -0.148 F  
HETATM   35  F   UNL     1      -6.785  13.724  67.088  1.00  0.00    -0.166 F  
HETATM   36  F   UNL     1      -6.884  15.047  68.794  1.00  0.00    -0.094 F  
ENDBRANCH  24  26
ENDBRANCH  22  24
ENDBRANCH  20  22
ENDBRANCH  17  20
ENDBRANCH  12  13
ENDBRANCH   8  12
ENDBRANCH   3   6
TORSDOF 7
ENDMDL
MODEL      140
REMARK 921   NORMALIZED FREE ENERGY PREDICTED BY IDOCK:   -5.54 KCAL/MOL
REMARK 922        TOTAL FREE ENERGY PREDICTED BY IDOCK:   -9.79 KCAL/MOL
REMARK 923 INTER-LIGAND FREE ENERGY PREDICTED BY IDOCK:   -8.43 KCAL/MOL
REMARK 924 INTRA-LIGAND FREE ENERGY PREDICTED BY IDOCK:   -1.37 KCAL/MOL
REMARK 927      BINDING AFFINITY PREDICTED BY RF-SCORE:    0.00 PKD
ROOT
HETATM    1  C   UNL     1      -8.460   4.309  65.670  1.00  0.00    -0.114 C  
HETATM    2  N   UNL     1      -8.596   5.593  66.302  1.00  0.00    -0.123 N  
HETATM    3  C   UNL     1      -7.553   6.155  67.006  1.00  0.00    -0.095 C  
HETATM    4  H   UNL     1      -9.479   6.097  66.227  1.00  0.00     0.000 HD 
HETATM    5  O   UNL     1      -6.443   5.641  67.101  1.00  0.00    -0.041 OA 
ENDROOT
BRANCH   3   6
HETATM    6  C   UNL     1      -7.864   7.460  67.671  1.00  0.00    -0.113 A  
HETATM    7  C   UNL     1      -9.187   7.874  67.737  1.00  0.00    -0.144 A  
HETATM    8  C   UNL     1      -9.464   9.066  68.393  1.00  0.00    -0.146 A  
HETATM    9  C   UNL     1      -8.417   9.828  68.902  1.00  0.00    -0.129 A  
HETATM   10  N   UNL     1      -6.817   8.169  68.177  1.00  0.00    -0.074 NA 
HETATM   11  C   UNL     1      -7.125   9.341  68.774  1.00  0.00    -0.073 A  
BRANCH   8  12
HETATM   12  O   UNL     1     -10.729   9.595  68.509  1.00  0.00    -0.219 OA 
BRANCH  12  13
HETATM   13  C   UNL     1     -11.038  10.769  67.856  1.00  0.00    -0.308 A  
HETATM   14  C   UNL     1     -11.389  11.852  68.665  1.00  0.00    -0.331 A  
HETATM   15  C   UNL     1     -11.765  13.055  68.077  1.00  0.00    -0.355 A  
HETATM   16  F   UNL     1     -12.115  14.088  68.859  1.00  0.00    -0.352 F  
HETATM   17  C   UNL     1     -11.855  13.181  66.689  1.00  0.00    -0.391 A  
HETATM   18  C   UNL     1     -11.101  10.893  66.463  1.00  0.00    -0.119 A  
HETATM   19  C   UNL     1     -11.502  12.099  65.879  1.00  0.00    -0.418 A  
BRANCH  17  20
HETATM   20  N   UNL     1     -12.318  14.396  66.134  1.00  0.00    -0.369 N  
HETATM   21  H   UNL     1     -12.986  14.969  66.652  1.00  0.00     0.000 HD 
BRANCH  20  22
HETATM   22  C   UNL     1     -11.870  14.814  64.888  1.00  0.00    -0.377 C  
HETATM   23  O   UNL     1     -12.564  14.869  63.877  1.00  0.00    -0.831 OA 
BRANCH  22  24
HETATM   24  N   UNL     1     -10.530  15.150  64.934  1.00  0.00    -0.486 N  
HETATM   25  H   UNL     1      -9.875  14.665  64.321  1.00  0.00     0.000 HD 
BRANCH  24  26
HETATM   26  C   UNL     1     -10.046  16.144  65.806  1.00  0.00    -0.363 A  
HETATM   27  C   UNL     1     -10.454  17.459  65.607  1.00  0.00    -0.173 A  
HETATM   28  C   UNL     1      -9.987  18.463  66.453  1.00  0.00    -0.399 A  
HETATM   29  C   UNL     1      -9.055  18.179  67.460  1.00  0.00    -0.254 A  
HETATM   30 CL   UNL     1      -8.543  19.520  68.417  1.00  0.00    -0.388 Cl 
HETATM   31  C   UNL     1      -8.591  16.872  67.644  1.00  0.00    -0.212 A  
HETATM   32  C   UNL     1      -9.130  15.850  66.825  1.00  0.00    -0.275 A  
HETATM   33  C   UNL     1      -7.521  16.484  68.635  1.00  0.00    -0.202 C  
HETATM   34  F   UNL     1      -7.968  15.584  69.555  1.00  0.00    -0.197 F  
HETATM   35  F   UNL     1      -6.465  15.875  68.014  1.00  0.00    -0.104 F  
HETATM   36  F   UNL     1      -6.967  17.496  69.354  1.00  0.00    -0.251 F  
ENDBRANCH  24  26
ENDBRANCH  22  24
ENDBRANCH  20  22
ENDBRANCH  17  20
ENDBRANCH  12  13
ENDBRANCH   8  12
ENDBRANCH   3   6
TORSDOF 7
ENDMDL
MODEL      141
REMARK 921   NORMALIZED FREE ENERGY PREDICTED BY IDOCK:   -5.54 KCAL/MOL
REMARK 922        TOTAL FREE ENERGY PREDICTED BY IDOCK:   -9.79 KCAL/MOL
REMARK 923 INTER-LIGAND FREE ENERGY PREDICTED BY IDOCK:   -8.92 KCAL/MOL
REMARK 924 INTRA-LIGAND FREE ENERGY PREDICTED BY IDOCK:   -0.87 KCAL/MOL
REMARK 927      BINDING AFFINITY PREDICTED BY RF-SCORE:    0.00 PKD
ROOT
HETATM    1  C   UNL     1     -10.892  19.478  65.651  1.00  0.00    -0.256 C  
HETATM    2  N   UNL     1      -9.846  18.998  66.511  1.00  0.00    -0.348 N  
HETATM    3  C   UNL     1      -9.222  19.836  67.410  1.00  0.00    -0.338 C  
HETATM    4  H   UNL     1      -9.560  18.021  66.455  1.00  0.00     0.000 HD 
HETATM    5  O   UNL     1      -9.539  21.009  67.578  1.00  0.00    -0.366 OA 
ENDROOT
BRANCH   3   6
HETATM    6  C   UNL     1      -8.101  19.216  68.186  1.00  0.00    -0.316 A  
HETATM    7  C   UNL     1      -8.188  17.872  68.521  1.00  0.00    -0.300 A  
HETATM    8  C   UNL     1      -7.122  17.302  69.204  1.00  0.00    -0.204 A  
HETATM    9  C   UNL     1      -6.045  18.097  69.582  1.00  0.00    -0.234 A  
HETATM   10  N   UNL     1      -7.053  20.019  68.520  1.00  0.00    -0.299 NA 
HETATM   11  C   UNL     1      -6.054  19.435  69.217  1.00  0.00    -0.275 A  
BRANCH   8  12
HETATM   12  O   UNL     1      -7.094  15.988  69.610  1.00  0.00    -0.200 OA 
BRANCH  12  13
HETATM   13  C   UNL     1      -7.947  15.076  69.024  1.00  0.00    -0.180 A  
HETATM   14  C   UNL     1      -7.355  14.124  68.191  1.00  0.00    -0.130 A  
HETATM   15  C   UNL     1      -8.156  13.205  67.521  1.00  0.00    -0.181 A  
HETATM   16  F   UNL     1      -7.584  12.302  66.711  1.00  0.00    -0.127 F  
HETATM   17  C   UNL     1      -9.548  13.255  67.622  1.00  0.00    -0.213 A  
HETATM   18  C   UNL     1      -9.340  15.120  69.151  1.00  0.00    -0.215 A  
HETATM   19  C   UNL     1     -10.140  14.206  68.456  1.00  0.00    -0.243 A  
BRANCH  17  20
HETATM   20  N   UNL     1     -10.328  12.354  66.862  1.00  0.00    -0.223 N  
HETATM   21  H   UNL     1     -10.255  12.351  65.845  1.00  0.00     0.000 HD 
BRANCH  20  22
HETATM   22  C   UNL     1     -11.194  11.471  67.495  1.00  0.00    -0.298 C  
HETATM   23  O   UNL     1     -12.348  11.736  67.823  1.00  0.00    -0.369 OA 
BRANCH  22  24
HETATM   24  N   UNL     1     -10.580  10.253  67.717  1.00  0.00    -0.230 N  
HETATM   25  H   UNL     1     -10.356   9.657  66.920  1.00  0.00     0.000 HD 
BRANCH  24  26
HETATM   26  C   UNL     1     -10.256   9.813  69.015  1.00  0.00    -0.203 A  
HETATM   27  C   UNL     1      -8.914   9.713  69.367  1.00  0.00    -0.186 A  
HETATM   28  C   UNL     1      -8.565   9.277  70.644  1.00  0.00    -0.270 A  
HETATM   29  C   UNL     1      -9.546   8.870  71.557  1.00  0.00    -0.292 A  
HETATM   30 CL   UNL     1      -8.973   8.329  73.092  1.00  0.00    -0.321 Cl 
HETATM   31  C   UNL     1     -10.900   8.912  71.205  1.00  0.00    -0.360 A  
HETATM   32  C   UNL     1     -11.242   9.427  69.931  1.00  0.00    -0.180 A  
HETATM   33  C   UNL     1     -12.019   8.407  72.081  1.00  0.00    -0.374 C  
HETATM   34  F   UNL     1     -12.912   9.386  72.398  1.00  0.00    -0.435 F  
HETATM   35  F   UNL     1     -12.750   7.441  71.447  1.00  0.00    -0.342 F  
HETATM   36  F   UNL     1     -11.656   7.848  73.266  1.00  0.00    -0.414 F  
ENDBRANCH  24  26
ENDBRANCH  22  24
ENDBRANCH  20  22
ENDBRANCH  17  20
ENDBRANCH  12  13
ENDBRANCH   8  12
ENDBRANCH   3   6
TORSDOF 7
ENDMDL
MODEL      142
REMARK 921   NORMALIZED FREE ENERGY PREDICTED BY IDOCK:   -5.52 KCAL/MOL
REMARK 922        TOTAL FREE ENERGY PREDICTED BY IDOCK:   -9.76 KCAL/MOL
REMARK 923 INTER-LIGAND FREE ENERGY PREDICTED BY IDOCK:   -8.91 KCAL/MOL
REMARK 924 INTRA-LIGAND FREE ENERGY PREDICTED BY IDOCK:   -0.85 KCAL/MOL
REMARK 927      BINDING AFFINITY PREDICTED BY RF-SCORE:    0.00 PKD
ROOT
HETATM    1  C   UNL     1     -10.693   4.956  72.337  1.00  0.00    -0.175 C  
HETATM    2  N   UNL     1     -10.038   5.874  71.446  1.00  0.00    -0.192 N  
HETATM    3  C   UNL     1     -10.757   6.618  70.535  1.00  0.00    -0.247 C  
HETATM    4  H   UNL     1      -9.025   5.978  71.488  1.00  0.00     0.000 HD 
HETATM    5  O   UNL     1     -11.981   6.593  70.453  1.00  0.00    -0.396 OA 
ENDROOT
BRANCH   3   6
HETATM    6  C   UNL     1      -9.935   7.475  69.623  1.00  0.00    -0.184 A  
HETATM    7  C   UNL     1     -10.567   8.126  68.573  1.00  0.00    -0.142 A  
HETATM    8  C   UNL     1      -9.799   8.949  67.761  1.00  0.00    -0.166 A  
HETATM    9  C   UNL     1      -8.428   9.046  67.982  1.00  0.00    -0.125 A  
HETATM   10  N   UNL     1      -8.601   7.564  69.883  1.00  0.00    -0.138 NA 
HETATM   11  C   UNL     1      -7.882   8.345  69.047  1.00  0.00    -0.102 A  
BRANCH   8  12
HETATM   12  O   UNL     1     -10.300   9.632  66.677  1.00  0.00    -0.239 OA 
BRANCH  12  13
HETATM   13  C   UNL     1     -10.678  10.951  66.819  1.00  0.00    -0.252 A  
HETATM   14  C   UNL     1     -10.086  11.860  65.940  1.00  0.00    -0.265 A  
HETATM   15  C   UNL     1     -10.376  13.216  66.057  1.00  0.00    -0.287 A  
HETATM   16  F   UNL     1      -9.793  14.088  65.219  1.00  0.00    -0.330 F  
HETATM   17  C   UNL     1     -11.204  13.690  67.077  1.00  0.00    -0.312 A  
HETATM   18  C   UNL     1     -11.529  11.413  67.830  1.00  0.00    -0.353 A  
HETATM   19  C   UNL     1     -11.798  12.780  67.955  1.00  0.00    -0.392 A  
BRANCH  17  20
HETATM   20  N   UNL     1     -11.409  15.082  67.210  1.00  0.00    -0.344 N  
HETATM   21  H   UNL     1     -12.015  15.571  66.551  1.00  0.00     0.000 HD 
BRANCH  20  22
HETATM   22  C   UNL     1     -10.788  15.787  68.233  1.00  0.00    -0.305 C  
HETATM   23  O   UNL     1     -10.098  15.281  69.113  1.00  0.00    -0.218 OA 
BRANCH  22  24
HETATM   24  N   UNL     1     -11.060  17.139  68.135  1.00  0.00    -0.233 N  
HETATM   25  H   UNL     1     -12.011  17.468  68.305  1.00  0.00     0.000 HD 
BRANCH  24  26
HETATM   26  C   UNL     1     -10.059  18.073  67.806  1.00  0.00    -0.353 A  
HETATM   27  C   UNL     1     -10.111  18.692  66.561  1.00  0.00    -0.426 A  
HETATM   28  C   UNL     1      -9.131  19.619  66.209  1.00  0.00    -0.429 A  
HETATM   29  C   UNL     1      -8.053  19.884  67.063  1.00  0.00    -0.309 A  
HETATM   30 CL   UNL     1      -6.899  21.032  66.491  1.00  0.00    -0.284 Cl 
HETATM   31  C   UNL     1      -7.953  19.233  68.297  1.00  0.00    -0.361 A  
HETATM   32  C   UNL     1      -8.994  18.350  68.673  1.00  0.00    -0.308 A  
HETATM   33  C   UNL     1      -6.784  19.379  69.240  1.00  0.00    -0.335 C  
HETATM   34  F   UNL     1      -7.156  19.874  70.453  1.00  0.00    -0.248 F  
HETATM   35  F   UNL     1      -6.203  18.169  69.504  1.00  0.00    -0.221 F  
HETATM   36  F   UNL     1      -5.764  20.172  68.820  1.00  0.00    -0.240 F  
ENDBRANCH  24  26
ENDBRANCH  22  24
ENDBRANCH  20  22
ENDBRANCH  17  20
ENDBRANCH  12  13
ENDBRANCH   8  12
ENDBRANCH   3   6
TORSDOF 7
ENDMDL
MODEL      143
REMARK 921   NORMALIZED FREE ENERGY PREDICTED BY IDOCK:   -5.51 KCAL/MOL
REMARK 922        TOTAL FREE ENERGY PREDICTED BY IDOCK:   -9.75 KCAL/MOL
REMARK 923 INTER-LIGAND FREE ENERGY PREDICTED BY IDOCK:   -8.45 KCAL/MOL
REMARK 924 INTRA-LIGAND FREE ENERGY PREDICTED BY IDOCK:   -1.30 KCAL/MOL
REMARK 927      BINDING AFFINITY PREDICTED BY RF-SCORE:    0.00 PKD
ROOT
HETATM    1  C   UNL     1      -5.638   1.962  72.459  1.00  0.00    -0.004 C  
HETATM    2  N   UNL     1      -6.390   2.381  71.308  1.00  0.00    -0.018 N  
HETATM    3  C   UNL     1      -7.739   2.118  71.204  1.00  0.00    -0.036 C  
HETATM    4  H   UNL     1      -5.918   2.881  70.556  1.00  0.00     0.000 HD 
HETATM    5  O   UNL     1      -8.393   1.569  72.085  1.00  0.00    -0.045 OA 
ENDROOT
BRANCH   3   6
HETATM    6  C   UNL     1      -8.374   2.547  69.918  1.00  0.00    -0.045 A  
HETATM    7  C   UNL     1      -8.587   3.901  69.701  1.00  0.00    -0.107 A  
HETATM    8  C   UNL     1      -9.139   4.286  68.486  1.00  0.00    -0.128 A  
HETATM    9  C   UNL     1      -9.513   3.314  67.563  1.00  0.00    -0.209 A  
HETATM   10  N   UNL     1      -8.707   1.570  69.029  1.00  0.00    -0.058 NA 
HETATM   11  C   UNL     1      -9.276   1.984  67.876  1.00  0.00    -0.185 A  
BRANCH   8  12
HETATM   12  O   UNL     1      -9.418   5.592  68.157  1.00  0.00    -0.107 OA 
BRANCH  12  13
HETATM   13  C   UNL     1     -10.078   6.396  69.063  1.00  0.00    -0.165 A  
HETATM   14  C   UNL     1      -9.441   7.589  69.408  1.00  0.00    -0.155 A  
HETATM   15  C   UNL     1     -10.019   8.427  70.357  1.00  0.00    -0.185 A  
HETATM   16  F   UNL     1      -9.395   9.566  70.695  1.00  0.00    -0.262 F  
HETATM   17  C   UNL     1     -11.197   8.065  71.014  1.00  0.00    -0.266 A  
HETATM   18  C   UNL     1     -11.272   6.036  69.698  1.00  0.00    -0.428 A  
HETATM   19  C   UNL     1     -11.836   6.873  70.667  1.00  0.00    -0.418 A  
BRANCH  17  20
HETATM   20  N   UNL     1     -11.708   8.907  72.028  1.00  0.00    -0.367 N  
HETATM   21  H   UNL     1     -11.125   9.148  72.830  1.00  0.00     0.000 HD 
BRANCH  20  22
HETATM   22  C   UNL     1     -13.000   9.407  71.938  1.00  0.00    -0.417 C  
HETATM   23  O   UNL     1     -13.869   9.261  72.794  1.00  0.00    -0.403 OA 
BRANCH  22  24
HETATM   24  N   UNL     1     -13.184  10.086  70.748  1.00  0.00    -0.591 N  
HETATM   25  H   UNL     1     -13.654   9.615  69.976  1.00  0.00     0.000 HD 
BRANCH  24  26
HETATM   26  C   UNL     1     -12.740  11.411  70.576  1.00  0.00    -0.137 A  
HETATM   27  C   UNL     1     -11.937  11.704  69.478  1.00  0.00    -0.383 A  
HETATM   28  C   UNL     1     -11.480  13.007  69.284  1.00  0.00    -0.348 A  
HETATM   29  C   UNL     1     -11.759  14.013  70.220  1.00  0.00    -0.238 A  
HETATM   30 CL   UNL     1     -11.110  15.572  69.870  1.00  0.00    -0.286 Cl 
HETATM   31  C   UNL     1     -12.519  13.726  71.359  1.00  0.00    -0.404 A  
HETATM   32  C   UNL     1     -13.038  12.417  71.503  1.00  0.00    -0.362 A  
HETATM   33  C   UNL     1     -12.791  14.714  72.467  1.00  0.00    -0.388 C  
HETATM   34  F   UNL     1     -14.122  14.950  72.636  1.00  0.00    -0.507 F  
HETATM   35  F   UNL     1     -12.349  14.243  73.672  1.00  0.00    -0.396 F  
HETATM   36  F   UNL     1     -12.217  15.939  72.339  1.00  0.00    -0.402 F  
ENDBRANCH  24  26
ENDBRANCH  22  24
ENDBRANCH  20  22
ENDBRANCH  17  20
ENDBRANCH  12  13
ENDBRANCH   8  12
ENDBRANCH   3   6
TORSDOF 7
ENDMDL
MODEL      144
REMARK 921   NORMALIZED FREE ENERGY PREDICTED BY IDOCK:   -5.51 KCAL/MOL
REMARK 922        TOTAL FREE ENERGY PREDICTED BY IDOCK:   -9.74 KCAL/MOL
REMARK 923 INTER-LIGAND FREE ENERGY PREDICTED BY IDOCK:   -9.68 KCAL/MOL
REMARK 924 INTRA-LIGAND FREE ENERGY PREDICTED BY IDOCK:   -0.07 KCAL/MOL
REMARK 927      BINDING AFFINITY PREDICTED BY RF-SCORE:    0.00 PKD
ROOT
HETATM    1  C   UNL     1      -9.990  20.168  66.145  1.00  0.00    -0.414 C  
HETATM    2  N   UNL     1      -9.133  19.514  67.095  1.00  0.00    -0.299 N  
HETATM    3  C   UNL     1      -7.987  20.125  67.560  1.00  0.00    -0.317 C  
HETATM    4  H   UNL     1      -9.376  18.583  67.433  1.00  0.00     0.000 HD 
HETATM    5  O   UNL     1      -7.649  21.261  67.246  1.00  0.00    -0.408 OA 
ENDROOT
BRANCH   3   6
HETATM    6  C   UNL     1      -7.155  19.294  68.487  1.00  0.00    -0.304 A  
HETATM    7  C   UNL     1      -7.344  17.919  68.499  1.00  0.00    -0.268 A  
HETATM    8  C   UNL     1      -6.536  17.159  69.335  1.00  0.00    -0.233 A  
HETATM    9  C   UNL     1      -5.620  17.795  70.169  1.00  0.00    -0.242 A  
HETATM   10  N   UNL     1      -6.254  19.947  69.272  1.00  0.00    -0.298 NA 
HETATM   11  C   UNL     1      -5.514  19.176  70.099  1.00  0.00    -0.227 A  
BRANCH   8  12
HETATM   12  O   UNL     1      -6.637  15.792  69.454  1.00  0.00    -0.152 OA 
BRANCH  12  13
HETATM   13  C   UNL     1      -7.427  15.089  68.569  1.00  0.00    -0.119 A  
HETATM   14  C   UNL     1      -7.276  13.701  68.575  1.00  0.00    -0.109 A  
HETATM   15  C   UNL     1      -7.999  12.928  67.673  1.00  0.00    -0.167 A  
HETATM   16  F   UNL     1      -7.839  11.595  67.673  1.00  0.00    -0.113 F  
HETATM   17  C   UNL     1      -8.830  13.521  66.721  1.00  0.00    -0.131 A  
HETATM   18  C   UNL     1      -8.276  15.693  67.635  1.00  0.00    -0.165 A  
HETATM   19  C   UNL     1      -8.984  14.910  66.716  1.00  0.00    -0.295 A  
BRANCH  17  20
HETATM   20  N   UNL     1      -9.485  12.704  65.771  1.00  0.00    -0.450 N  
HETATM   21  H   UNL     1      -8.960  12.314  64.988  1.00  0.00     0.000 HD 
BRANCH  20  22
HETATM   22  C   UNL     1     -10.841  12.430  65.899  1.00  0.00    -0.270 C  
HETATM   23  O   UNL     1     -11.723  12.921  65.199  1.00  0.00    -0.318 OA 
BRANCH  22  24
HETATM   24  N   UNL     1     -11.068  11.536  66.928  1.00  0.00    -0.296 N  
HETATM   25  H   UNL     1     -10.836  10.553  66.791  1.00  0.00     0.000 HD 
BRANCH  24  26
HETATM   26  C   UNL     1     -11.611  11.948  68.160  1.00  0.00    -0.334 A  
HETATM   27  C   UNL     1     -11.678  13.310  68.434  1.00  0.00    -0.389 A  
HETATM   28  C   UNL     1     -12.209  13.746  69.647  1.00  0.00    -0.359 A  
HETATM   29  C   UNL     1     -12.610  12.828  70.627  1.00  0.00    -0.168 A  
HETATM   30 CL   UNL     1     -13.222  13.503  72.091  1.00  0.00    -0.531 Cl 
HETATM   31  C   UNL     1     -12.501  11.453  70.392  1.00  0.00    -0.345 A  
HETATM   32  C   UNL     1     -12.030  11.026  69.127  1.00  0.00    -0.394 A  
HETATM   33  C   UNL     1     -12.817  10.391  71.417  1.00  0.00    -0.452 C  
HETATM   34  F   UNL     1     -13.811   9.555  71.008  1.00  0.00    -0.412 F  
HETATM   35  F   UNL     1     -11.736   9.585  71.647  1.00  0.00    -0.392 F  
HETATM   36  F   UNL     1     -13.193  10.830  72.647  1.00  0.00    -0.305 F  
ENDBRANCH  24  26
ENDBRANCH  22  24
ENDBRANCH  20  22
ENDBRANCH  17  20
ENDBRANCH  12  13
ENDBRANCH   8  12
ENDBRANCH   3   6
TORSDOF 7
ENDMDL
MODEL      145
REMARK 921   NORMALIZED FREE ENERGY PREDICTED BY IDOCK:   -5.50 KCAL/MOL
REMARK 922        TOTAL FREE ENERGY PREDICTED BY IDOCK:   -9.74 KCAL/MOL
REMARK 923 INTER-LIGAND FREE ENERGY PREDICTED BY IDOCK:   -8.92 KCAL/MOL
REMARK 924 INTRA-LIGAND FREE ENERGY PREDICTED BY IDOCK:   -0.81 KCAL/MOL
REMARK 927      BINDING AFFINITY PREDICTED BY RF-SCORE:    0.00 PKD
ROOT
HETATM    1  C   UNL     1      -8.613   4.957  64.383  1.00  0.00    -0.142 C  
HETATM    2  N   UNL     1      -8.859   5.897  65.442  1.00  0.00    -0.304 N  
HETATM    3  C   UNL     1     -10.044   5.884  66.146  1.00  0.00     0.039 C  
HETATM    4  H   UNL     1      -8.144   6.586  65.678  1.00  0.00     0.000 HD 
HETATM    5  O   UNL     1     -10.933   5.059  65.963  1.00  0.00    -0.243 OA 
ENDROOT
BRANCH   3   6
HETATM    6  C   UNL     1     -10.189   6.968  67.169  1.00  0.00    -0.248 A  
HETATM    7  C   UNL     1      -9.619   8.207  66.910  1.00  0.00    -0.269 A  
HETATM    8  C   UNL     1      -9.797   9.214  67.850  1.00  0.00    -0.169 A  
HETATM    9  C   UNL     1     -10.478   8.937  69.031  1.00  0.00    -0.231 A  
HETATM   10  N   UNL     1     -10.880   6.669  68.303  1.00  0.00    -0.254 NA 
HETATM   11  C   UNL     1     -10.999   7.665  69.209  1.00  0.00    -0.014 A  
BRANCH   8  12
HETATM   12  O   UNL     1      -9.267  10.477  67.722  1.00  0.00    -0.144 OA 
BRANCH  12  13
HETATM   13  C   UNL     1     -10.009  11.469  67.117  1.00  0.00    -0.199 A  
HETATM   14  C   UNL     1      -9.719  11.726  65.775  1.00  0.00    -0.260 A  
HETATM   15  C   UNL     1     -10.390  12.750  65.112  1.00  0.00    -0.295 A  
HETATM   16  F   UNL     1     -10.097  13.002  63.827  1.00  0.00    -0.404 F  
HETATM   17  C   UNL     1     -11.306  13.563  65.782  1.00  0.00    -0.305 A  
HETATM   18  C   UNL     1     -10.944  12.263  67.792  1.00  0.00    -0.274 A  
HETATM   19  C   UNL     1     -11.597  13.304  67.124  1.00  0.00    -0.402 A  
BRANCH  17  20
HETATM   20  N   UNL     1     -11.905  14.642  65.093  1.00  0.00    -0.365 N  
HETATM   21  H   UNL     1     -12.760  14.490  64.558  1.00  0.00     0.000 HD 
BRANCH  20  22
HETATM   22  C   UNL     1     -11.334  15.907  65.140  1.00  0.00    -0.118 C  
HETATM   23  O   UNL     1     -11.234  16.667  64.180  1.00  0.00    -1.103 OA 
BRANCH  22  24
HETATM   24  N   UNL     1     -10.881  16.196  66.414  1.00  0.00    -0.200 N  
HETATM   25  H   UNL     1     -11.142  15.581  67.185  1.00  0.00     0.000 HD 
BRANCH  24  26
HETATM   26  C   UNL     1     -10.070  17.317  66.674  1.00  0.00    -0.302 A  
HETATM   27  C   UNL     1     -10.679  18.495  67.093  1.00  0.00    -0.396 A  
HETATM   28  C   UNL     1      -9.899  19.621  67.355  1.00  0.00    -0.489 A  
HETATM   29  C   UNL     1      -8.516  19.604  67.133  1.00  0.00    -0.304 A  
HETATM   30 CL   UNL     1      -7.678  21.073  67.473  1.00  0.00    -0.254 Cl 
HETATM   31  C   UNL     1      -7.890  18.445  66.661  1.00  0.00    -0.269 A  
HETATM   32  C   UNL     1      -8.684  17.288  66.470  1.00  0.00    -0.293 A  
HETATM   33  C   UNL     1      -6.428  18.358  66.302  1.00  0.00    -0.210 C  
HETATM   34  F   UNL     1      -5.765  17.430  67.048  1.00  0.00    -0.128 F  
HETATM   35  F   UNL     1      -6.256  17.969  65.002  1.00  0.00    -0.210 F  
HETATM   36  F   UNL     1      -5.706  19.504  66.421  1.00  0.00    -0.164 F  
ENDBRANCH  24  26
ENDBRANCH  22  24
ENDBRANCH  20  22
ENDBRANCH  17  20
ENDBRANCH  12  13
ENDBRANCH   8  12
ENDBRANCH   3   6
TORSDOF 7
ENDMDL
MODEL      146
REMARK 921   NORMALIZED FREE ENERGY PREDICTED BY IDOCK:   -5.47 KCAL/MOL
REMARK 922        TOTAL FREE ENERGY PREDICTED BY IDOCK:   -9.70 KCAL/MOL
REMARK 923 INTER-LIGAND FREE ENERGY PREDICTED BY IDOCK:   -8.15 KCAL/MOL
REMARK 924 INTRA-LIGAND FREE ENERGY PREDICTED BY IDOCK:   -1.55 KCAL/MOL
REMARK 927      BINDING AFFINITY PREDICTED BY RF-SCORE:    0.00 PKD
ROOT
HETATM    1  C   UNL     1     -10.086   4.583  72.185  1.00  0.00    -0.195 C  
HETATM    2  N   UNL     1     -10.864   5.719  71.775  1.00  0.00    -0.248 N  
HETATM    3  C   UNL     1     -11.051   6.796  72.616  1.00  0.00    -0.265 C  
HETATM    4  H   UNL     1     -11.285   5.730  70.847  1.00  0.00     0.000 HD 
HETATM    5  O   UNL     1     -10.538   6.887  73.726  1.00  0.00    -0.360 OA 
ENDROOT
BRANCH   3   6
HETATM    6  C   UNL     1     -11.945   7.872  72.082  1.00  0.00    -0.332 A  
HETATM    7  C   UNL     1     -11.388   9.103  71.764  1.00  0.00    -0.451 A  
HETATM    8  C   UNL     1     -12.223  10.077  71.232  1.00  0.00    -0.402 A  
HETATM    9  C   UNL     1     -13.582   9.815  71.095  1.00  0.00    -0.233 A  
HETATM   10  N   UNL     1     -13.266   7.574  71.941  1.00  0.00    -0.285 NA 
HETATM   11  C   UNL     1     -14.051   8.561  71.456  1.00  0.00    -0.362 A  
BRANCH   8  12
HETATM   12  O   UNL     1     -11.798  11.342  70.895  1.00  0.00    -0.280 OA 
BRANCH  12  13
HETATM   13  C   UNL     1     -11.132  11.541  69.705  1.00  0.00    -0.143 A  
HETATM   14  C   UNL     1     -11.786  12.329  68.756  1.00  0.00    -0.390 A  
HETATM   15  C   UNL     1     -11.200  12.530  67.509  1.00  0.00    -0.291 A  
HETATM   16  F   UNL     1     -11.840  13.277  66.596  1.00  0.00    -0.349 F  
HETATM   17  C   UNL     1      -9.997  11.909  67.170  1.00  0.00    -0.194 A  
HETATM   18  C   UNL     1      -9.912  10.933  69.384  1.00  0.00    -0.085 A  
HETATM   19  C   UNL     1      -9.341  11.123  68.120  1.00  0.00    -0.176 A  
BRANCH  17  20
HETATM   20  N   UNL     1      -9.477  12.076  65.867  1.00  0.00    -0.312 N  
HETATM   21  H   UNL     1      -8.791  12.809  65.683  1.00  0.00     0.000 HD 
BRANCH  20  22
HETATM   22  C   UNL     1      -9.895  11.247  64.834  1.00  0.00    -0.264 C  
HETATM   23  O   UNL     1     -10.994  11.309  64.288  1.00  0.00    -0.354 OA 
BRANCH  22  24
HETATM   24  N   UNL     1      -8.912  10.332  64.508  1.00  0.00    -0.200 N  
HETATM   25  H   UNL     1      -8.340  10.492  63.679  1.00  0.00     0.000 HD 
BRANCH  24  26
HETATM   26  C   UNL     1      -8.681   9.184  65.290  1.00  0.00    -0.188 A  
HETATM   27  C   UNL     1      -7.462   8.525  65.159  1.00  0.00    -0.091 A  
HETATM   28  C   UNL     1      -7.208   7.385  65.919  1.00  0.00    -0.066 A  
HETATM   29  C   UNL     1      -8.191   6.849  66.762  1.00  0.00    -0.114 A  
HETATM   30 CL   UNL     1      -7.752   5.420  67.623  1.00  0.00    -0.091 Cl 
HETATM   31  C   UNL     1      -9.442   7.466  66.869  1.00  0.00    -0.208 A  
HETATM   32  C   UNL     1      -9.659   8.665  66.147  1.00  0.00    -0.305 A  
HETATM   33  C   UNL     1     -10.593   6.914  67.673  1.00  0.00    -0.261 C  
HETATM   34  F   UNL     1     -10.997   7.769  68.653  1.00  0.00    -0.163 F  
HETATM   35  F   UNL     1     -11.696   6.711  66.890  1.00  0.00    -0.312 F  
HETATM   36  F   UNL     1     -10.382   5.723  68.293  1.00  0.00    -0.176 F  
ENDBRANCH  24  26
ENDBRANCH  22  24
ENDBRANCH  20  22
ENDBRANCH  17  20
ENDBRANCH  12  13
ENDBRANCH   8  12
ENDBRANCH   3   6
TORSDOF 7
ENDMDL
MODEL      147
REMARK 921   NORMALIZED FREE ENERGY PREDICTED BY IDOCK:   -5.46 KCAL/MOL
REMARK 922        TOTAL FREE ENERGY PREDICTED BY IDOCK:   -9.69 KCAL/MOL
REMARK 923 INTER-LIGAND FREE ENERGY PREDICTED BY IDOCK:   -8.34 KCAL/MOL
REMARK 924 INTRA-LIGAND FREE ENERGY PREDICTED BY IDOCK:   -1.35 KCAL/MOL
REMARK 927      BINDING AFFINITY PREDICTED BY RF-SCORE:    0.00 PKD
ROOT
HETATM    1  C   UNL     1     -13.325   9.730  71.844  1.00  0.00    -0.436 C  
HETATM    2  N   UNL     1     -12.482   8.828  71.110  1.00  0.00    -0.441 N  
HETATM    3  C   UNL     1     -11.581   8.009  71.756  1.00  0.00    -0.285 C  
HETATM    4  H   UNL     1     -12.550   8.793  70.093  1.00  0.00     0.000 HD 
HETATM    5  O   UNL     1     -11.471   7.950  72.977  1.00  0.00    -0.383 OA 
ENDROOT
BRANCH   3   6
HETATM    6  C   UNL     1     -10.718   7.178  70.858  1.00  0.00    -0.231 A  
HETATM    7  C   UNL     1      -9.728   7.808  70.118  1.00  0.00    -0.183 A  
HETATM    8  C   UNL     1      -8.909   7.018  69.321  1.00  0.00    -0.139 A  
HETATM    9  C   UNL     1      -9.143   5.649  69.242  1.00  0.00    -0.128 A  
HETATM   10  N   UNL     1     -10.961   5.838  70.822  1.00  0.00    -0.271 NA 
HETATM   11  C   UNL     1     -10.167   5.111  70.006  1.00  0.00    -0.284 A  
BRANCH   8  12
HETATM   12  O   UNL     1      -7.907   7.523  68.525  1.00  0.00    -0.117 OA 
BRANCH  12  13
HETATM   13  C   UNL     1      -8.218   8.422  67.528  1.00  0.00    -0.125 A  
HETATM   14  C   UNL     1      -7.777   9.733  67.719  1.00  0.00    -0.091 A  
HETATM   15  C   UNL     1      -8.099  10.710  66.782  1.00  0.00    -0.131 A  
HETATM   16  F   UNL     1      -7.685  11.971  66.978  1.00  0.00    -0.144 F  
HETATM   17  C   UNL     1      -8.906  10.414  65.682  1.00  0.00    -0.173 A  
HETATM   18  C   UNL     1      -9.007   8.110  66.415  1.00  0.00    -0.207 A  
HETATM   19  C   UNL     1      -9.346   9.102  65.488  1.00  0.00    -0.287 A  
BRANCH  17  20
HETATM   20  N   UNL     1      -9.276  11.453  64.797  1.00  0.00    -0.398 N  
HETATM   21  H   UNL     1      -8.706  11.644  63.973  1.00  0.00     0.000 HD 
BRANCH  20  22
HETATM   22  C   UNL     1     -10.411  12.213  65.044  1.00  0.00    -0.290 C  
HETATM   23  O   UNL     1     -11.413  11.806  65.628  1.00  0.00    -0.290 OA 
BRANCH  22  24
HETATM   24  N   UNL     1     -10.270  13.490  64.535  1.00  0.00    -0.605 N  
HETATM   25  H   UNL     1     -10.090  13.609  63.538  1.00  0.00     0.000 HD 
BRANCH  24  26
HETATM   26  C   UNL     1     -10.367  14.629  65.357  1.00  0.00    -0.383 A  
HETATM   27  C   UNL     1     -10.752  15.834  64.778  1.00  0.00    -0.282 A  
HETATM   28  C   UNL     1     -10.853  16.979  65.568  1.00  0.00    -0.073 A  
HETATM   29  C   UNL     1     -10.503  16.949  66.924  1.00  0.00    -0.271 A  
HETATM   30 CL   UNL     1     -10.650  18.441  67.777  1.00  0.00    -0.433 Cl 
HETATM   31  C   UNL     1     -10.062  15.759  67.514  1.00  0.00    -0.245 A  
HETATM   32  C   UNL     1     -10.035  14.589  66.717  1.00  0.00    -0.267 A  
HETATM   33  C   UNL     1      -9.573  15.648  68.937  1.00  0.00    -0.224 C  
HETATM   34  F   UNL     1     -10.320  14.781  69.676  1.00  0.00    -0.221 F  
HETATM   35  F   UNL     1      -8.296  15.163  68.988  1.00  0.00    -0.156 F  
HETATM   36  F   UNL     1      -9.537  16.801  69.655  1.00  0.00    -0.143 F  
ENDBRANCH  24  26
ENDBRANCH  22  24
ENDBRANCH  20  22
ENDBRANCH  17  20
ENDBRANCH  12  13
ENDBRANCH   8  12
ENDBRANCH   3   6
TORSDOF 7
ENDMDL
MODEL      148
REMARK 921   NORMALIZED FREE ENERGY PREDICTED BY IDOCK:   -5.46 KCAL/MOL
REMARK 922        TOTAL FREE ENERGY PREDICTED BY IDOCK:   -9.68 KCAL/MOL
REMARK 923 INTER-LIGAND FREE ENERGY PREDICTED BY IDOCK:   -8.39 KCAL/MOL
REMARK 924 INTRA-LIGAND FREE ENERGY PREDICTED BY IDOCK:   -1.28 KCAL/MOL
REMARK 927      BINDING AFFINITY PREDICTED BY RF-SCORE:    0.00 PKD
ROOT
HETATM    1  C   UNL     1     -10.777   7.281  70.965  1.00  0.00    -0.231 C  
HETATM    2  N   UNL     1      -9.663   8.018  70.435  1.00  0.00    -0.178 N  
HETATM    3  C   UNL     1      -9.587   8.329  69.094  1.00  0.00    -0.160 C  
HETATM    4  H   UNL     1      -8.916   8.318  71.061  1.00  0.00     0.000 HD 
HETATM    5  O   UNL     1     -10.465   8.053  68.283  1.00  0.00    -0.204 OA 
ENDROOT
BRANCH   3   6
HETATM    6  C   UNL     1      -8.335   9.035  68.674  1.00  0.00    -0.123 A  
HETATM    7  C   UNL     1      -8.080  10.298  69.188  1.00  0.00    -0.138 A  
HETATM    8  C   UNL     1      -6.894  10.922  68.821  1.00  0.00    -0.070 A  
HETATM    9  C   UNL     1      -6.043  10.299  67.914  1.00  0.00    -0.051 A  
HETATM   10  N   UNL     1      -7.515   8.386  67.802  1.00  0.00    -0.096 NA 
HETATM   11  C   UNL     1      -6.391   9.043  67.441  1.00  0.00    -0.060 A  
BRANCH   8  12
HETATM   12  O   UNL     1      -6.534  12.181  69.244  1.00  0.00    -0.096 OA 
BRANCH  12  13
HETATM   13  C   UNL     1      -7.156  13.285  68.701  1.00  0.00    -0.103 A  
HETATM   14  C   UNL     1      -7.004  14.485  69.399  1.00  0.00    -0.151 A  
HETATM   15  C   UNL     1      -7.646  15.632  68.942  1.00  0.00    -0.173 A  
HETATM   16  F   UNL     1      -7.509  16.778  69.624  1.00  0.00    -0.183 F  
HETATM   17  C   UNL     1      -8.489  15.589  67.829  1.00  0.00    -0.152 A  
HETATM   18  C   UNL     1      -7.979  13.238  67.570  1.00  0.00    -0.186 A  
HETATM   19  C   UNL     1      -8.639  14.390  67.129  1.00  0.00    -0.237 A  
BRANCH  17  20
HETATM   20  N   UNL     1      -9.185  16.758  67.445  1.00  0.00    -0.217 N  
HETATM   21  H   UNL     1      -8.901  17.267  66.608  1.00  0.00     0.000 HD 
BRANCH  20  22
HETATM   22  C   UNL     1     -10.254  17.218  68.204  1.00  0.00    -0.343 C  
HETATM   23  O   UNL     1     -10.224  18.211  68.927  1.00  0.00    -0.379 OA 
BRANCH  22  24
HETATM   24  N   UNL     1     -11.357  16.401  68.045  1.00  0.00    -0.235 N  
HETATM   25  H   UNL     1     -11.955  16.527  67.229  1.00  0.00     0.000 HD 
BRANCH  24  26
HETATM   26  C   UNL     1     -11.678  15.400  68.983  1.00  0.00    -0.361 A  
HETATM   27  C   UNL     1     -11.740  14.080  68.550  1.00  0.00    -0.387 A  
HETATM   28  C   UNL     1     -12.058  13.069  69.456  1.00  0.00    -0.289 A  
HETATM   29  C   UNL     1     -12.388  13.373  70.784  1.00  0.00    -0.354 A  
HETATM   30 CL   UNL     1     -12.787  12.030  71.790  1.00  0.00    -0.425 Cl 
HETATM   31  C   UNL     1     -12.383  14.700  71.227  1.00  0.00    -0.407 A  
HETATM   32  C   UNL     1     -11.986  15.707  70.314  1.00  0.00    -0.398 A  
HETATM   33  C   UNL     1     -12.814  15.134  72.606  1.00  0.00    -0.386 C  
HETATM   34  F   UNL     1     -11.815  15.761  73.287  1.00  0.00    -0.503 F  
HETATM   35  F   UNL     1     -13.837  16.040  72.546  1.00  0.00    -0.563 F  
HETATM   36  F   UNL     1     -13.263  14.156  73.436  1.00  0.00    -0.554 F  
ENDBRANCH  24  26
ENDBRANCH  22  24
ENDBRANCH  20  22
ENDBRANCH  17  20
ENDBRANCH  12  13
ENDBRANCH   8  12
ENDBRANCH   3   6
TORSDOF 7
ENDMDL
MODEL      149
REMARK 921   NORMALIZED FREE ENERGY PREDICTED BY IDOCK:   -5.44 KCAL/MOL
REMARK 922        TOTAL FREE ENERGY PREDICTED BY IDOCK:   -9.66 KCAL/MOL
REMARK 923 INTER-LIGAND FREE ENERGY PREDICTED BY IDOCK:   -8.85 KCAL/MOL
REMARK 924 INTRA-LIGAND FREE ENERGY PREDICTED BY IDOCK:   -0.81 KCAL/MOL
REMARK 927      BINDING AFFINITY PREDICTED BY RF-SCORE:    0.00 PKD
ROOT
HETATM    1  C   UNL     1      -8.648  15.993  69.221  1.00  0.00    -0.224 C  
HETATM    2  N   UNL     1      -9.691  15.247  69.870  1.00  0.00    -0.470 N  
HETATM    3  C   UNL     1     -11.016  15.599  69.723  1.00  0.00    -0.304 C  
HETATM    4  H   UNL     1      -9.448  14.443  70.448  1.00  0.00     0.000 HD 
HETATM    5  O   UNL     1     -11.399  16.518  69.006  1.00  0.00    -0.282 OA 
ENDROOT
BRANCH   3   6
HETATM    6  C   UNL     1     -11.985  14.778  70.517  1.00  0.00    -0.312 A  
HETATM    7  C   UNL     1     -11.808  13.402  70.564  1.00  0.00    -0.236 A  
HETATM    8  C   UNL     1     -12.690  12.659  71.338  1.00  0.00    -0.247 A  
HETATM    9  C   UNL     1     -13.745  13.299  71.981  1.00  0.00    -0.519 A  
HETATM   10  N   UNL     1     -12.992  15.440  71.152  1.00  0.00    -0.450 NA 
HETATM   11  C   UNL     1     -13.850  14.676  71.863  1.00  0.00    -0.453 A  
BRANCH   8  12
HETATM   12  O   UNL     1     -12.634  11.289  71.450  1.00  0.00    -0.377 OA 
BRANCH  12  13
HETATM   13  C   UNL     1     -11.777  10.574  70.641  1.00  0.00    -0.357 A  
HETATM   14  C   UNL     1     -12.100  10.534  69.283  1.00  0.00    -0.120 A  
HETATM   15  C   UNL     1     -11.312   9.787  68.412  1.00  0.00     0.092 A  
HETATM   16  F   UNL     1     -11.635   9.741  67.111  1.00  0.00     0.045 F  
HETATM   17  C   UNL     1     -10.238   9.030  68.883  1.00  0.00    -0.208 A  
HETATM   18  C   UNL     1     -10.687   9.837  71.120  1.00  0.00    -0.284 A  
HETATM   19  C   UNL     1      -9.913   9.071  70.241  1.00  0.00    -0.229 A  
BRANCH  17  20
HETATM   20  N   UNL     1      -9.512   8.222  67.977  1.00  0.00    -0.139 N  
HETATM   21  H   UNL     1      -9.299   7.254  68.218  1.00  0.00     0.000 HD 
BRANCH  20  22
HETATM   22  C   UNL     1      -9.090   8.741  66.760  1.00  0.00    -0.146 C  
HETATM   23  O   UNL     1      -9.340   8.248  65.663  1.00  0.00    -0.098 OA 
BRANCH  22  24
HETATM   24  N   UNL     1      -8.337   9.885  66.947  1.00  0.00    -0.124 N  
HETATM   25  H   UNL     1      -7.406   9.806  67.355  1.00  0.00     0.000 HD 
BRANCH  24  26
HETATM   26  C   UNL     1      -8.824  11.158  66.590  1.00  0.00    -0.166 A  
HETATM   27  C   UNL     1      -8.485  12.246  67.387  1.00  0.00    -0.176 A  
HETATM   28  C   UNL     1      -8.956  13.517  67.059  1.00  0.00    -0.237 A  
HETATM   29  C   UNL     1      -9.825  13.703  65.976  1.00  0.00    -0.276 A  
HETATM   30 CL   UNL     1     -10.352  15.322  65.698  1.00  0.00    -0.355 Cl 
HETATM   31  C   UNL     1     -10.221  12.613  65.193  1.00  0.00    -0.300 A  
HETATM   32  C   UNL     1      -9.676  11.341  65.494  1.00  0.00    -0.268 A  
HETATM   33  C   UNL     1     -11.225  12.697  64.070  1.00  0.00    -0.406 C  
HETATM   34  F   UNL     1     -10.696  12.321  62.872  1.00  0.00    -0.377 F  
HETATM   35  F   UNL     1     -12.281  11.853  64.281  1.00  0.00    -0.425 F  
HETATM   36  F   UNL     1     -11.790  13.914  63.852  1.00  0.00    -0.425 F  
ENDBRANCH  24  26
ENDBRANCH  22  24
ENDBRANCH  20  22
ENDBRANCH  17  20
ENDBRANCH  12  13
ENDBRANCH   8  12
ENDBRANCH   3   6
TORSDOF 7
ENDMDL
MODEL      150
REMARK 921   NORMALIZED FREE ENERGY PREDICTED BY IDOCK:   -5.44 KCAL/MOL
REMARK 922        TOTAL FREE ENERGY PREDICTED BY IDOCK:   -9.65 KCAL/MOL
REMARK 923 INTER-LIGAND FREE ENERGY PREDICTED BY IDOCK:   -8.77 KCAL/MOL
REMARK 924 INTRA-LIGAND FREE ENERGY PREDICTED BY IDOCK:   -0.88 KCAL/MOL
REMARK 927      BINDING AFFINITY PREDICTED BY RF-SCORE:    0.00 PKD
ROOT
HETATM    1  C   UNL     1      -8.095   4.122  66.266  1.00  0.00    -0.098 C  
HETATM    2  N   UNL     1      -7.990   5.495  65.857  1.00  0.00    -0.104 N  
HETATM    3  C   UNL     1      -8.167   6.523  66.758  1.00  0.00    -0.110 C  
HETATM    4  H   UNL     1      -7.781   5.713  64.883  1.00  0.00     0.000 HD 
HETATM    5  O   UNL     1      -8.370   6.349  67.954  1.00  0.00    -0.117 OA 
ENDROOT
BRANCH   3   6
HETATM    6  C   UNL     1      -8.102   7.900  66.172  1.00  0.00    -0.109 A  
HETATM    7  C   UNL     1      -9.290   8.544  65.853  1.00  0.00    -0.231 A  
HETATM    8  C   UNL     1      -9.215   9.836  65.350  1.00  0.00    -0.227 A  
HETATM    9  C   UNL     1      -7.969  10.413  65.125  1.00  0.00    -0.134 A  
HETATM   10  N   UNL     1      -6.867   8.443  65.987  1.00  0.00    -0.064 NA 
HETATM   11  C   UNL     1      -6.836   9.686  65.460  1.00  0.00    -0.089 A  
BRANCH   8  12
HETATM   12  O   UNL     1     -10.315  10.572  64.977  1.00  0.00    -0.316 OA 
BRANCH  12  13
HETATM   13  C   UNL     1     -10.824  11.520  65.840  1.00  0.00    -0.260 A  
HETATM   14  C   UNL     1     -11.681  12.469  65.279  1.00  0.00    -0.430 A  
HETATM   15  C   UNL     1     -12.192  13.489  66.076  1.00  0.00    -0.445 A  
HETATM   16  F   UNL     1     -13.003  14.407  65.529  1.00  0.00    -0.477 F  
HETATM   17  C   UNL     1     -11.815  13.614  67.415  1.00  0.00    -0.393 A  
HETATM   18  C   UNL     1     -10.460  11.621  67.188  1.00  0.00    -0.252 A  
HETATM   19  C   UNL     1     -10.960  12.663  67.977  1.00  0.00    -0.266 A  
BRANCH  17  20
HETATM   20  N   UNL     1     -12.294  14.710  68.168  1.00  0.00    -0.592 N  
HETATM   21  H   UNL     1     -13.266  14.728  68.477  1.00  0.00     0.000 HD 
BRANCH  20  22
HETATM   22  C   UNL     1     -11.447  15.763  68.488  1.00  0.00    -0.379 C  
HETATM   23  O   UNL     1     -11.272  16.201  69.622  1.00  0.00    -0.313 OA 
BRANCH  22  24
HETATM   24  N   UNL     1     -10.833  16.263  67.355  1.00  0.00    -0.286 N  
HETATM   25  H   UNL     1     -11.013  15.819  66.455  1.00  0.00     0.000 HD 
BRANCH  24  26
HETATM   26  C   UNL     1      -9.964  17.370  67.412  1.00  0.00    -0.305 A  
HETATM   27  C   UNL     1     -10.440  18.610  66.997  1.00  0.00    -0.453 A  
HETATM   28  C   UNL     1      -9.600  19.722  67.040  1.00  0.00    -0.490 A  
HETATM   29  C   UNL     1      -8.260  19.596  67.427  1.00  0.00    -0.298 A  
HETATM   30 CL   UNL     1      -7.327  21.047  67.409  1.00  0.00    -0.388 Cl 
HETATM   31  C   UNL     1      -7.746  18.348  67.798  1.00  0.00    -0.240 A  
HETATM   32  C   UNL     1      -8.631  17.242  67.820  1.00  0.00    -0.225 A  
HETATM   33  C   UNL     1      -6.298  18.094  68.137  1.00  0.00    -0.190 C  
HETATM   34  F   UNL     1      -6.138  17.625  69.406  1.00  0.00    -0.194 F  
HETATM   35  F   UNL     1      -5.757  17.137  67.324  1.00  0.00    -0.120 F  
HETATM   36  F   UNL     1      -5.457  19.157  68.033  1.00  0.00    -0.176 F  
ENDBRANCH  24  26
ENDBRANCH  22  24
ENDBRANCH  20  22
ENDBRANCH  17  20
ENDBRANCH  12  13
ENDBRANCH   8  12
ENDBRANCH   3   6
TORSDOF 7
ENDMDL
MODEL      151
REMARK 921   NORMALIZED FREE ENERGY PREDICTED BY IDOCK:   -5.44 KCAL/MOL
REMARK 922        TOTAL FREE ENERGY PREDICTED BY IDOCK:   -9.65 KCAL/MOL
REMARK 923 INTER-LIGAND FREE ENERGY PREDICTED BY IDOCK:   -7.80 KCAL/MOL
REMARK 924 INTRA-LIGAND FREE ENERGY PREDICTED BY IDOCK:   -1.85 KCAL/MOL
REMARK 927      BINDING AFFINITY PREDICTED BY RF-SCORE:    0.00 PKD
ROOT
HETATM    1  C   UNL     1     -14.404   8.501  71.469  1.00  0.00    -0.364 C  
HETATM    2  N   UNL     1     -12.973   8.575  71.372  1.00  0.00    -0.448 N  
HETATM    3  C   UNL     1     -12.179   7.494  71.691  1.00  0.00    -0.322 C  
HETATM    4  H   UNL     1     -12.536   9.443  71.062  1.00  0.00     0.000 HD 
HETATM    5  O   UNL     1     -12.624   6.400  72.022  1.00  0.00    -0.310 OA 
ENDROOT
BRANCH   3   6
HETATM    6  C   UNL     1     -10.704   7.742  71.615  1.00  0.00    -0.220 A  
HETATM    7  C   UNL     1      -9.973   7.104  70.623  1.00  0.00    -0.195 A  
HETATM    8  C   UNL     1      -8.614   7.376  70.540  1.00  0.00    -0.139 A  
HETATM    9  C   UNL     1      -8.024   8.219  71.477  1.00  0.00    -0.148 A  
HETATM   10  N   UNL     1     -10.165   8.590  72.534  1.00  0.00    -0.298 NA 
HETATM   11  C   UNL     1      -8.833   8.799  72.443  1.00  0.00     0.021 A  
BRANCH   8  12
HETATM   12  O   UNL     1      -7.776   6.793  69.617  1.00  0.00    -0.105 OA 
BRANCH  12  13
HETATM   13  C   UNL     1      -7.766   7.258  68.319  1.00  0.00    -0.120 A  
HETATM   14  C   UNL     1      -8.434   6.474  67.377  1.00  0.00    -0.119 A  
HETATM   15  C   UNL     1      -8.422   6.850  66.037  1.00  0.00    -0.139 A  
HETATM   16  F   UNL     1      -9.054   6.085  65.134  1.00  0.00    -0.091 F  
HETATM   17  C   UNL     1      -7.702   7.968  65.610  1.00  0.00    -0.094 A  
HETATM   18  C   UNL     1      -7.061   8.395  67.904  1.00  0.00    -0.083 A  
HETATM   19  C   UNL     1      -7.035   8.754  66.552  1.00  0.00    -0.079 A  
BRANCH  17  20
HETATM   20  N   UNL     1      -7.649   8.269  64.230  1.00  0.00    -0.114 N  
HETATM   21  H   UNL     1      -7.293   7.575  63.572  1.00  0.00     0.000 HD 
BRANCH  20  22
HETATM   22  C   UNL     1      -8.080   9.504  63.765  1.00  0.00    -0.152 C  
HETATM   23  O   UNL     1      -7.339  10.408  63.386  1.00  0.00    -0.127 OA 
BRANCH  22  24
HETATM   24  N   UNL     1      -9.460   9.588  63.796  1.00  0.00    -0.431 N  
HETATM   25  H   UNL     1     -10.011   8.866  63.334  1.00  0.00     0.000 HD 
BRANCH  24  26
HETATM   26  C   UNL     1     -10.122  10.646  64.448  1.00  0.00    -0.349 A  
HETATM   27  C   UNL     1     -10.508  11.752  63.696  1.00  0.00    -0.490 A  
HETATM   28  C   UNL     1     -11.163  12.815  64.317  1.00  0.00    -0.409 A  
HETATM   29  C   UNL     1     -11.375  12.818  65.702  1.00  0.00    -0.319 A  
HETATM   30 CL   UNL     1     -12.173  14.207  66.342  1.00  0.00    -0.483 Cl 
HETATM   31  C   UNL     1     -10.947  11.740  66.484  1.00  0.00    -0.342 A  
HETATM   32  C   UNL     1     -10.350  10.635  65.829  1.00  0.00    -0.287 A  
HETATM   33  C   UNL     1     -11.043  11.694  67.989  1.00  0.00    -0.242 C  
HETATM   34  F   UNL     1     -11.806  10.654  68.428  1.00  0.00    -0.360 F  
HETATM   35  F   UNL     1      -9.815  11.510  68.561  1.00  0.00    -0.177 F  
HETATM   36  F   UNL     1     -11.550  12.799  68.597  1.00  0.00    -0.268 F  
ENDBRANCH  24  26
ENDBRANCH  22  24
ENDBRANCH  20  22
ENDBRANCH  17  20
ENDBRANCH  12  13
ENDBRANCH   8  12
ENDBRANCH   3   6
TORSDOF 7
ENDMDL
MODEL      152
REMARK 921   NORMALIZED FREE ENERGY PREDICTED BY IDOCK:   -5.43 KCAL/MOL
REMARK 922        TOTAL FREE ENERGY PREDICTED BY IDOCK:   -9.64 KCAL/MOL
REMARK 923 INTER-LIGAND FREE ENERGY PREDICTED BY IDOCK:   -8.44 KCAL/MOL
REMARK 924 INTRA-LIGAND FREE ENERGY PREDICTED BY IDOCK:   -1.20 KCAL/MOL
REMARK 927      BINDING AFFINITY PREDICTED BY RF-SCORE:    0.00 PKD
ROOT
HETATM    1  C   UNL     1      -8.095   6.805  72.853  1.00  0.00    -0.105 C  
HETATM    2  N   UNL     1      -8.473   6.778  71.467  1.00  0.00    -0.119 N  
HETATM    3  C   UNL     1      -9.447   7.623  70.977  1.00  0.00    -0.159 C  
HETATM    4  H   UNL     1      -8.014   6.123  70.834  1.00  0.00     0.000 HD 
HETATM    5  O   UNL     1     -10.011   8.474  71.656  1.00  0.00    -0.208 OA 
ENDROOT
BRANCH   3   6
HETATM    6  C   UNL     1      -9.788   7.430  69.532  1.00  0.00    -0.165 A  
HETATM    7  C   UNL     1      -9.312   8.349  68.608  1.00  0.00    -0.143 A  
HETATM    8  C   UNL     1      -9.603   8.133  67.267  1.00  0.00    -0.163 A  
HETATM    9  C   UNL     1     -10.404   7.055  66.903  1.00  0.00    -0.338 A  
HETATM   10  N   UNL     1     -10.556   6.352  69.210  1.00  0.00    -0.231 NA 
HETATM   11  C   UNL     1     -10.848   6.199  67.900  1.00  0.00    -0.319 A  
BRANCH   8  12
HETATM   12  O   UNL     1      -9.206   8.979  66.257  1.00  0.00    -0.174 OA 
BRANCH  12  13
HETATM   13  C   UNL     1      -9.987  10.071  65.939  1.00  0.00    -0.269 A  
HETATM   14  C   UNL     1     -10.730  10.623  66.983  1.00  0.00    -0.317 A  
HETATM   15  C   UNL     1     -11.583  11.693  66.727  1.00  0.00    -0.141 A  
HETATM   16  F   UNL     1     -12.306  12.211  67.732  1.00  0.00    -0.254 F  
HETATM   17  C   UNL     1     -11.752  12.186  65.432  1.00  0.00    -0.321 A  
HETATM   18  C   UNL     1     -10.130  10.573  64.640  1.00  0.00    -0.408 A  
HETATM   19  C   UNL     1     -11.006  11.635  64.387  1.00  0.00    -0.399 A  
BRANCH  17  20
HETATM   20  N   UNL     1     -12.687  13.221  65.203  1.00  0.00    -0.666 N  
HETATM   21  H   UNL     1     -13.682  13.002  65.142  1.00  0.00     0.000 HD 
BRANCH  20  22
HETATM   22  C   UNL     1     -12.258  14.534  65.061  1.00  0.00    -0.373 C  
HETATM   23  O   UNL     1     -12.263  15.162  64.005  1.00  0.00    -0.621 OA 
BRANCH  22  24
HETATM   24  N   UNL     1     -11.814  15.040  66.268  1.00  0.00    -0.116 N  
HETATM   25  H   UNL     1     -12.478  15.154  67.033  1.00  0.00     0.000 HD 
BRANCH  24  26
HETATM   26  C   UNL     1     -10.468  15.403  66.468  1.00  0.00    -0.294 A  
HETATM   27  C   UNL     1     -10.048  16.658  66.040  1.00  0.00    -0.359 A  
HETATM   28  C   UNL     1      -8.720  17.042  66.222  1.00  0.00    -0.285 A  
HETATM   29  C   UNL     1      -7.784  16.153  66.766  1.00  0.00    -0.253 A  
HETATM   30 CL   UNL     1      -6.171  16.747  66.911  1.00  0.00    -0.221 Cl 
HETATM   31  C   UNL     1      -8.174  14.866  67.155  1.00  0.00    -0.244 A  
HETATM   32  C   UNL     1      -9.541  14.517  67.031  1.00  0.00    -0.250 A  
HETATM   33  C   UNL     1      -7.224  13.808  67.660  1.00  0.00    -0.173 C  
HETATM   34  F   UNL     1      -7.530  13.398  68.922  1.00  0.00    -0.110 F  
HETATM   35  F   UNL     1      -7.277  12.681  66.888  1.00  0.00    -0.108 F  
HETATM   36  F   UNL     1      -5.907  14.145  67.695  1.00  0.00    -0.137 F  
ENDBRANCH  24  26
ENDBRANCH  22  24
ENDBRANCH  20  22
ENDBRANCH  17  20
ENDBRANCH  12  13
ENDBRANCH   8  12
ENDBRANCH   3   6
TORSDOF 7
ENDMDL
MODEL      153
REMARK 921   NORMALIZED FREE ENERGY PREDICTED BY IDOCK:   -5.43 KCAL/MOL
REMARK 922        TOTAL FREE ENERGY PREDICTED BY IDOCK:   -9.64 KCAL/MOL
REMARK 923 INTER-LIGAND FREE ENERGY PREDICTED BY IDOCK:   -8.17 KCAL/MOL
REMARK 924 INTRA-LIGAND FREE ENERGY PREDICTED BY IDOCK:   -1.47 KCAL/MOL
REMARK 927      BINDING AFFINITY PREDICTED BY RF-SCORE:    0.00 PKD
ROOT
HETATM    1  C   UNL     1      -8.991  15.369  68.657  1.00  0.00    -0.191 C  
HETATM    2  N   UNL     1      -9.839  14.645  69.563  1.00  0.00    -0.428 N  
HETATM    3  C   UNL     1     -11.153  14.372  69.246  1.00  0.00    -0.271 C  
HETATM    4  H   UNL     1      -9.463  14.326  70.456  1.00  0.00     0.000 HD 
HETATM    5  O   UNL     1     -11.668  14.673  68.174  1.00  0.00    -0.317 OA 
ENDROOT
BRANCH   3   6
HETATM    6  C   UNL     1     -11.935  13.677  70.316  1.00  0.00    -0.327 A  
HETATM    7  C   UNL     1     -12.218  12.327  70.162  1.00  0.00    -0.302 A  
HETATM    8  C   UNL     1     -12.909  11.686  71.183  1.00  0.00    -0.294 A  
HETATM    9  C   UNL     1     -13.344  12.420  72.282  1.00  0.00    -0.427 A  
HETATM   10  N   UNL     1     -12.326  14.420  71.388  1.00  0.00    -0.346 NA 
HETATM   11  C   UNL     1     -13.028  13.769  72.341  1.00  0.00    -0.345 A  
BRANCH   8  12
HETATM   12  O   UNL     1     -13.268  10.359  71.142  1.00  0.00    -0.373 OA 
BRANCH  12  13
HETATM   13  C   UNL     1     -12.318   9.390  71.385  1.00  0.00    -0.357 A  
HETATM   14  C   UNL     1     -12.801   8.116  71.692  1.00  0.00    -0.347 A  
HETATM   15  C   UNL     1     -11.903   7.098  72.003  1.00  0.00    -0.295 A  
HETATM   16  F   UNL     1     -12.373   5.879  72.310  1.00  0.00    -0.369 F  
HETATM   17  C   UNL     1     -10.531   7.344  72.071  1.00  0.00    -0.199 A  
HETATM   18  C   UNL     1     -10.942   9.641  71.427  1.00  0.00    -0.354 A  
HETATM   19  C   UNL     1     -10.048   8.618  71.762  1.00  0.00    -0.380 A  
BRANCH  17  20
HETATM   20  N   UNL     1      -9.661   6.303  72.468  1.00  0.00    -0.156 N  
HETATM   21  H   UNL     1      -9.311   6.271  73.426  1.00  0.00     0.000 HD 
BRANCH  20  22
HETATM   22  C   UNL     1      -9.282   5.323  71.561  1.00  0.00    -0.146 C  
HETATM   23  O   UNL     1      -9.927   4.306  71.318  1.00  0.00    -0.186 OA 
BRANCH  22  24
HETATM   24  N   UNL     1      -8.072   5.638  70.971  1.00  0.00    -0.117 N  
HETATM   25  H   UNL     1      -7.221   5.195  71.316  1.00  0.00     0.000 HD 
BRANCH  24  26
HETATM   26  C   UNL     1      -7.985   6.557  69.907  1.00  0.00    -0.116 A  
HETATM   27  C   UNL     1      -7.017   7.554  69.969  1.00  0.00    -0.059 A  
HETATM   28  C   UNL     1      -6.910   8.478  68.931  1.00  0.00    -0.061 A  
HETATM   29  C   UNL     1      -7.812   8.462  67.858  1.00  0.00    -0.107 A  
HETATM   30 CL   UNL     1      -7.582   9.679  66.657  1.00  0.00    -0.097 Cl 
HETATM   31  C   UNL     1      -8.827   7.500  67.804  1.00  0.00    -0.132 A  
HETATM   32  C   UNL     1      -8.876   6.523  68.828  1.00  0.00    -0.125 A  
HETATM   33  C   UNL     1      -9.900   7.460  66.744  1.00  0.00    -0.220 C  
HETATM   34  F   UNL     1      -9.882   6.298  66.033  1.00  0.00    -0.148 F  
HETATM   35  F   UNL     1     -11.148   7.528  67.297  1.00  0.00    -0.340 F  
HETATM   36  F   UNL     1      -9.873   8.454  65.818  1.00  0.00    -0.240 F  
ENDBRANCH  24  26
ENDBRANCH  22  24
ENDBRANCH  20  22
ENDBRANCH  17  20
ENDBRANCH  12  13
ENDBRANCH   8  12
ENDBRANCH   3   6
TORSDOF 7
ENDMDL
MODEL      154
REMARK 921   NORMALIZED FREE ENERGY PREDICTED BY IDOCK:   -5.43 KCAL/MOL
REMARK 922        TOTAL FREE ENERGY PREDICTED BY IDOCK:   -9.64 KCAL/MOL
REMARK 923 INTER-LIGAND FREE ENERGY PREDICTED BY IDOCK:   -8.62 KCAL/MOL
REMARK 924 INTRA-LIGAND FREE ENERGY PREDICTED BY IDOCK:   -1.02 KCAL/MOL
REMARK 927      BINDING AFFINITY PREDICTED BY RF-SCORE:    0.00 PKD
ROOT
HETATM    1  C   UNL     1      -5.151  21.065  69.231  1.00  0.00    -0.324 C  
HETATM    2  N   UNL     1      -6.333  20.339  68.855  1.00  0.00    -0.320 N  
HETATM    3  C   UNL     1      -6.874  20.462  67.593  1.00  0.00    -0.292 C  
HETATM    4  H   UNL     1      -6.779  19.722  69.533  1.00  0.00     0.000 HD 
HETATM    5  O   UNL     1      -6.372  21.140  66.703  1.00  0.00    -0.273 OA 
ENDROOT
BRANCH   3   6
HETATM    6  C   UNL     1      -8.146  19.705  67.369  1.00  0.00    -0.288 A  
HETATM    7  C   UNL     1      -8.121  18.592  66.539  1.00  0.00    -0.301 A  
HETATM    8  C   UNL     1      -9.300  17.877  66.375  1.00  0.00    -0.255 A  
HETATM    9  C   UNL     1     -10.467  18.326  66.986  1.00  0.00    -0.407 A  
HETATM   10  N   UNL     1      -9.264  20.160  68.001  1.00  0.00    -0.271 NA 
HETATM   11  C   UNL     1     -10.398  19.458  67.785  1.00  0.00    -0.434 A  
BRANCH   8  12
HETATM   12  O   UNL     1      -9.412  16.770  65.565  1.00  0.00    -0.490 OA 
BRANCH  12  13
HETATM   13  C   UNL     1      -9.579  15.525  66.133  1.00  0.00    -0.330 A  
HETATM   14  C   UNL     1      -8.602  15.128  67.048  1.00  0.00    -0.265 A  
HETATM   15  C   UNL     1      -8.673  13.863  67.623  1.00  0.00    -0.187 A  
HETATM   16  F   UNL     1      -7.723  13.480  68.490  1.00  0.00    -0.115 F  
HETATM   17  C   UNL     1      -9.674  12.960  67.256  1.00  0.00    -0.220 A  
HETATM   18  C   UNL     1     -10.601  14.637  65.777  1.00  0.00    -0.330 A  
HETATM   19  C   UNL     1     -10.653  13.359  66.343  1.00  0.00    -0.285 A  
BRANCH  17  20
HETATM   20  N   UNL     1      -9.663  11.657  67.804  1.00  0.00    -0.170 N  
HETATM   21  H   UNL     1      -8.808  11.102  67.775  1.00  0.00     0.000 HD 
BRANCH  20  22
HETATM   22  C   UNL     1     -10.811  11.131  68.380  1.00  0.00    -0.205 C  
HETATM   23  O   UNL     1     -11.353  11.571  69.391  1.00  0.00    -0.252 OA 
BRANCH  22  24
HETATM   24  N   UNL     1     -11.261  10.034  67.670  1.00  0.00    -0.432 N  
HETATM   25  H   UNL     1     -12.123  10.112  67.130  1.00  0.00     0.000 HD 
BRANCH  24  26
HETATM   26  C   UNL     1     -10.561   8.812  67.673  1.00  0.00    -0.213 A  
HETATM   27  C   UNL     1      -9.952   8.393  66.494  1.00  0.00    -0.335 A  
HETATM   28  C   UNL     1      -9.254   7.186  66.468  1.00  0.00    -0.199 A  
HETATM   29  C   UNL     1      -9.219   6.353  67.594  1.00  0.00    -0.116 A  
HETATM   30 CL   UNL     1      -8.344   4.877  67.415  1.00  0.00    -0.106 Cl 
HETATM   31  C   UNL     1      -9.871   6.730  68.773  1.00  0.00    -0.143 A  
HETATM   32  C   UNL     1     -10.512   7.993  68.807  1.00  0.00    -0.196 A  
HETATM   33  C   UNL     1      -9.970   5.861  70.003  1.00  0.00    -0.183 C  
HETATM   34  F   UNL     1      -9.401   6.442  71.095  1.00  0.00    -0.156 F  
HETATM   35  F   UNL     1     -11.273   5.635  70.348  1.00  0.00    -0.365 F  
HETATM   36  F   UNL     1      -9.412   4.625  69.916  1.00  0.00    -0.161 F  
ENDBRANCH  24  26
ENDBRANCH  22  24
ENDBRANCH  20  22
ENDBRANCH  17  20
ENDBRANCH  12  13
ENDBRANCH   8  12
ENDBRANCH   3   6
TORSDOF 7
ENDMDL
MODEL      155
REMARK 921   NORMALIZED FREE ENERGY PREDICTED BY IDOCK:   -5.43 KCAL/MOL
REMARK 922        TOTAL FREE ENERGY PREDICTED BY IDOCK:   -9.63 KCAL/MOL
REMARK 923 INTER-LIGAND FREE ENERGY PREDICTED BY IDOCK:   -9.03 KCAL/MOL
REMARK 924 INTRA-LIGAND FREE ENERGY PREDICTED BY IDOCK:   -0.61 KCAL/MOL
REMARK 927      BINDING AFFINITY PREDICTED BY RF-SCORE:    0.00 PKD
ROOT
HETATM    1  C   UNL     1     -12.279  16.236  72.851  1.00  0.00    -0.514 C  
HETATM    2  N   UNL     1     -11.568  16.200  71.603  1.00  0.00    -0.463 N  
HETATM    3  C   UNL     1     -12.062  15.504  70.520  1.00  0.00    -0.386 C  
HETATM    4  H   UNL     1     -10.682  16.699  71.516  1.00  0.00     0.000 HD 
HETATM    5  O   UNL     1     -13.141  14.922  70.523  1.00  0.00    -0.337 OA 
ENDROOT
BRANCH   3   6
HETATM    6  C   UNL     1     -11.177  15.495  69.312  1.00  0.00    -0.310 A  
HETATM    7  C   UNL     1     -10.438  14.353  69.037  1.00  0.00    -0.227 A  
HETATM    8  C   UNL     1      -9.655  14.345  67.891  1.00  0.00    -0.219 A  
HETATM    9  C   UNL     1      -9.586  15.487  67.099  1.00  0.00    -0.228 A  
HETATM   10  N   UNL     1     -11.151  16.622  68.548  1.00  0.00    -0.339 NA 
HETATM   11  C   UNL     1     -10.347  16.587  67.462  1.00  0.00    -0.294 A  
BRANCH   8  12
HETATM   12  O   UNL     1      -8.862  13.284  67.519  1.00  0.00    -0.184 OA 
BRANCH  12  13
HETATM   13  C   UNL     1      -9.442  12.061  67.254  1.00  0.00    -0.181 A  
HETATM   14  C   UNL     1      -9.980  11.383  68.349  1.00  0.00    -0.206 A  
HETATM   15  C   UNL     1     -10.534  10.119  68.170  1.00  0.00    -0.206 A  
HETATM   16  F   UNL     1     -11.037   9.466  69.229  1.00  0.00    -0.237 F  
HETATM   17  C   UNL     1     -10.508   9.492  66.923  1.00  0.00    -0.208 A  
HETATM   18  C   UNL     1      -9.433  11.451  65.994  1.00  0.00    -0.245 A  
HETATM   19  C   UNL     1      -9.972  10.171  65.826  1.00  0.00    -0.339 A  
BRANCH  17  20
HETATM   20  N   UNL     1     -11.010   8.176  66.801  1.00  0.00    -0.241 N  
HETATM   21  H   UNL     1     -11.842   8.000  66.237  1.00  0.00     0.000 HD 
BRANCH  20  22
HETATM   22  C   UNL     1     -10.375   7.122  67.444  1.00  0.00    -0.254 C  
HETATM   23  O   UNL     1      -9.167   6.903  67.404  1.00  0.00    -0.123 OA 
BRANCH  22  24
HETATM   24  N   UNL     1     -11.287   6.342  68.130  1.00  0.00    -0.562 N  
HETATM   25  H   UNL     1     -12.101   5.980  67.635  1.00  0.00     0.000 HD 
BRANCH  24  26
HETATM   26  C   UNL     1     -11.120   6.036  69.495  1.00  0.00    -0.398 A  
HETATM   27  C   UNL     1     -11.909   6.704  70.426  1.00  0.00    -0.407 A  
HETATM   28  C   UNL     1     -11.762   6.422  71.784  1.00  0.00    -0.376 A  
HETATM   29  C   UNL     1     -10.781   5.527  72.230  1.00  0.00    -0.231 A  
HETATM   30 CL   UNL     1     -10.691   5.292  73.937  1.00  0.00    -0.329 Cl 
HETATM   31  C   UNL     1      -9.941   4.885  71.313  1.00  0.00    -0.271 A  
HETATM   32  C   UNL     1     -10.151   5.125  69.934  1.00  0.00    -0.342 A  
HETATM   33  C   UNL     1      -8.796   3.982  71.701  1.00  0.00    -0.108 C  
HETATM   34  F   UNL     1      -8.943   2.720  71.210  1.00  0.00    -0.112 F  
HETATM   35  F   UNL     1      -7.611   4.435  71.192  1.00  0.00    -0.058 F  
HETATM   36  F   UNL     1      -8.570   3.830  73.033  1.00  0.00    -0.089 F  
ENDBRANCH  24  26
ENDBRANCH  22  24
ENDBRANCH  20  22
ENDBRANCH  17  20
ENDBRANCH  12  13
ENDBRANCH   8  12
ENDBRANCH   3   6
TORSDOF 7
ENDMDL
MODEL      156
REMARK 921   NORMALIZED FREE ENERGY PREDICTED BY IDOCK:   -5.40 KCAL/MOL
REMARK 922        TOTAL FREE ENERGY PREDICTED BY IDOCK:   -9.60 KCAL/MOL
REMARK 923 INTER-LIGAND FREE ENERGY PREDICTED BY IDOCK:   -8.37 KCAL/MOL
REMARK 924 INTRA-LIGAND FREE ENERGY PREDICTED BY IDOCK:   -1.24 KCAL/MOL
REMARK 927      BINDING AFFINITY PREDICTED BY RF-SCORE:    0.00 PKD
ROOT
HETATM    1  C   UNL     1      -5.732  13.982  70.707  1.00  0.00    -0.196 C  
HETATM    2  N   UNL     1      -6.947  14.392  70.059  1.00  0.00    -0.382 N  
HETATM    3  C   UNL     1      -7.087  15.664  69.546  1.00  0.00    -0.195 C  
HETATM    4  H   UNL     1      -7.720  13.731  69.976  1.00  0.00     0.000 HD 
HETATM    5  O   UNL     1      -6.191  16.502  69.557  1.00  0.00    -0.184 OA 
ENDROOT
BRANCH   3   6
HETATM    6  C   UNL     1      -8.433  15.973  68.967  1.00  0.00    -0.244 A  
HETATM    7  C   UNL     1      -9.556  15.416  69.561  1.00  0.00    -0.259 A  
HETATM    8  C   UNL     1     -10.800  15.744  69.037  1.00  0.00    -0.248 A  
HETATM    9  C   UNL     1     -10.877  16.558  67.911  1.00  0.00    -0.326 A  
HETATM   10  N   UNL     1      -8.472  16.790  67.878  1.00  0.00    -0.197 NA 
HETATM   11  C   UNL     1      -9.698  17.055  67.376  1.00  0.00    -0.252 A  
BRANCH   8  12
HETATM   12  O   UNL     1     -11.986  15.244  69.522  1.00  0.00    -0.320 OA 
BRANCH  12  13
HETATM   13  C   UNL     1     -12.142  13.881  69.663  1.00  0.00    -0.349 A  
HETATM   14  C   UNL     1     -12.648  13.441  70.888  1.00  0.00    -0.406 A  
HETATM   15  C   UNL     1     -12.783  12.076  71.125  1.00  0.00    -0.266 A  
HETATM   16  F   UNL     1     -13.255  11.659  72.310  1.00  0.00    -0.609 F  
HETATM   17  C   UNL     1     -12.366  11.137  70.180  1.00  0.00    -0.295 A  
HETATM   18  C   UNL     1     -11.745  12.948  68.699  1.00  0.00    -0.359 A  
HETATM   19  C   UNL     1     -11.863  11.577  68.953  1.00  0.00    -0.406 A  
BRANCH  17  20
HETATM   20  N   UNL     1     -12.447   9.761  70.492  1.00  0.00    -0.495 N  
HETATM   21  H   UNL     1     -13.098   9.162  69.984  1.00  0.00     0.000 HD 
BRANCH  20  22
HETATM   22  C   UNL     1     -11.643   9.220  71.487  1.00  0.00    -0.382 C  
HETATM   23  O   UNL     1     -12.057   8.753  72.545  1.00  0.00    -0.347 OA 
BRANCH  22  24
HETATM   24  N   UNL     1     -10.309   9.287  71.133  1.00  0.00    -0.308 N  
HETATM   25  H   UNL     1      -9.779  10.131  71.351  1.00  0.00     0.000 HD 
BRANCH  24  26
HETATM   26  C   UNL     1      -9.662   8.220  70.480  1.00  0.00    -0.171 A  
HETATM   27  C   UNL     1      -9.376   7.071  71.210  1.00  0.00    -0.160 A  
HETATM   28  C   UNL     1      -8.733   6.000  70.589  1.00  0.00    -0.138 A  
HETATM   29  C   UNL     1      -8.306   6.093  69.257  1.00  0.00    -0.116 A  
HETATM   30 CL   UNL     1      -7.500   4.706  68.623  1.00  0.00    -0.064 Cl 
HETATM   31  C   UNL     1      -8.536   7.261  68.522  1.00  0.00    -0.124 A  
HETATM   32  C   UNL     1      -9.255   8.311  69.143  1.00  0.00    -0.151 A  
HETATM   33  C   UNL     1      -8.032   7.492  67.118  1.00  0.00    -0.117 C  
HETATM   34  F   UNL     1      -9.045   7.709  66.233  1.00  0.00    -0.162 F  
HETATM   35  F   UNL     1      -7.244   8.607  67.050  1.00  0.00    -0.072 F  
HETATM   36  F   UNL     1      -7.280   6.499  66.575  1.00  0.00    -0.066 F  
ENDBRANCH  24  26
ENDBRANCH  22  24
ENDBRANCH  20  22
ENDBRANCH  17  20
ENDBRANCH  12  13
ENDBRANCH   8  12
ENDBRANCH   3   6
TORSDOF 7
ENDMDL
MODEL      157
REMARK 921   NORMALIZED FREE ENERGY PREDICTED BY IDOCK:   -5.40 KCAL/MOL
REMARK 922        TOTAL FREE ENERGY PREDICTED BY IDOCK:   -9.59 KCAL/MOL
REMARK 923 INTER-LIGAND FREE ENERGY PREDICTED BY IDOCK:   -8.29 KCAL/MOL
REMARK 924 INTRA-LIGAND FREE ENERGY PREDICTED BY IDOCK:   -1.30 KCAL/MOL
REMARK 927      BINDING AFFINITY PREDICTED BY RF-SCORE:    0.00 PKD
ROOT
HETATM    1  C   UNL     1      -5.860  17.031  68.193  1.00  0.00    -0.123 C  
HETATM    2  N   UNL     1      -7.142  16.563  68.642  1.00  0.00    -0.165 N  
HETATM    3  C   UNL     1      -8.274  16.738  67.876  1.00  0.00    -0.187 C  
HETATM    4  H   UNL     1      -7.216  16.092  69.544  1.00  0.00     0.000 HD 
HETATM    5  O   UNL     1      -8.266  17.246  66.759  1.00  0.00    -0.215 OA 
ENDROOT
BRANCH   3   6
HETATM    6  C   UNL     1      -9.549  16.267  68.505  1.00  0.00    -0.222 A  
HETATM    7  C   UNL     1     -10.231  15.212  67.915  1.00  0.00    -0.232 A  
HETATM    8  C   UNL     1     -11.389  14.759  68.533  1.00  0.00    -0.290 A  
HETATM    9  C   UNL     1     -11.857  15.408  69.672  1.00  0.00    -0.368 A  
HETATM   10  N   UNL     1      -9.965  16.910  69.631  1.00  0.00    -0.002 NA 
HETATM   11  C   UNL     1     -11.116  16.464  70.180  1.00  0.00    -0.277 A  
BRANCH   8  12
HETATM   12  O   UNL     1     -12.166  13.737  68.039  1.00  0.00    -0.323 OA 
BRANCH  12  13
HETATM   13  C   UNL     1     -11.635  12.469  67.934  1.00  0.00    -0.347 A  
HETATM   14  C   UNL     1     -11.583  11.722  69.112  1.00  0.00    -0.372 A  
HETATM   15  C   UNL     1     -11.011  10.453  69.096  1.00  0.00    -0.241 A  
HETATM   16  F   UNL     1     -10.951   9.746  70.235  1.00  0.00    -0.247 F  
HETATM   17  C   UNL     1     -10.434   9.938  67.934  1.00  0.00    -0.236 A  
HETATM   18  C   UNL     1     -11.082  11.952  66.757  1.00  0.00    -0.359 A  
HETATM   19  C   UNL     1     -10.488  10.684  66.754  1.00  0.00    -0.303 A  
BRANCH  17  20
HETATM   20  N   UNL     1      -9.793   8.679  67.980  1.00  0.00    -0.162 N  
HETATM   21  H   UNL     1      -9.011   8.531  68.619  1.00  0.00     0.000 HD 
BRANCH  20  22
HETATM   22  C   UNL     1     -10.223   7.644  67.162  1.00  0.00    -0.290 C  
HETATM   23  O   UNL     1      -9.850   7.465  66.005  1.00  0.00     0.062 OA 
BRANCH  22  24
HETATM   24  N   UNL     1     -11.137   6.843  67.819  1.00  0.00    -0.541 N  
HETATM   25  H   UNL     1     -12.100   6.810  67.483  1.00  0.00     0.000 HD 
BRANCH  24  26
HETATM   26  C   UNL     1     -10.774   6.071  68.940  1.00  0.00    -0.317 A  
HETATM   27  C   UNL     1      -9.921   4.989  68.753  1.00  0.00    -0.225 A  
HETATM   28  C   UNL     1      -9.548   4.206  69.845  1.00  0.00    -0.282 A  
HETATM   29  C   UNL     1     -10.078   4.451  71.119  1.00  0.00    -0.126 A  
HETATM   30 CL   UNL     1      -9.553   3.391  72.374  1.00  0.00    -0.184 Cl 
HETATM   31  C   UNL     1     -10.980   5.503  71.318  1.00  0.00    -0.198 A  
HETATM   32  C   UNL     1     -11.291   6.334  70.215  1.00  0.00    -0.457 A  
HETATM   33  C   UNL     1     -11.676   5.786  72.627  1.00  0.00    -0.203 C  
HETATM   34  F   UNL     1     -11.385   7.025  73.111  1.00  0.00    -0.281 F  
HETATM   35  F   UNL     1     -13.035   5.761  72.483  1.00  0.00    -0.205 F  
HETATM   36  F   UNL     1     -11.417   4.926  73.648  1.00  0.00    -0.373 F  
ENDBRANCH  24  26
ENDBRANCH  22  24
ENDBRANCH  20  22
ENDBRANCH  17  20
ENDBRANCH  12  13
ENDBRANCH   8  12
ENDBRANCH   3   6
TORSDOF 7
ENDMDL
MODEL      158
REMARK 921   NORMALIZED FREE ENERGY PREDICTED BY IDOCK:   -5.39 KCAL/MOL
REMARK 922        TOTAL FREE ENERGY PREDICTED BY IDOCK:   -9.58 KCAL/MOL
REMARK 923 INTER-LIGAND FREE ENERGY PREDICTED BY IDOCK:   -8.29 KCAL/MOL
REMARK 924 INTRA-LIGAND FREE ENERGY PREDICTED BY IDOCK:   -1.29 KCAL/MOL
REMARK 927      BINDING AFFINITY PREDICTED BY RF-SCORE:    0.00 PKD
ROOT
HETATM    1  C   UNL     1      -5.424   3.334  71.695  1.00  0.00    -0.008 C  
HETATM    2  N   UNL     1      -6.343   3.632  70.631  1.00  0.00    -0.026 N  
HETATM    3  C   UNL     1      -7.111   2.643  70.054  1.00  0.00    -0.033 C  
HETATM    4  H   UNL     1      -6.429   4.592  70.296  1.00  0.00     0.000 HD 
HETATM    5  O   UNL     1      -7.108   1.476  70.430  1.00  0.00    -0.032 OA 
ENDROOT
BRANCH   3   6
HETATM    6  C   UNL     1      -7.966   3.088  68.909  1.00  0.00    -0.056 A  
HETATM    7  C   UNL     1      -8.372   4.414  68.857  1.00  0.00    -0.087 A  
HETATM    8  C   UNL     1      -9.131   4.821  67.767  1.00  0.00    -0.116 A  
HETATM    9  C   UNL     1      -9.508   3.887  66.807  1.00  0.00    -0.223 A  
HETATM   10  N   UNL     1      -8.298   2.153  67.976  1.00  0.00    -0.062 NA 
HETATM   11  C   UNL     1      -9.068   2.580  66.952  1.00  0.00    -0.124 A  
BRANCH   8  12
HETATM   12  O   UNL     1      -9.611   6.101  67.609  1.00  0.00    -0.112 OA 
BRANCH  12  13
HETATM   13  C   UNL     1     -10.212   6.738  68.674  1.00  0.00    -0.175 A  
HETATM   14  C   UNL     1      -9.653   7.958  69.059  1.00  0.00    -0.155 A  
HETATM   15  C   UNL     1     -10.171   8.634  70.160  1.00  0.00    -0.192 A  
HETATM   16  F   UNL     1      -9.621   9.799  70.534  1.00  0.00    -0.282 F  
HETATM   17  C   UNL     1     -11.204   8.084  70.921  1.00  0.00    -0.266 A  
HETATM   18  C   UNL     1     -11.264   6.189  69.417  1.00  0.00    -0.466 A  
HETATM   19  C   UNL     1     -11.765   6.864  70.535  1.00  0.00    -0.401 A  
BRANCH  17  20
HETATM   20  N   UNL     1     -11.647   8.765  72.078  1.00  0.00    -0.355 N  
HETATM   21  H   UNL     1     -11.018   8.878  72.873  1.00  0.00     0.000 HD 
BRANCH  20  22
HETATM   22  C   UNL     1     -12.935   9.281  72.136  1.00  0.00    -0.424 C  
HETATM   23  O   UNL     1     -13.743   9.048  73.032  1.00  0.00    -0.275 OA 
BRANCH  22  24
HETATM   24  N   UNL     1     -13.193  10.087  71.043  1.00  0.00    -0.490 N  
HETATM   25  H   UNL     1     -13.602   9.672  70.206  1.00  0.00     0.000 HD 
BRANCH  24  26
HETATM   26  C   UNL     1     -12.906  11.466  71.056  1.00  0.00    -0.286 A  
HETATM   27  C   UNL     1     -13.313  12.219  72.153  1.00  0.00    -0.473 A  
HETATM   28  C   UNL     1     -13.044  13.587  72.190  1.00  0.00    -0.487 A  
HETATM   29  C   UNL     1     -12.433  14.228  71.105  1.00  0.00    -0.362 A  
HETATM   30 CL   UNL     1     -12.185  15.927  71.273  1.00  0.00    -0.469 Cl 
HETATM   31  C   UNL     1     -12.064  13.499  69.969  1.00  0.00    -0.411 A  
HETATM   32  C   UNL     1     -12.276  12.099  69.977  1.00  0.00    -0.270 A  
HETATM   33  C   UNL     1     -11.490  14.113  68.717  1.00  0.00    -0.299 C  
HETATM   34  F   UNL     1     -10.248  13.634  68.427  1.00  0.00    -0.220 F  
HETATM   35  F   UNL     1     -12.257  13.823  67.623  1.00  0.00    -0.389 F  
HETATM   36  F   UNL     1     -11.368  15.467  68.708  1.00  0.00    -0.257 F  
ENDBRANCH  24  26
ENDBRANCH  22  24
ENDBRANCH  20  22
ENDBRANCH  17  20
ENDBRANCH  12  13
ENDBRANCH   8  12
ENDBRANCH   3   6
TORSDOF 7
ENDMDL
MODEL      159
REMARK 921   NORMALIZED FREE ENERGY PREDICTED BY IDOCK:   -5.38 KCAL/MOL
REMARK 922        TOTAL FREE ENERGY PREDICTED BY IDOCK:   -9.57 KCAL/MOL
REMARK 923 INTER-LIGAND FREE ENERGY PREDICTED BY IDOCK:   -8.74 KCAL/MOL
REMARK 924 INTRA-LIGAND FREE ENERGY PREDICTED BY IDOCK:   -0.84 KCAL/MOL
REMARK 927      BINDING AFFINITY PREDICTED BY RF-SCORE:    0.00 PKD
ROOT
HETATM    1  C   UNL     1      -9.988   4.649  70.764  1.00  0.00    -0.214 C  
HETATM    2  N   UNL     1     -10.777   5.848  70.822  1.00  0.00    -0.263 N  
HETATM    3  C   UNL     1     -10.211   7.086  70.602  1.00  0.00    -0.191 C  
HETATM    4  H   UNL     1     -11.773   5.783  71.030  1.00  0.00     0.000 HD 
HETATM    5  O   UNL     1      -9.035   7.249  70.295  1.00  0.00    -0.150 OA 
ENDROOT
BRANCH   3   6
HETATM    6  C   UNL     1     -11.139   8.249  70.769  1.00  0.00    -0.258 A  
HETATM    7  C   UNL     1     -11.291   9.136  69.713  1.00  0.00     0.011 A  
HETATM    8  C   UNL     1     -12.186  10.187  69.869  1.00  0.00     0.018 A  
HETATM    9  C   UNL     1     -12.846  10.351  71.083  1.00  0.00    -0.511 A  
HETATM   10  N   UNL     1     -11.785   8.366  71.963  1.00  0.00    -0.326 NA 
HETATM   11  C   UNL     1     -12.618   9.423  72.088  1.00  0.00    -0.348 A  
BRANCH   8  12
HETATM   12  O   UNL     1     -12.411  11.144  68.907  1.00  0.00    -0.512 OA 
BRANCH  12  13
HETATM   13  C   UNL     1     -11.350  11.868  68.406  1.00  0.00    -0.276 A  
HETATM   14  C   UNL     1     -11.062  13.071  69.054  1.00  0.00    -0.281 A  
HETATM   15  C   UNL     1     -10.040  13.883  68.573  1.00  0.00    -0.234 A  
HETATM   16  F   UNL     1      -9.778  15.045  69.191  1.00  0.00    -0.199 F  
HETATM   17  C   UNL     1      -9.334  13.543  67.417  1.00  0.00    -0.228 A  
HETATM   18  C   UNL     1     -10.631  11.506  67.260  1.00  0.00    -0.266 A  
HETATM   19  C   UNL     1      -9.619  12.339  66.770  1.00  0.00    -0.220 A  
BRANCH  17  20
HETATM   20  N   UNL     1      -8.358  14.435  66.917  1.00  0.00    -0.394 N  
HETATM   21  H   UNL     1      -8.594  15.072  66.156  1.00  0.00     0.000 HD 
BRANCH  20  22
HETATM   22  C   UNL     1      -7.078  14.447  67.457  1.00  0.00    -0.175 C  
HETATM   23  O   UNL     1      -6.162  13.711  67.102  1.00  0.00    -0.229 OA 
BRANCH  22  24
HETATM   24  N   UNL     1      -6.975  15.394  68.458  1.00  0.00    -0.110 N  
HETATM   25  H   UNL     1      -6.855  15.086  69.422  1.00  0.00     0.000 HD 
BRANCH  24  26
HETATM   26  C   UNL     1      -7.032  16.774  68.180  1.00  0.00    -0.157 A  
HETATM   27  C   UNL     1      -5.839  17.487  68.113  1.00  0.00    -0.153 A  
HETATM   28  C   UNL     1      -5.866  18.855  67.843  1.00  0.00    -0.198 A  
HETATM   29  C   UNL     1      -7.083  19.537  67.709  1.00  0.00    -0.252 A  
HETATM   30 CL   UNL     1      -6.971  21.231  67.403  1.00  0.00    -0.376 Cl 
HETATM   31  C   UNL     1      -8.295  18.848  67.826  1.00  0.00    -0.305 A  
HETATM   32  C   UNL     1      -8.250  17.446  68.027  1.00  0.00    -0.229 A  
HETATM   33  C   UNL     1      -9.652  19.507  67.793  1.00  0.00    -0.346 C  
HETATM   34  F   UNL     1     -10.427  19.047  66.772  1.00  0.00    -0.381 F  
HETATM   35  F   UNL     1     -10.360  19.247  68.933  1.00  0.00    -0.435 F  
HETATM   36  F   UNL     1      -9.663  20.862  67.676  1.00  0.00    -0.550 F  
ENDBRANCH  24  26
ENDBRANCH  22  24
ENDBRANCH  20  22
ENDBRANCH  17  20
ENDBRANCH  12  13
ENDBRANCH   8  12
ENDBRANCH   3   6
TORSDOF 7
ENDMDL
MODEL      160
REMARK 921   NORMALIZED FREE ENERGY PREDICTED BY IDOCK:   -5.37 KCAL/MOL
REMARK 922        TOTAL FREE ENERGY PREDICTED BY IDOCK:   -9.55 KCAL/MOL
REMARK 923 INTER-LIGAND FREE ENERGY PREDICTED BY IDOCK:   -8.80 KCAL/MOL
REMARK 924 INTRA-LIGAND FREE ENERGY PREDICTED BY IDOCK:   -0.75 KCAL/MOL
REMARK 927      BINDING AFFINITY PREDICTED BY RF-SCORE:    0.00 PKD
ROOT
HETATM    1  C   UNL     1     -11.119   3.454  73.366  1.00  0.00    -0.186 C  
HETATM    2  N   UNL     1     -10.941   4.832  72.997  1.00  0.00    -0.258 N  
HETATM    3  C   UNL     1     -10.531   5.182  71.728  1.00  0.00    -0.200 C  
HETATM    4  H   UNL     1     -11.122   5.563  73.684  1.00  0.00     0.000 HD 
HETATM    5  O   UNL     1     -10.342   4.371  70.828  1.00  0.00    -0.113 OA 
ENDROOT
BRANCH   3   6
HETATM    6  C   UNL     1     -10.316   6.648  71.511  1.00  0.00    -0.209 A  
HETATM    7  C   UNL     1     -11.340   7.393  70.941  1.00  0.00    -0.300 A  
HETATM    8  C   UNL     1     -11.141   8.758  70.784  1.00  0.00    -0.260 A  
HETATM    9  C   UNL     1      -9.918   9.319  71.139  1.00  0.00    -0.356 A  
HETATM   10  N   UNL     1      -9.116   7.167  71.890  1.00  0.00    -0.135 NA 
HETATM   11  C   UNL     1      -8.948   8.492  71.686  1.00  0.00    -0.219 A  
BRANCH   8  12
HETATM   12  O   UNL     1     -12.067   9.601  70.215  1.00  0.00    -0.134 OA 
BRANCH  12  13
HETATM   13  C   UNL     1     -11.644  10.754  69.588  1.00  0.00    -0.316 A  
HETATM   14  C   UNL     1     -11.983  11.956  70.212  1.00  0.00    -0.416 A  
HETATM   15  C   UNL     1     -11.637  13.163  69.611  1.00  0.00    -0.253 A  
HETATM   16  F   UNL     1     -11.979  14.316  70.207  1.00  0.00    -0.305 F  
HETATM   17  C   UNL     1     -11.008  13.192  68.365  1.00  0.00    -0.262 A  
HETATM   18  C   UNL     1     -10.990  10.772  68.350  1.00  0.00    -0.299 A  
HETATM   19  C   UNL     1     -10.666  11.990  67.742  1.00  0.00    -0.243 A  
BRANCH  17  20
HETATM   20  N   UNL     1     -10.746  14.440  67.753  1.00  0.00    -0.246 N  
HETATM   21  H   UNL     1     -10.592  15.266  68.330  1.00  0.00     0.000 HD 
BRANCH  20  22
HETATM   22  C   UNL     1     -10.697  14.544  66.369  1.00  0.00    -0.309 C  
HETATM   23  O   UNL     1     -11.673  14.477  65.626  1.00  0.00    -0.345 OA 
BRANCH  22  24
HETATM   24  N   UNL     1      -9.397  14.724  65.934  1.00  0.00    -0.508 N  
HETATM   25  H   UNL     1      -9.026  14.107  65.212  1.00  0.00     0.000 HD 
BRANCH  24  26
HETATM   26  C   UNL     1      -8.573  15.736  66.463  1.00  0.00    -0.308 A  
HETATM   27  C   UNL     1      -7.370  15.370  67.057  1.00  0.00    -0.127 A  
HETATM   28  C   UNL     1      -6.536  16.351  67.591  1.00  0.00    -0.175 A  
HETATM   29  C   UNL     1      -6.926  17.697  67.603  1.00  0.00    -0.176 A  
HETATM   30 CL   UNL     1      -5.811  18.802  68.319  1.00  0.00    -0.203 Cl 
HETATM   31  C   UNL     1      -8.157  18.080  67.059  1.00  0.00    -0.241 A  
HETATM   32  C   UNL     1      -8.959  17.082  66.453  1.00  0.00    -0.308 A  
HETATM   33  C   UNL     1      -8.706  19.485  67.109  1.00  0.00    -0.301 C  
HETATM   34  F   UNL     1      -8.919  20.003  65.868  1.00  0.00    -0.392 F  
HETATM   35  F   UNL     1      -9.922  19.522  67.733  1.00  0.00    -0.377 F  
HETATM   36  F   UNL     1      -7.950  20.406  67.763  1.00  0.00    -0.325 F  
ENDBRANCH  24  26
ENDBRANCH  22  24
ENDBRANCH  20  22
ENDBRANCH  17  20
ENDBRANCH  12  13
ENDBRANCH   8  12
ENDBRANCH   3   6
TORSDOF 7
ENDMDL
MODEL      161
REMARK 921   NORMALIZED FREE ENERGY PREDICTED BY IDOCK:   -5.37 KCAL/MOL
REMARK 922        TOTAL FREE ENERGY PREDICTED BY IDOCK:   -9.55 KCAL/MOL
REMARK 923 INTER-LIGAND FREE ENERGY PREDICTED BY IDOCK:   -8.50 KCAL/MOL
REMARK 924 INTRA-LIGAND FREE ENERGY PREDICTED BY IDOCK:   -1.05 KCAL/MOL
REMARK 927      BINDING AFFINITY PREDICTED BY RF-SCORE:    0.00 PKD
ROOT
HETATM    1  C   UNL     1     -10.868   4.140  64.672  1.00  0.00    -0.101 C  
HETATM    2  N   UNL     1     -10.919   4.862  65.913  1.00  0.00    -0.809 N  
HETATM    3  C   UNL     1      -9.777   5.386  66.481  1.00  0.00    -0.164 C  
HETATM    4  H   UNL     1     -11.815   4.989  66.383  1.00  0.00     0.000 HD 
HETATM    5  O   UNL     1      -8.670   5.324  65.958  1.00  0.00    -0.128 OA 
ENDROOT
BRANCH   3   6
HETATM    6  C   UNL     1      -9.972   6.047  67.810  1.00  0.00    -0.131 A  
HETATM    7  C   UNL     1      -9.262   7.206  68.087  1.00  0.00    -0.131 A  
HETATM    8  C   UNL     1      -9.485   7.830  69.308  1.00  0.00    -0.155 A  
HETATM    9  C   UNL     1     -10.353   7.248  70.228  1.00  0.00    -0.219 A  
HETATM   10  N   UNL     1     -10.846   5.462  68.676  1.00  0.00    -0.037 NA 
HETATM   11  C   UNL     1     -11.006   6.078  69.868  1.00  0.00    -0.388 A  
BRANCH   8  12
HETATM   12  O   UNL     1      -8.830   8.971  69.711  1.00  0.00    -0.138 OA 
BRANCH  12  13
HETATM   13  C   UNL     1      -9.210  10.191  69.193  1.00  0.00    -0.197 A  
HETATM   14  C   UNL     1     -10.572  10.490  69.253  1.00  0.00    -0.265 A  
HETATM   15  C   UNL     1     -11.039  11.680  68.702  1.00  0.00    -0.234 A  
HETATM   16  F   UNL     1     -12.351  11.955  68.750  1.00  0.00    -0.322 F  
HETATM   17  C   UNL     1     -10.175  12.553  68.038  1.00  0.00    -0.225 A  
HETATM   18  C   UNL     1      -8.331  11.072  68.551  1.00  0.00    -0.149 A  
HETATM   19  C   UNL     1      -8.812  12.255  67.980  1.00  0.00    -0.182 A  
BRANCH  17  20
HETATM   20  N   UNL     1     -10.703  13.711  67.423  1.00  0.00    -0.265 N  
HETATM   21  H   UNL     1     -11.149  14.430  67.993  1.00  0.00     0.000 HD 
BRANCH  20  22
HETATM   22  C   UNL     1     -10.618  13.875  66.047  1.00  0.00    -0.293 C  
HETATM   23  O   UNL     1     -11.399  13.387  65.234  1.00  0.00    -0.293 OA 
BRANCH  22  24
HETATM   24  N   UNL     1      -9.527  14.653  65.710  1.00  0.00    -0.518 N  
HETATM   25  H   UNL     1      -8.784  14.247  65.141  1.00  0.00     0.000 HD 
BRANCH  24  26
HETATM   26  C   UNL     1      -9.414  15.992  66.132  1.00  0.00    -0.336 A  
HETATM   27  C   UNL     1     -10.421  16.885  65.784  1.00  0.00    -0.279 A  
HETATM   28  C   UNL     1     -10.333  18.217  66.186  1.00  0.00    -0.414 A  
HETATM   29  C   UNL     1      -9.208  18.686  66.877  1.00  0.00    -0.304 A  
HETATM   30 CL   UNL     1      -9.217  20.361  67.290  1.00  0.00    -0.518 Cl 
HETATM   31  C   UNL     1      -8.158  17.816  67.191  1.00  0.00    -0.229 A  
HETATM   32  C   UNL     1      -8.296  16.450  66.840  1.00  0.00    -0.263 A  
HETATM   33  C   UNL     1      -6.868  18.245  67.844  1.00  0.00    -0.213 C  
HETATM   34  F   UNL     1      -6.658  17.620  69.037  1.00  0.00    -0.200 F  
HETATM   35  F   UNL     1      -5.787  17.923  67.071  1.00  0.00    -0.138 F  
HETATM   36  F   UNL     1      -6.731  19.573  68.100  1.00  0.00    -0.260 F  
ENDBRANCH  24  26
ENDBRANCH  22  24
ENDBRANCH  20  22
ENDBRANCH  17  20
ENDBRANCH  12  13
ENDBRANCH   8  12
ENDBRANCH   3   6
TORSDOF 7
ENDMDL
MODEL      162
REMARK 921   NORMALIZED FREE ENERGY PREDICTED BY IDOCK:   -5.36 KCAL/MOL
REMARK 922        TOTAL FREE ENERGY PREDICTED BY IDOCK:   -9.55 KCAL/MOL
REMARK 923 INTER-LIGAND FREE ENERGY PREDICTED BY IDOCK:   -8.48 KCAL/MOL
REMARK 924 INTRA-LIGAND FREE ENERGY PREDICTED BY IDOCK:   -1.06 KCAL/MOL
REMARK 927      BINDING AFFINITY PREDICTED BY RF-SCORE:    0.00 PKD
ROOT
HETATM    1  C   UNL     1      -5.536  20.141  70.851  1.00  0.00    -0.290 C  
HETATM    2  N   UNL     1      -6.718  19.692  70.168  1.00  0.00    -0.165 N  
HETATM    3  C   UNL     1      -6.780  19.668  68.791  1.00  0.00    -0.309 C  
HETATM    4  H   UNL     1      -7.524  19.384  70.712  1.00  0.00     0.000 HD 
HETATM    5  O   UNL     1      -5.840  19.971  68.064  1.00  0.00    -0.208 OA 
ENDROOT
BRANCH   3   6
HETATM    6  C   UNL     1      -8.099  19.248  68.221  1.00  0.00    -0.332 A  
HETATM    7  C   UNL     1      -8.109  18.406  67.118  1.00  0.00    -0.244 A  
HETATM    8  C   UNL     1      -9.340  17.992  66.626  1.00  0.00    -0.291 A  
HETATM    9  C   UNL     1     -10.508  18.476  67.206  1.00  0.00    -0.455 A  
HETATM   10  N   UNL     1      -9.223  19.723  68.827  1.00  0.00    -0.257 NA 
HETATM   11  C   UNL     1     -10.399  19.327  68.295  1.00  0.00    -0.380 A  
BRANCH   8  12
HETATM   12  O   UNL     1      -9.485  17.176  65.528  1.00  0.00    -0.465 OA 
BRANCH  12  13
HETATM   13  C   UNL     1      -9.836  15.854  65.704  1.00  0.00    -0.302 A  
HETATM   14  C   UNL     1      -8.983  15.090  66.503  1.00  0.00    -0.310 A  
HETATM   15  C   UNL     1      -9.242  13.735  66.683  1.00  0.00    -0.223 A  
HETATM   16  F   UNL     1      -8.411  13.002  67.441  1.00  0.00    -0.154 F  
HETATM   17  C   UNL     1     -10.307  13.112  66.030  1.00  0.00    -0.287 A  
HETATM   18  C   UNL     1     -10.922  15.245  65.064  1.00  0.00    -0.450 A  
HETATM   19  C   UNL     1     -11.162  13.876  65.233  1.00  0.00    -0.313 A  
BRANCH  17  20
HETATM   20  N   UNL     1     -10.487  11.718  66.177  1.00  0.00    -0.237 N  
HETATM   21  H   UNL     1     -10.937  11.349  67.015  1.00  0.00     0.000 HD 
BRANCH  20  22
HETATM   22  C   UNL     1     -10.055  10.847  65.186  1.00  0.00    -0.292 C  
HETATM   23  O   UNL     1     -10.647  10.639  64.130  1.00  0.00    -0.283 OA 
BRANCH  22  24
HETATM   24  N   UNL     1      -8.870  10.236  65.549  1.00  0.00    -0.164 N  
HETATM   25  H   UNL     1      -8.064  10.815  65.784  1.00  0.00     0.000 HD 
BRANCH  24  26
HETATM   26  C   UNL     1      -8.747   8.834  65.605  1.00  0.00    -0.184 A  
HETATM   27  C   UNL     1      -7.972   8.197  64.641  1.00  0.00    -0.149 A  
HETATM   28  C   UNL     1      -7.836   6.809  64.670  1.00  0.00    -0.116 A  
HETATM   29  C   UNL     1      -8.528   6.039  65.614  1.00  0.00    -0.151 A  
HETATM   30 CL   UNL     1      -8.290   4.333  65.520  1.00  0.00    -0.109 Cl 
HETATM   31  C   UNL     1      -9.356   6.656  66.559  1.00  0.00    -0.191 A  
HETATM   32  C   UNL     1      -9.425   8.071  66.563  1.00  0.00    -0.278 A  
HETATM   33  C   UNL     1     -10.213   5.910  67.551  1.00  0.00    -0.190 C  
HETATM   34  F   UNL     1      -9.892   6.208  68.841  1.00  0.00    -0.132 F  
HETATM   35  F   UNL     1     -11.533   6.242  67.418  1.00  0.00    -0.374 F  
HETATM   36  F   UNL     1     -10.185   4.553  67.474  1.00  0.00    -0.201 F  
ENDBRANCH  24  26
ENDBRANCH  22  24
ENDBRANCH  20  22
ENDBRANCH  17  20
ENDBRANCH  12  13
ENDBRANCH   8  12
ENDBRANCH   3   6
TORSDOF 7
ENDMDL
MODEL      163
REMARK 921   NORMALIZED FREE ENERGY PREDICTED BY IDOCK:   -5.34 KCAL/MOL
REMARK 922        TOTAL FREE ENERGY PREDICTED BY IDOCK:   -9.51 KCAL/MOL
REMARK 923 INTER-LIGAND FREE ENERGY PREDICTED BY IDOCK:   -8.55 KCAL/MOL
REMARK 924 INTRA-LIGAND FREE ENERGY PREDICTED BY IDOCK:   -0.96 KCAL/MOL
REMARK 927      BINDING AFFINITY PREDICTED BY RF-SCORE:    0.00 PKD
ROOT
HETATM    1  C   UNL     1      -6.876   3.645  67.140  1.00  0.00    -0.050 C  
HETATM    2  N   UNL     1      -6.686   4.804  66.312  1.00  0.00    -0.049 N  
HETATM    3  C   UNL     1      -7.429   5.949  66.506  1.00  0.00    -0.087 C  
HETATM    4  H   UNL     1      -5.989   4.780  65.568  1.00  0.00     0.000 HD 
HETATM    5  O   UNL     1      -8.249   6.081  67.408  1.00  0.00    -0.106 OA 
ENDROOT
BRANCH   3   6
HETATM    6  C   UNL     1      -7.174   7.048  65.521  1.00  0.00    -0.070 A  
HETATM    7  C   UNL     1      -8.261   7.681  64.936  1.00  0.00    -0.098 A  
HETATM    8  C   UNL     1      -8.010   8.726  64.056  1.00  0.00    -0.156 A  
HETATM    9  C   UNL     1      -6.695   9.058  63.744  1.00  0.00    -0.089 A  
HETATM   10  N   UNL     1      -5.876   7.361  65.256  1.00  0.00    -0.037 NA 
HETATM   11  C   UNL     1      -5.673   8.357  64.366  1.00  0.00    -0.060 A  
BRANCH   8  12
HETATM   12  O   UNL     1      -8.998   9.420  63.397  1.00  0.00    -0.223 OA 
BRANCH  12  13
HETATM   13  C   UNL     1      -9.546  10.543  63.980  1.00  0.00    -0.311 A  
HETATM   14  C   UNL     1     -10.479  11.244  63.214  1.00  0.00    -0.370 A  
HETATM   15  C   UNL     1     -11.035  12.417  63.714  1.00  0.00    -0.447 A  
HETATM   16  F   UNL     1     -11.920  13.095  62.967  1.00  0.00    -0.595 F  
HETATM   17  C   UNL     1     -10.632  12.937  64.945  1.00  0.00    -0.323 A  
HETATM   18  C   UNL     1      -9.153  11.042  65.228  1.00  0.00    -0.207 A  
HETATM   19  C   UNL     1      -9.701  12.235  65.714  1.00  0.00    -0.228 A  
BRANCH  17  20
HETATM   20  N   UNL     1     -11.163  14.173  65.380  1.00  0.00    -0.315 N  
HETATM   21  H   UNL     1     -10.680  15.042  65.152  1.00  0.00     0.000 HD 
BRANCH  20  22
HETATM   22  C   UNL     1     -12.340  14.210  66.116  1.00  0.00    -0.436 C  
HETATM   23  O   UNL     1     -13.459  13.991  65.659  1.00  0.00    -0.604 OA 
BRANCH  22  24
HETATM   24  N   UNL     1     -12.087  14.536  67.435  1.00  0.00    -0.579 N  
HETATM   25  H   UNL     1     -12.683  14.148  68.166  1.00  0.00     0.000 HD 
BRANCH  24  26
HETATM   26  C   UNL     1     -11.027  15.391  67.795  1.00  0.00    -0.311 A  
HETATM   27  C   UNL     1     -10.019  14.891  68.613  1.00  0.00    -0.224 A  
HETATM   28  C   UNL     1      -8.960  15.717  68.988  1.00  0.00    -0.239 A  
HETATM   29  C   UNL     1      -8.933  17.066  68.611  1.00  0.00    -0.267 A  
HETATM   30 CL   UNL     1      -7.578  17.979  69.165  1.00  0.00    -0.128 Cl 
HETATM   31  C   UNL     1      -9.964  17.603  67.832  1.00  0.00    -0.323 A  
HETATM   32  C   UNL     1     -10.994  16.734  67.398  1.00  0.00    -0.092 A  
HETATM   33  C   UNL     1     -10.072  19.060  67.457  1.00  0.00    -0.373 C  
HETATM   34  F   UNL     1     -10.058  19.250  66.109  1.00  0.00    -0.388 F  
HETATM   35  F   UNL     1     -11.253  19.599  67.888  1.00  0.00    -0.406 F  
HETATM   36  F   UNL     1      -9.111  19.885  67.951  1.00  0.00    -0.358 F  
ENDBRANCH  24  26
ENDBRANCH  22  24
ENDBRANCH  20  22
ENDBRANCH  17  20
ENDBRANCH  12  13
ENDBRANCH   8  12
ENDBRANCH   3   6
TORSDOF 7
ENDMDL
MODEL      164
REMARK 921   NORMALIZED FREE ENERGY PREDICTED BY IDOCK:   -5.34 KCAL/MOL
REMARK 922        TOTAL FREE ENERGY PREDICTED BY IDOCK:   -9.51 KCAL/MOL
REMARK 923 INTER-LIGAND FREE ENERGY PREDICTED BY IDOCK:   -8.97 KCAL/MOL
REMARK 924 INTRA-LIGAND FREE ENERGY PREDICTED BY IDOCK:   -0.54 KCAL/MOL
REMARK 927      BINDING AFFINITY PREDICTED BY RF-SCORE:    0.00 PKD
ROOT
HETATM    1  C   UNL     1      -7.049  19.413  65.639  1.00  0.00    -0.267 C  
HETATM    2  N   UNL     1      -7.963  18.423  66.137  1.00  0.00    -0.227 N  
HETATM    3  C   UNL     1      -9.259  18.753  66.471  1.00  0.00    -0.331 C  
HETATM    4  H   UNL     1      -7.648  17.459  66.245  1.00  0.00     0.000 HD 
HETATM    5  O   UNL     1      -9.733  19.874  66.323  1.00  0.00    -0.398 OA 
ENDROOT
BRANCH   3   6
HETATM    6  C   UNL     1     -10.073  17.634  67.045  1.00  0.00    -0.330 A  
HETATM    7  C   UNL     1     -10.655  16.721  66.177  1.00  0.00    -0.212 A  
HETATM    8  C   UNL     1     -11.372  15.667  66.727  1.00  0.00     0.013 A  
HETATM    9  C   UNL     1     -11.535  15.594  68.107  1.00  0.00    -0.325 A  
HETATM   10  N   UNL     1     -10.193  17.581  68.401  1.00  0.00    -0.350 NA 
HETATM   11  C   UNL     1     -10.930  16.562  68.894  1.00  0.00    -0.325 A  
BRANCH   8  12
HETATM   12  O   UNL     1     -12.013  14.709  65.976  1.00  0.00    -0.337 OA 
BRANCH  12  13
HETATM   13  C   UNL     1     -11.410  13.484  65.778  1.00  0.00    -0.305 A  
HETATM   14  C   UNL     1     -10.979  13.212  64.478  1.00  0.00    -0.392 A  
HETATM   15  C   UNL     1     -10.410  11.976  64.188  1.00  0.00    -0.347 A  
HETATM   16  F   UNL     1     -10.010  11.714  62.934  1.00  0.00    -0.353 F  
HETATM   17  C   UNL     1     -10.316  10.980  65.162  1.00  0.00    -0.283 A  
HETATM   18  C   UNL     1     -11.298  12.501  66.768  1.00  0.00    -0.390 A  
HETATM   19  C   UNL     1     -10.745  11.253  66.463  1.00  0.00    -0.323 A  
BRANCH  17  20
HETATM   20  N   UNL     1      -9.805   9.711  64.806  1.00  0.00    -0.397 N  
HETATM   21  H   UNL     1      -9.778   9.432  63.825  1.00  0.00     0.000 HD 
BRANCH  20  22
HETATM   22  C   UNL     1      -9.340   8.843  65.785  1.00  0.00    -0.219 C  
HETATM   23  O   UNL     1      -8.158   8.696  66.086  1.00  0.00    -0.102 OA 
BRANCH  22  24
HETATM   24  N   UNL     1     -10.386   8.155  66.371  1.00  0.00    -0.431 N  
HETATM   25  H   UNL     1     -11.333   8.521  66.280  1.00  0.00     0.000 HD 
BRANCH  24  26
HETATM   26  C   UNL     1     -10.176   6.964  67.092  1.00  0.00    -0.240 A  
HETATM   27  C   UNL     1      -9.756   5.833  66.398  1.00  0.00    -0.175 A  
HETATM   28  C   UNL     1      -9.544   4.639  67.086  1.00  0.00    -0.197 A  
HETATM   29  C   UNL     1      -9.817   4.542  68.457  1.00  0.00    -0.089 A  
HETATM   30 CL   UNL     1      -9.536   2.999  69.176  1.00  0.00    -0.159 Cl 
HETATM   31  C   UNL     1     -10.292   5.653  69.163  1.00  0.00    -0.328 A  
HETATM   32  C   UNL     1     -10.431   6.877  68.466  1.00  0.00    -0.229 A  
HETATM   33  C   UNL     1     -10.704   5.621  70.614  1.00  0.00    -0.263 C  
HETATM   34  F   UNL     1      -9.966   6.473  71.380  1.00  0.00    -0.186 F  
HETATM   35  F   UNL     1     -12.002   6.021  70.772  1.00  0.00    -0.299 F  
HETATM   36  F   UNL     1     -10.632   4.416  71.238  1.00  0.00    -0.173 F  
ENDBRANCH  24  26
ENDBRANCH  22  24
ENDBRANCH  20  22
ENDBRANCH  17  20
ENDBRANCH  12  13
ENDBRANCH   8  12
ENDBRANCH   3   6
TORSDOF 7
ENDMDL
MODEL      165
REMARK 921   NORMALIZED FREE ENERGY PREDICTED BY IDOCK:   -5.33 KCAL/MOL
REMARK 922        TOTAL FREE ENERGY PREDICTED BY IDOCK:   -9.50 KCAL/MOL
REMARK 923 INTER-LIGAND FREE ENERGY PREDICTED BY IDOCK:   -8.39 KCAL/MOL
REMARK 924 INTRA-LIGAND FREE ENERGY PREDICTED BY IDOCK:   -1.12 KCAL/MOL
REMARK 927      BINDING AFFINITY PREDICTED BY RF-SCORE:    0.00 PKD
ROOT
HETATM    1  C   UNL     1     -11.056   3.176  63.217  1.00  0.00    -0.010 C  
HETATM    2  N   UNL     1     -10.436   4.098  64.128  1.00  0.00    -0.438 N  
HETATM    3  C   UNL     1      -9.116   3.953  64.501  1.00  0.00    -0.137 C  
HETATM    4  H   UNL     1     -10.980   4.873  64.506  1.00  0.00     0.000 HD 
HETATM    5  O   UNL     1      -8.377   3.081  64.055  1.00  0.00    -0.085 OA 
ENDROOT
BRANCH   3   6
HETATM    6  C   UNL     1      -8.628   4.942  65.513  1.00  0.00    -0.135 A  
HETATM    7  C   UNL     1      -8.389   6.247  65.106  1.00  0.00    -0.119 A  
HETATM    8  C   UNL     1      -7.976   7.162  66.066  1.00  0.00    -0.112 A  
HETATM    9  C   UNL     1      -7.757   6.736  67.372  1.00  0.00    -0.110 A  
HETATM   10  N   UNL     1      -8.446   4.495  66.787  1.00  0.00    -0.105 NA 
HETATM   11  C   UNL     1      -8.007   5.407  67.681  1.00  0.00    -0.100 A  
BRANCH   8  12
HETATM   12  O   UNL     1      -7.688   8.478  65.787  1.00  0.00    -0.093 OA 
BRANCH  12  13
HETATM   13  C   UNL     1      -8.685   9.427  65.874  1.00  0.00    -0.154 A  
HETATM   14  C   UNL     1      -9.307   9.780  64.675  1.00  0.00    -0.318 A  
HETATM   15  C   UNL     1     -10.286  10.769  64.675  1.00  0.00    -0.324 A  
HETATM   16  F   UNL     1     -10.871  11.115  63.518  1.00  0.00    -0.420 F  
HETATM   17  C   UNL     1     -10.615  11.457  65.845  1.00  0.00    -0.263 A  
HETATM   18  C   UNL     1      -9.025  10.093  67.057  1.00  0.00    -0.148 A  
HETATM   19  C   UNL     1      -9.994  11.102  67.045  1.00  0.00    -0.223 A  
BRANCH  17  20
HETATM   20  N   UNL     1     -11.557  12.509  65.785  1.00  0.00    -0.372 N  
HETATM   21  H   UNL     1     -12.542  12.320  65.968  1.00  0.00     0.000 HD 
BRANCH  20  22
HETATM   22  C   UNL     1     -11.146  13.800  65.479  1.00  0.00    -0.298 C  
HETATM   23  O   UNL     1     -11.000  14.237  64.340  1.00  0.00    -0.330 OA 
BRANCH  22  24
HETATM   24  N   UNL     1     -10.913  14.529  66.630  1.00  0.00    -0.315 N  
HETATM   25  H   UNL     1     -11.414  14.282  67.484  1.00  0.00     0.000 HD 
BRANCH  24  26
HETATM   26  C   UNL     1     -10.003  15.603  66.654  1.00  0.00    -0.258 A  
HETATM   27  C   UNL     1      -8.658  15.329  66.879  1.00  0.00    -0.289 A  
HETATM   28  C   UNL     1      -7.736  16.374  66.911  1.00  0.00    -0.276 A  
HETATM   29  C   UNL     1      -8.155  17.706  66.792  1.00  0.00    -0.236 A  
HETATM   30 CL   UNL     1      -6.913  18.900  66.876  1.00  0.00    -0.205 Cl 
HETATM   31  C   UNL     1      -9.510  18.007  66.619  1.00  0.00    -0.300 A  
HETATM   32  C   UNL     1     -10.425  16.931  66.514  1.00  0.00    -0.253 A  
HETATM   33  C   UNL     1     -10.068  19.408  66.576  1.00  0.00    -0.422 C  
HETATM   34  F   UNL     1     -10.697  19.680  65.399  1.00  0.00    -0.564 F  
HETATM   35  F   UNL     1     -11.014  19.597  67.545  1.00  0.00    -0.552 F  
HETATM   36  F   UNL     1      -9.178  20.420  66.756  1.00  0.00    -0.423 F  
ENDBRANCH  24  26
ENDBRANCH  22  24
ENDBRANCH  20  22
ENDBRANCH  17  20
ENDBRANCH  12  13
ENDBRANCH   8  12
ENDBRANCH   3   6
TORSDOF 7
ENDMDL
MODEL      166
REMARK 921   NORMALIZED FREE ENERGY PREDICTED BY IDOCK:   -5.30 KCAL/MOL
REMARK 922        TOTAL FREE ENERGY PREDICTED BY IDOCK:   -9.46 KCAL/MOL
REMARK 923 INTER-LIGAND FREE ENERGY PREDICTED BY IDOCK:   -8.33 KCAL/MOL
REMARK 924 INTRA-LIGAND FREE ENERGY PREDICTED BY IDOCK:   -1.13 KCAL/MOL
REMARK 927      BINDING AFFINITY PREDICTED BY RF-SCORE:    0.00 PKD
ROOT
HETATM    1  C   UNL     1      -9.535   4.081  64.862  1.00  0.00    -0.171 C  
HETATM    2  N   UNL     1      -9.789   4.691  66.138  1.00  0.00    -0.202 N  
HETATM    3  C   UNL     1      -8.825   5.445  66.773  1.00  0.00    -0.112 C  
HETATM    4  H   UNL     1     -10.698   4.564  66.582  1.00  0.00     0.000 HD 
HETATM    5  O   UNL     1      -7.726   5.690  66.287  1.00  0.00    -0.096 OA 
ENDROOT
BRANCH   3   6
HETATM    6  C   UNL     1      -9.206   5.954  68.129  1.00  0.00    -0.116 A  
HETATM    7  C   UNL     1      -8.854   7.251  68.475  1.00  0.00    -0.129 A  
HETATM    8  C   UNL     1      -9.250   7.723  69.720  1.00  0.00    -0.150 A  
HETATM    9  C   UNL     1      -9.922   6.873  70.593  1.00  0.00    -0.198 A  
HETATM   10  N   UNL     1      -9.881   5.102  68.949  1.00  0.00    -0.159 NA 
HETATM   11  C   UNL     1     -10.215   5.587  70.165  1.00  0.00    -0.263 A  
BRANCH   8  12
HETATM   12  O   UNL     1      -8.948   8.980  70.189  1.00  0.00    -0.155 OA 
BRANCH  12  13
HETATM   13  C   UNL     1      -9.678  10.064  69.750  1.00  0.00    -0.226 A  
HETATM   14  C   UNL     1     -10.908  10.274  70.376  1.00  0.00    -0.320 A  
HETATM   15  C   UNL     1     -11.727  11.316  69.950  1.00  0.00    -0.352 A  
HETATM   16  F   UNL     1     -12.914  11.504  70.546  1.00  0.00    -0.256 F  
HETATM   17  C   UNL     1     -11.364  12.119  68.867  1.00  0.00    -0.283 A  
HETATM   18  C   UNL     1      -9.294  10.879  68.678  1.00  0.00    -0.188 A  
HETATM   19  C   UNL     1     -10.133  11.911  68.242  1.00  0.00    -0.203 A  
BRANCH  17  20
HETATM   20  N   UNL     1     -12.260  13.115  68.416  1.00  0.00    -0.155 N  
HETATM   21  H   UNL     1     -13.262  13.009  68.580  1.00  0.00     0.000 HD 
BRANCH  20  22
HETATM   22  C   UNL     1     -11.784  14.237  67.750  1.00  0.00    -0.374 C  
HETATM   23  O   UNL     1     -11.625  14.315  66.534  1.00  0.00    -0.349 OA 
BRANCH  22  24
HETATM   24  N   UNL     1     -11.500  15.255  68.641  1.00  0.00    -0.319 N  
HETATM   25  H   UNL     1     -12.124  15.409  69.433  1.00  0.00     0.000 HD 
BRANCH  24  26
HETATM   26  C   UNL     1     -10.373  16.084  68.483  1.00  0.00    -0.241 A  
HETATM   27  C   UNL     1      -9.119  15.565  68.787  1.00  0.00    -0.207 A  
HETATM   28  C   UNL     1      -7.986  16.365  68.643  1.00  0.00    -0.220 A  
HETATM   29  C   UNL     1      -8.100  17.709  68.264  1.00  0.00    -0.278 A  
HETATM   30 CL   UNL     1      -6.621  18.590  68.150  1.00  0.00    -0.219 Cl 
HETATM   31  C   UNL     1      -9.357  18.266  68.004  1.00  0.00    -0.293 A  
HETATM   32  C   UNL     1     -10.491  17.421  68.083  1.00  0.00    -0.389 A  
HETATM   33  C   UNL     1      -9.589  19.722  67.684  1.00  0.00    -0.355 C  
HETATM   34  F   UNL     1     -10.163  19.898  66.461  1.00  0.00    -0.459 F  
HETATM   35  F   UNL     1     -10.450  20.297  68.577  1.00  0.00    -0.530 F  
HETATM   36  F   UNL     1      -8.492  20.525  67.690  1.00  0.00    -0.356 F  
ENDBRANCH  24  26
ENDBRANCH  22  24
ENDBRANCH  20  22
ENDBRANCH  17  20
ENDBRANCH  12  13
ENDBRANCH   8  12
ENDBRANCH   3   6
TORSDOF 7
ENDMDL
MODEL      167
REMARK 921   NORMALIZED FREE ENERGY PREDICTED BY IDOCK:   -5.29 KCAL/MOL
REMARK 922        TOTAL FREE ENERGY PREDICTED BY IDOCK:   -9.44 KCAL/MOL
REMARK 923 INTER-LIGAND FREE ENERGY PREDICTED BY IDOCK:   -8.10 KCAL/MOL
REMARK 924 INTRA-LIGAND FREE ENERGY PREDICTED BY IDOCK:   -1.33 KCAL/MOL
REMARK 927      BINDING AFFINITY PREDICTED BY RF-SCORE:    0.00 PKD
ROOT
HETATM    1  C   UNL     1     -11.393   6.275  69.611  1.00  0.00    -0.422 C  
HETATM    2  N   UNL     1     -10.866   7.442  68.960  1.00  0.00    -0.393 N  
HETATM    3  C   UNL     1     -10.776   7.514  67.587  1.00  0.00    -0.196 C  
HETATM    4  H   UNL     1     -10.553   8.233  69.524  1.00  0.00     0.000 HD 
HETATM    5  O   UNL     1     -11.176   6.632  66.834  1.00  0.00    -0.391 OA 
ENDROOT
BRANCH   3   6
HETATM    6  C   UNL     1     -10.138   8.759  67.054  1.00  0.00    -0.265 A  
HETATM    7  C   UNL     1     -10.263   9.934  67.783  1.00  0.00    -0.241 A  
HETATM    8  C   UNL     1      -9.630  11.071  67.297  1.00  0.00    -0.165 A  
HETATM    9  C   UNL     1      -8.955  11.014  66.081  1.00  0.00    -0.203 A  
HETATM   10  N   UNL     1      -9.466   8.662  65.873  1.00  0.00    -0.207 NA 
HETATM   11  C   UNL     1      -8.898   9.799  65.416  1.00  0.00    -0.169 A  
BRANCH   8  12
HETATM   12  O   UNL     1      -9.695  12.299  67.913  1.00  0.00    -0.190 OA 
BRANCH  12  13
HETATM   13  C   UNL     1      -8.598  13.135  67.880  1.00  0.00    -0.185 A  
HETATM   14  C   UNL     1      -7.516  12.766  68.682  1.00  0.00    -0.092 A  
HETATM   15  C   UNL     1      -6.395  13.588  68.743  1.00  0.00    -0.093 A  
HETATM   16  F   UNL     1      -5.364  13.235  69.526  1.00  0.00    -0.080 F  
HETATM   17  C   UNL     1      -6.357  14.806  68.061  1.00  0.00    -0.154 A  
HETATM   18  C   UNL     1      -8.561  14.343  67.173  1.00  0.00    -0.237 A  
HETATM   19  C   UNL     1      -7.438  15.174  67.257  1.00  0.00    -0.228 A  
BRANCH  17  20
HETATM   20  N   UNL     1      -5.232  15.648  68.214  1.00  0.00    -0.101 N  
HETATM   21  H   UNL     1      -4.391  15.476  67.663  1.00  0.00     0.000 HD 
BRANCH  20  22
HETATM   22  C   UNL     1      -5.267  16.708  69.110  1.00  0.00    -0.128 C  
HETATM   23  O   UNL     1      -5.306  16.591  70.332  1.00  0.00    -0.182 OA 
BRANCH  22  24
HETATM   24  N   UNL     1      -5.263  17.918  68.442  1.00  0.00    -0.150 N  
HETATM   25  H   UNL     1      -4.402  18.465  68.411  1.00  0.00     0.000 HD 
BRANCH  24  26
HETATM   26  C   UNL     1      -6.416  18.416  67.805  1.00  0.00    -0.205 A  
HETATM   27  C   UNL     1      -6.293  18.935  66.520  1.00  0.00    -0.208 A  
HETATM   28  C   UNL     1      -7.417  19.437  65.867  1.00  0.00    -0.297 A  
HETATM   29  C   UNL     1      -8.659  19.492  66.514  1.00  0.00    -0.348 A  
HETATM   30 CL   UNL     1      -9.959  20.162  65.599  1.00  0.00    -0.369 Cl 
HETATM   31  C   UNL     1      -8.793  19.024  67.826  1.00  0.00    -0.326 A  
HETATM   32  C   UNL     1      -7.659  18.449  68.449  1.00  0.00    -0.307 A  
HETATM   33  C   UNL     1     -10.061  19.128  68.637  1.00  0.00    -0.398 C  
HETATM   34  F   UNL     1     -10.532  17.909  69.021  1.00  0.00    -0.357 F  
HETATM   35  F   UNL     1      -9.853  19.820  69.798  1.00  0.00    -0.403 F  
HETATM   36  F   UNL     1     -11.111  19.753  68.041  1.00  0.00    -0.411 F  
ENDBRANCH  24  26
ENDBRANCH  22  24
ENDBRANCH  20  22
ENDBRANCH  17  20
ENDBRANCH  12  13
ENDBRANCH   8  12
ENDBRANCH   3   6
TORSDOF 7
ENDMDL
MODEL      168
REMARK 921   NORMALIZED FREE ENERGY PREDICTED BY IDOCK:   -5.28 KCAL/MOL
REMARK 922        TOTAL FREE ENERGY PREDICTED BY IDOCK:   -9.43 KCAL/MOL
REMARK 923 INTER-LIGAND FREE ENERGY PREDICTED BY IDOCK:   -7.91 KCAL/MOL
REMARK 924 INTRA-LIGAND FREE ENERGY PREDICTED BY IDOCK:   -1.52 KCAL/MOL
REMARK 927      BINDING AFFINITY PREDICTED BY RF-SCORE:    0.00 PKD
ROOT
HETATM    1  C   UNL     1      -6.424  20.977  67.324  1.00  0.00    -0.351 C  
HETATM    2  N   UNL     1      -6.924  19.660  67.040  1.00  0.00    -0.201 N  
HETATM    3  C   UNL     1      -7.592  18.929  67.999  1.00  0.00    -0.265 C  
HETATM    4  H   UNL     1      -6.782  19.259  66.113  1.00  0.00     0.000 HD 
HETATM    5  O   UNL     1      -7.851  19.356  69.119  1.00  0.00    -0.336 OA 
ENDROOT
BRANCH   3   6
HETATM    6  C   UNL     1      -7.988  17.546  67.583  1.00  0.00    -0.202 A  
HETATM    7  C   UNL     1      -7.033  16.540  67.625  1.00  0.00    -0.158 A  
HETATM    8  C   UNL     1      -7.426  15.255  67.276  1.00  0.00    -0.202 A  
HETATM    9  C   UNL     1      -8.729  15.030  66.842  1.00  0.00    -0.285 A  
HETATM   10  N   UNL     1      -9.277  17.358  67.185  1.00  0.00    -0.233 NA 
HETATM   11  C   UNL     1      -9.609  16.101  66.818  1.00  0.00    -0.240 A  
BRANCH   8  12
HETATM   12  O   UNL     1      -6.572  14.177  67.257  1.00  0.00    -0.274 OA 
BRANCH  12  13
HETATM   13  C   UNL     1      -7.040  12.931  67.615  1.00  0.00    -0.151 A  
HETATM   14  C   UNL     1      -7.439  12.097  66.569  1.00  0.00     0.307 A  
HETATM   15  C   UNL     1      -7.974  10.844  66.854  1.00  0.00    -0.138 A  
HETATM   16  F   UNL     1      -8.369  10.053  65.845  1.00  0.00    -0.117 F  
HETATM   17  C   UNL     1      -8.173  10.430  68.173  1.00  0.00    -0.116 A  
HETATM   18  C   UNL     1      -7.213  12.515  68.941  1.00  0.00    -0.050 A  
HETATM   19  C   UNL     1      -7.772  11.263  69.220  1.00  0.00     0.010 A  
BRANCH  17  20
HETATM   20  N   UNL     1      -8.793   9.184  68.419  1.00  0.00    -0.129 N  
HETATM   21  H   UNL     1      -8.220   8.354  68.577  1.00  0.00     0.000 HD 
BRANCH  20  22
HETATM   22  C   UNL     1     -10.178   9.083  68.447  1.00  0.00    -0.201 C  
HETATM   23  O   UNL     1     -10.895   9.023  67.452  1.00  0.00    -0.230 OA 
BRANCH  22  24
HETATM   24  N   UNL     1     -10.645   9.071  69.748  1.00  0.00    -0.225 N  
HETATM   25  H   UNL     1     -10.466   8.254  70.331  1.00  0.00     0.000 HD 
BRANCH  24  26
HETATM   26  C   UNL     1     -11.362  10.156  70.287  1.00  0.00    -0.315 A  
HETATM   27  C   UNL     1     -12.221   9.919  71.355  1.00  0.00    -0.499 A  
HETATM   28  C   UNL     1     -12.945  10.975  71.907  1.00  0.00    -0.485 A  
HETATM   29  C   UNL     1     -12.875  12.261  71.354  1.00  0.00    -0.271 A  
HETATM   30 CL   UNL     1     -13.843  13.467  72.118  1.00  0.00    -0.615 Cl 
HETATM   31  C   UNL     1     -12.057  12.509  70.246  1.00  0.00    -0.373 A  
HETATM   32  C   UNL     1     -11.272  11.443  69.743  1.00  0.00    -0.266 A  
HETATM   33  C   UNL     1     -11.988  13.832  69.523  1.00  0.00    -0.345 C  
HETATM   34  F   UNL     1     -10.735  14.367  69.541  1.00  0.00    -0.241 F  
HETATM   35  F   UNL     1     -12.306  13.694  68.201  1.00  0.00    -0.375 F  
HETATM   36  F   UNL     1     -12.810  14.814  69.979  1.00  0.00    -0.336 F  
ENDBRANCH  24  26
ENDBRANCH  22  24
ENDBRANCH  20  22
ENDBRANCH  17  20
ENDBRANCH  12  13
ENDBRANCH   8  12
ENDBRANCH   3   6
TORSDOF 7
ENDMDL
MODEL      169
REMARK 921   NORMALIZED FREE ENERGY PREDICTED BY IDOCK:   -5.28 KCAL/MOL
REMARK 922        TOTAL FREE ENERGY PREDICTED BY IDOCK:   -9.42 KCAL/MOL
REMARK 923 INTER-LIGAND FREE ENERGY PREDICTED BY IDOCK:   -8.57 KCAL/MOL
REMARK 924 INTRA-LIGAND FREE ENERGY PREDICTED BY IDOCK:   -0.85 KCAL/MOL
REMARK 927      BINDING AFFINITY PREDICTED BY RF-SCORE:    0.00 PKD
ROOT
HETATM    1  C   UNL     1      -5.424  18.838  64.400  1.00  0.00    -0.213 C  
HETATM    2  N   UNL     1      -6.551  18.530  65.237  1.00  0.00    -0.223 N  
HETATM    3  C   UNL     1      -7.200  19.516  65.949  1.00  0.00    -0.296 C  
HETATM    4  H   UNL     1      -6.876  17.566  65.305  1.00  0.00     0.000 HD 
HETATM    5  O   UNL     1      -6.908  20.705  65.884  1.00  0.00    -0.228 OA 
ENDROOT
BRANCH   3   6
HETATM    6  C   UNL     1      -8.308  19.036  66.835  1.00  0.00    -0.277 A  
HETATM    7  C   UNL     1      -9.120  18.004  66.386  1.00  0.00    -0.251 A  
HETATM    8  C   UNL     1     -10.116  17.543  67.236  1.00  0.00    -0.327 A  
HETATM    9  C   UNL     1     -10.308  18.161  68.468  1.00  0.00    -0.352 A  
HETATM   10  N   UNL     1      -8.452  19.649  68.043  1.00  0.00    -0.309 NA 
HETATM   11  C   UNL     1      -9.457  19.196  68.824  1.00  0.00    -0.399 A  
BRANCH   8  12
HETATM   12  O   UNL     1     -10.999  16.541  66.901  1.00  0.00    -0.152 OA 
BRANCH  12  13
HETATM   13  C   UNL     1     -10.516  15.298  66.551  1.00  0.00    -0.298 A  
HETATM   14  C   UNL     1     -11.349  14.515  65.750  1.00  0.00    -0.336 A  
HETATM   15  C   UNL     1     -10.954  13.227  65.401  1.00  0.00    -0.284 A  
HETATM   16  F   UNL     1     -11.765  12.474  64.643  1.00  0.00    -0.346 F  
HETATM   17  C   UNL     1      -9.763  12.683  65.886  1.00  0.00    -0.207 A  
HETATM   18  C   UNL     1      -9.308  14.771  67.023  1.00  0.00    -0.245 A  
HETATM   19  C   UNL     1      -8.928  13.467  66.685  1.00  0.00    -0.133 A  
BRANCH  17  20
HETATM   20  N   UNL     1      -9.437  11.344  65.572  1.00  0.00    -0.227 N  
HETATM   21  H   UNL     1      -9.346  11.059  64.596  1.00  0.00     0.000 HD 
BRANCH  20  22
HETATM   22  C   UNL     1      -9.241  10.415  66.585  1.00  0.00    -0.156 C  
HETATM   23  O   UNL     1      -8.147  10.112  67.055  1.00  0.00    -0.116 OA 
BRANCH  22  24
HETATM   24  N   UNL     1     -10.443   9.865  66.989  1.00  0.00    -0.240 N  
HETATM   25  H   UNL     1     -11.311  10.222  66.591  1.00  0.00     0.000 HD 
BRANCH  24  26
HETATM   26  C   UNL     1     -10.499   8.825  67.937  1.00  0.00    -0.216 A  
HETATM   27  C   UNL     1     -10.826   7.546  67.501  1.00  0.00    -0.232 A  
HETATM   28  C   UNL     1     -10.893   6.498  68.419  1.00  0.00    -0.357 A  
HETATM   29  C   UNL     1     -10.704   6.730  69.788  1.00  0.00    -0.249 A  
HETATM   30 CL   UNL     1     -10.840   5.350  70.814  1.00  0.00    -0.252 Cl 
HETATM   31  C   UNL     1     -10.427   8.020  70.254  1.00  0.00    -0.222 A  
HETATM   32  C   UNL     1     -10.290   9.059  69.302  1.00  0.00    -0.227 A  
HETATM   33  C   UNL     1     -10.303   8.385  71.713  1.00  0.00    -0.262 C  
HETATM   34  F   UNL     1      -9.076   8.893  72.018  1.00  0.00    -0.298 F  
HETATM   35  F   UNL     1     -11.197   9.360  72.059  1.00  0.00    -0.427 F  
HETATM   36  F   UNL     1     -10.515   7.384  72.607  1.00  0.00    -0.216 F  
ENDBRANCH  24  26
ENDBRANCH  22  24
ENDBRANCH  20  22
ENDBRANCH  17  20
ENDBRANCH  12  13
ENDBRANCH   8  12
ENDBRANCH   3   6
TORSDOF 7
ENDMDL
MODEL      170
REMARK 921   NORMALIZED FREE ENERGY PREDICTED BY IDOCK:   -5.27 KCAL/MOL
REMARK 922        TOTAL FREE ENERGY PREDICTED BY IDOCK:   -9.42 KCAL/MOL
REMARK 923 INTER-LIGAND FREE ENERGY PREDICTED BY IDOCK:   -8.17 KCAL/MOL
REMARK 924 INTRA-LIGAND FREE ENERGY PREDICTED BY IDOCK:   -1.25 KCAL/MOL
REMARK 927      BINDING AFFINITY PREDICTED BY RF-SCORE:    0.00 PKD
ROOT
HETATM    1  C   UNL     1      -6.040   5.366  68.605  1.00  0.00    -0.022 C  
HETATM    2  N   UNL     1      -6.592   6.684  68.758  1.00  0.00    -0.049 N  
HETATM    3  C   UNL     1      -7.949   6.906  68.652  1.00  0.00    -0.120 C  
HETATM    4  H   UNL     1      -5.970   7.469  68.950  1.00  0.00     0.000 HD 
HETATM    5  O   UNL     1      -8.770   6.013  68.475  1.00  0.00    -0.111 OA 
ENDROOT
BRANCH   3   6
HETATM    6  C   UNL     1      -8.370   8.339  68.760  1.00  0.00    -0.124 A  
HETATM    7  C   UNL     1      -7.432   9.329  68.502  1.00  0.00    -0.081 A  
HETATM    8  C   UNL     1      -7.849  10.652  68.566  1.00  0.00    -0.115 A  
HETATM    9  C   UNL     1      -9.157  10.942  68.944  1.00  0.00    -0.151 A  
HETATM   10  N   UNL     1      -9.663   8.586  69.110  1.00  0.00    -0.168 NA 
HETATM   11  C   UNL     1     -10.018   9.886  69.199  1.00  0.00    -0.198 A  
BRANCH   8  12
HETATM   12  O   UNL     1      -7.014  11.724  68.352  1.00  0.00    -0.070 OA 
BRANCH  12  13
HETATM   13  C   UNL     1      -7.541  12.997  68.292  1.00  0.00    -0.135 A  
HETATM   14  C   UNL     1      -8.167  13.350  67.095  1.00  0.00    -0.121 A  
HETATM   15  C   UNL     1      -8.676  14.636  66.940  1.00  0.00    -0.224 A  
HETATM   16  F   UNL     1      -9.264  14.974  65.782  1.00  0.00    -0.335 F  
HETATM   17  C   UNL     1      -8.520  15.598  67.940  1.00  0.00    -0.150 A  
HETATM   18  C   UNL     1      -7.401  13.947  69.311  1.00  0.00     0.054 A  
HETATM   19  C   UNL     1      -7.896  15.244  69.138  1.00  0.00    -0.204 A  
BRANCH  17  20
HETATM   20  N   UNL     1      -8.981  16.914  67.709  1.00  0.00    -0.223 N  
HETATM   21  H   UNL     1      -8.507  17.506  67.028  1.00  0.00     0.000 HD 
BRANCH  20  22
HETATM   22  C   UNL     1     -10.078  17.404  68.407  1.00  0.00    -0.347 C  
HETATM   23  O   UNL     1     -10.055  18.382  69.150  1.00  0.00    -0.346 OA 
BRANCH  22  24
HETATM   24  N   UNL     1     -11.201  16.637  68.161  1.00  0.00    -0.287 N  
HETATM   25  H   UNL     1     -11.763  16.830  67.333  1.00  0.00     0.000 HD 
BRANCH  24  26
HETATM   26  C   UNL     1     -11.589  15.595  69.026  1.00  0.00    -0.386 A  
HETATM   27  C   UNL     1     -11.734  14.315  68.500  1.00  0.00    -0.376 A  
HETATM   28  C   UNL     1     -12.120  13.266  69.333  1.00  0.00    -0.301 A  
HETATM   29  C   UNL     1     -12.435  13.495  70.679  1.00  0.00    -0.333 A  
HETATM   30 CL   UNL     1     -12.924  12.113  71.588  1.00  0.00    -0.480 Cl 
HETATM   31  C   UNL     1     -12.346  14.785  71.215  1.00  0.00    -0.390 A  
HETATM   32  C   UNL     1     -11.882  15.826  70.376  1.00  0.00    -0.391 A  
HETATM   33  C   UNL     1     -12.753  15.147  72.622  1.00  0.00    -0.380 C  
HETATM   34  F   UNL     1     -11.718  15.658  73.345  1.00  0.00    -0.506 F  
HETATM   35  F   UNL     1     -13.715  16.119  72.627  1.00  0.00    -0.546 F  
HETATM   36  F   UNL     1     -13.268  14.144  73.381  1.00  0.00    -0.554 F  
ENDBRANCH  24  26
ENDBRANCH  22  24
ENDBRANCH  20  22
ENDBRANCH  17  20
ENDBRANCH  12  13
ENDBRANCH   8  12
ENDBRANCH   3   6
TORSDOF 7
ENDMDL
MODEL      171
REMARK 921   NORMALIZED FREE ENERGY PREDICTED BY IDOCK:   -5.25 KCAL/MOL
REMARK 922        TOTAL FREE ENERGY PREDICTED BY IDOCK:   -9.39 KCAL/MOL
REMARK 923 INTER-LIGAND FREE ENERGY PREDICTED BY IDOCK:   -8.29 KCAL/MOL
REMARK 924 INTRA-LIGAND FREE ENERGY PREDICTED BY IDOCK:   -1.09 KCAL/MOL
REMARK 927      BINDING AFFINITY PREDICTED BY RF-SCORE:    0.00 PKD
ROOT
HETATM    1  C   UNL     1     -12.623  14.068  65.978  1.00  0.00    -0.414 C  
HETATM    2  N   UNL     1     -11.541  13.296  65.432  1.00  0.00    -0.312 N  
HETATM    3  C   UNL     1     -11.770  12.303  64.504  1.00  0.00    -0.353 C  
HETATM    4  H   UNL     1     -10.586  13.487  65.735  1.00  0.00     0.000 HD 
HETATM    5  O   UNL     1     -12.879  12.044  64.048  1.00  0.00    -0.575 OA 
ENDROOT
BRANCH   3   6
HETATM    6  C   UNL     1     -10.557  11.534  64.081  1.00  0.00    -0.363 A  
HETATM    7  C   UNL     1     -10.280  10.329  64.712  1.00  0.00    -0.238 A  
HETATM    8  C   UNL     1      -9.174   9.608  64.280  1.00  0.00    -0.178 A  
HETATM    9  C   UNL     1      -8.355  10.137  63.288  1.00  0.00    -0.170 A  
HETATM   10  N   UNL     1      -9.790  12.071  63.092  1.00  0.00    -0.377 NA 
HETATM   11  C   UNL     1      -8.703  11.357  62.727  1.00  0.00    -0.033 A  
BRANCH   8  12
HETATM   12  O   UNL     1      -8.781   8.413  64.836  1.00  0.00    -0.134 OA 
BRANCH  12  13
HETATM   13  C   UNL     1      -8.992   8.185  66.179  1.00  0.00    -0.178 A  
HETATM   14  C   UNL     1      -9.403   6.897  66.530  1.00  0.00    -0.197 A  
HETATM   15  C   UNL     1      -9.688   6.606  67.861  1.00  0.00    -0.122 A  
HETATM   16  F   UNL     1     -10.097   5.371  68.190  1.00  0.00    -0.167 F  
HETATM   17  C   UNL     1      -9.627   7.596  68.844  1.00  0.00    -0.150 A  
HETATM   18  C   UNL     1      -8.904   9.179  67.161  1.00  0.00    -0.130 A  
HETATM   19  C   UNL     1      -9.214   8.884  68.494  1.00  0.00    -0.137 A  
BRANCH  17  20
HETATM   20  N   UNL     1     -10.002   7.278  70.169  1.00  0.00    -0.183 N  
HETATM   21  H   UNL     1      -9.312   6.892  70.813  1.00  0.00     0.000 HD 
BRANCH  20  22
HETATM   22  C   UNL     1     -11.306   7.487  70.597  1.00  0.00    -0.281 C  
HETATM   23  O   UNL     1     -12.298   6.950  70.111  1.00  0.00    -0.119 OA 
BRANCH  22  24
HETATM   24  N   UNL     1     -11.343   8.392  71.641  1.00  0.00    -0.268 N  
HETATM   25  H   UNL     1     -11.039   8.093  72.568  1.00  0.00     0.000 HD 
BRANCH  24  26
HETATM   26  C   UNL     1     -11.788   9.715  71.458  1.00  0.00    -0.407 A  
HETATM   27  C   UNL     1     -12.793  10.199  72.290  1.00  0.00    -0.249 A  
HETATM   28  C   UNL     1     -13.254  11.505  72.129  1.00  0.00    -0.315 A  
HETATM   29  C   UNL     1     -12.771  12.315  71.093  1.00  0.00    -0.243 A  
HETATM   30 CL   UNL     1     -13.448  13.899  70.992  1.00  0.00    -0.208 Cl 
HETATM   31  C   UNL     1     -11.798  11.829  70.212  1.00  0.00    -0.382 A  
HETATM   32  C   UNL     1     -11.286  10.528  70.434  1.00  0.00    -0.411 A  
HETATM   33  C   UNL     1     -11.287  12.589  69.012  1.00  0.00    -0.290 C  
HETATM   34  F   UNL     1      -9.945  12.816  69.077  1.00  0.00    -0.113 F  
HETATM   35  F   UNL     1     -11.481  11.884  67.857  1.00  0.00    -0.281 F  
HETATM   36  F   UNL     1     -11.851  13.803  68.780  1.00  0.00    -0.316 F  
ENDBRANCH  24  26
ENDBRANCH  22  24
ENDBRANCH  20  22
ENDBRANCH  17  20
ENDBRANCH  12  13
ENDBRANCH   8  12
ENDBRANCH   3   6
TORSDOF 7
ENDMDL
MODEL      172
REMARK 921   NORMALIZED FREE ENERGY PREDICTED BY IDOCK:   -5.24 KCAL/MOL
REMARK 922        TOTAL FREE ENERGY PREDICTED BY IDOCK:   -9.38 KCAL/MOL
REMARK 923 INTER-LIGAND FREE ENERGY PREDICTED BY IDOCK:   -8.81 KCAL/MOL
REMARK 924 INTRA-LIGAND FREE ENERGY PREDICTED BY IDOCK:   -0.56 KCAL/MOL
REMARK 927      BINDING AFFINITY PREDICTED BY RF-SCORE:    0.00 PKD
ROOT
HETATM    1  C   UNL     1      -8.906   1.680  69.939  1.00  0.00    -0.063 C  
HETATM    2  N   UNL     1      -9.287   2.861  69.213  1.00  0.00    -0.149 N  
HETATM    3  C   UNL     1      -9.545   4.047  69.867  1.00  0.00    -0.211 C  
HETATM    4  H   UNL     1      -9.366   2.821  68.197  1.00  0.00     0.000 HD 
HETATM    5  O   UNL     1      -9.423   4.195  71.078  1.00  0.00    -0.136 OA 
ENDROOT
BRANCH   3   6
HETATM    6  C   UNL     1     -10.003   5.170  68.989  1.00  0.00    -0.195 A  
HETATM    7  C   UNL     1     -10.148   6.433  69.547  1.00  0.00    -0.203 A  
HETATM    8  C   UNL     1     -10.534   7.473  68.711  1.00  0.00    -0.194 A  
HETATM    9  C   UNL     1     -10.820   7.209  67.375  1.00  0.00    -0.346 A  
HETATM   10  N   UNL     1     -10.253   4.880  67.682  1.00  0.00    -0.117 NA 
HETATM   11  C   UNL     1     -10.663   5.912  66.911  1.00  0.00    -0.321 A  
BRANCH   8  12
HETATM   12  O   UNL     1     -10.731   8.764  69.144  1.00  0.00    -0.213 OA 
BRANCH  12  13
HETATM   13  C   UNL     1     -10.497   9.814  68.281  1.00  0.00    -0.216 A  
HETATM   14  C   UNL     1      -9.160  10.071  67.972  1.00  0.00    -0.132 A  
HETATM   15  C   UNL     1      -8.840  11.149  67.151  1.00  0.00    -0.143 A  
HETATM   16  F   UNL     1      -7.553  11.400  66.869  1.00  0.00    -0.123 F  
HETATM   17  C   UNL     1      -9.830  12.013  66.679  1.00  0.00    -0.204 A  
HETATM   18  C   UNL     1     -11.499  10.660  67.793  1.00  0.00    -0.219 A  
HETATM   19  C   UNL     1     -11.168  11.754  66.986  1.00  0.00    -0.382 A  
BRANCH  17  20
HETATM   20  N   UNL     1      -9.455  13.141  65.914  1.00  0.00    -0.470 N  
HETATM   21  H   UNL     1      -8.504  13.215  65.552  1.00  0.00     0.000 HD 
BRANCH  20  22
HETATM   22  C   UNL     1     -10.375  14.148  65.653  1.00  0.00    -0.333 C  
HETATM   23  O   UNL     1     -10.800  14.436  64.537  1.00  0.00    -0.366 OA 
BRANCH  22  24
HETATM   24  N   UNL     1     -10.742  14.794  66.819  1.00  0.00    -0.302 N  
HETATM   25  H   UNL     1     -11.525  14.430  67.362  1.00  0.00     0.000 HD 
BRANCH  24  26
HETATM   26  C   UNL     1     -10.064  15.940  67.275  1.00  0.00    -0.260 A  
HETATM   27  C   UNL     1      -9.061  15.783  68.226  1.00  0.00    -0.187 A  
HETATM   28  C   UNL     1      -8.375  16.902  68.698  1.00  0.00    -0.261 A  
HETATM   29  C   UNL     1      -8.730  18.191  68.281  1.00  0.00    -0.284 A  
HETATM   30 CL   UNL     1      -7.817  19.486  68.964  1.00  0.00    -0.374 Cl 
HETATM   31  C   UNL     1      -9.772  18.375  67.365  1.00  0.00    -0.307 A  
HETATM   32  C   UNL     1     -10.409  17.225  66.839  1.00  0.00    -0.310 A  
HETATM   33  C   UNL     1     -10.289  19.724  66.929  1.00  0.00    -0.476 C  
HETATM   34  F   UNL     1     -10.166  19.917  65.586  1.00  0.00    -0.503 F  
HETATM   35  F   UNL     1     -11.624  19.854  67.195  1.00  0.00    -0.254 F  
HETATM   36  F   UNL     1      -9.710  20.809  67.508  1.00  0.00    -0.557 F  
ENDBRANCH  24  26
ENDBRANCH  22  24
ENDBRANCH  20  22
ENDBRANCH  17  20
ENDBRANCH  12  13
ENDBRANCH   8  12
ENDBRANCH   3   6
TORSDOF 7
ENDMDL
MODEL      173
REMARK 921   NORMALIZED FREE ENERGY PREDICTED BY IDOCK:   -5.24 KCAL/MOL
REMARK 922        TOTAL FREE ENERGY PREDICTED BY IDOCK:   -9.37 KCAL/MOL
REMARK 923 INTER-LIGAND FREE ENERGY PREDICTED BY IDOCK:   -8.29 KCAL/MOL
REMARK 924 INTRA-LIGAND FREE ENERGY PREDICTED BY IDOCK:   -1.09 KCAL/MOL
REMARK 927      BINDING AFFINITY PREDICTED BY RF-SCORE:    0.00 PKD
ROOT
HETATM    1  C   UNL     1     -13.920   7.700  71.628  1.00  0.00    -0.408 C  
HETATM    2  N   UNL     1     -12.862   7.380  70.710  1.00  0.00    -0.589 N  
HETATM    3  C   UNL     1     -11.870   6.484  71.050  1.00  0.00    -0.330 C  
HETATM    4  H   UNL     1     -12.844   7.822  69.792  1.00  0.00     0.000 HD 
HETATM    5  O   UNL     1     -11.845   5.870  72.111  1.00  0.00    -0.285 OA 
ENDROOT
BRANCH   3   6
HETATM    6  C   UNL     1     -10.794   6.307  70.023  1.00  0.00    -0.324 A  
HETATM    7  C   UNL     1     -10.798   7.131  68.906  1.00  0.00    -0.160 A  
HETATM    8  C   UNL     1      -9.771   6.982  67.984  1.00  0.00    -0.129 A  
HETATM    9  C   UNL     1      -8.819   5.984  68.172  1.00  0.00    -0.111 A  
HETATM   10  N   UNL     1      -9.867   5.336  70.251  1.00  0.00    -0.197 NA 
HETATM   11  C   UNL     1      -8.906   5.198  69.311  1.00  0.00    -0.095 A  
BRANCH   8  12
HETATM   12  O   UNL     1      -9.672   7.722  66.828  1.00  0.00    -0.193 OA 
BRANCH  12  13
HETATM   13  C   UNL     1      -9.749   9.097  66.892  1.00  0.00    -0.194 A  
HETATM   14  C   UNL     1      -8.949   9.716  67.855  1.00  0.00    -0.120 A  
HETATM   15  C   UNL     1      -9.013  11.097  68.016  1.00  0.00    -0.149 A  
HETATM   16  F   UNL     1      -8.253  11.684  68.953  1.00  0.00    -0.143 F  
HETATM   17  C   UNL     1      -9.907  11.868  67.271  1.00  0.00    -0.187 A  
HETATM   18  C   UNL     1     -10.632   9.864  66.123  1.00  0.00    -0.050 A  
HETATM   19  C   UNL     1     -10.706  11.250  66.306  1.00  0.00    -0.312 A  
BRANCH  17  20
HETATM   20  N   UNL     1      -9.997  13.256  67.522  1.00  0.00    -0.220 N  
HETATM   21  H   UNL     1      -9.452  13.910  66.960  1.00  0.00     0.000 HD 
BRANCH  20  22
HETATM   22  C   UNL     1     -10.824  13.734  68.530  1.00  0.00    -0.263 C  
HETATM   23  O   UNL     1     -11.987  13.381  68.708  1.00  0.00    -0.335 OA 
BRANCH  22  24
HETATM   24  N   UNL     1     -10.167  14.670  69.305  1.00  0.00    -0.364 N  
HETATM   25  H   UNL     1      -9.872  14.416  70.248  1.00  0.00     0.000 HD 
BRANCH  24  26
HETATM   26  C   UNL     1      -9.894  15.966  68.827  1.00  0.00    -0.216 A  
HETATM   27  C   UNL     1     -10.895  16.646  68.141  1.00  0.00    -0.348 A  
HETATM   28  C   UNL     1     -10.651  17.929  67.654  1.00  0.00    -0.398 A  
HETATM   29  C   UNL     1      -9.386  18.517  67.782  1.00  0.00    -0.291 A  
HETATM   30 CL   UNL     1      -9.214  20.097  67.110  1.00  0.00    -0.476 Cl 
HETATM   31  C   UNL     1      -8.348  17.829  68.421  1.00  0.00    -0.295 A  
HETATM   32  C   UNL     1      -8.633  16.558  68.975  1.00  0.00    -0.208 A  
HETATM   33  C   UNL     1      -6.931  18.337  68.523  1.00  0.00    -0.254 C  
HETATM   34  F   UNL     1      -6.528  18.491  69.815  1.00  0.00    -0.266 F  
HETATM   35  F   UNL     1      -6.045  17.456  67.969  1.00  0.00    -0.139 F  
HETATM   36  F   UNL     1      -6.669  19.524  67.916  1.00  0.00    -0.238 F  
ENDBRANCH  24  26
ENDBRANCH  22  24
ENDBRANCH  20  22
ENDBRANCH  17  20
ENDBRANCH  12  13
ENDBRANCH   8  12
ENDBRANCH   3   6
TORSDOF 7
ENDMDL
MODEL      174
REMARK 921   NORMALIZED FREE ENERGY PREDICTED BY IDOCK:   -5.23 KCAL/MOL
REMARK 922        TOTAL FREE ENERGY PREDICTED BY IDOCK:   -9.36 KCAL/MOL
REMARK 923 INTER-LIGAND FREE ENERGY PREDICTED BY IDOCK:   -8.40 KCAL/MOL
REMARK 924 INTRA-LIGAND FREE ENERGY PREDICTED BY IDOCK:   -0.96 KCAL/MOL
REMARK 927      BINDING AFFINITY PREDICTED BY RF-SCORE:    0.00 PKD
ROOT
HETATM    1  C   UNL     1      -9.921  19.800  66.397  1.00  0.00    -0.470 C  
HETATM    2  N   UNL     1      -9.767  18.394  66.651  1.00  0.00    -0.321 N  
HETATM    3  C   UNL     1      -8.656  17.707  66.208  1.00  0.00    -0.189 C  
HETATM    4  H   UNL     1     -10.491  17.895  67.167  1.00  0.00     0.000 HD 
HETATM    5  O   UNL     1      -7.717  18.239  65.626  1.00  0.00    -0.529 OA 
ENDROOT
BRANCH   3   6
HETATM    6  C   UNL     1      -8.668  16.235  66.480  1.00  0.00    -0.292 A  
HETATM    7  C   UNL     1      -9.805  15.508  66.158  1.00  0.00    -0.342 A  
HETATM    8  C   UNL     1      -9.786  14.137  66.378  1.00  0.00    -0.298 A  
HETATM    9  C   UNL     1      -8.667  13.552  66.965  1.00  0.00    -0.197 A  
HETATM   10  N   UNL     1      -7.549  15.693  67.035  1.00  0.00    -0.221 NA 
HETATM   11  C   UNL     1      -7.584  14.363  67.269  1.00  0.00    -0.108 A  
BRANCH   8  12
HETATM   12  O   UNL     1     -10.854  13.309  66.120  1.00  0.00    -0.278 OA 
BRANCH  12  13
HETATM   13  C   UNL     1     -11.128  12.265  66.977  1.00  0.00    -0.287 A  
HETATM   14  C   UNL     1     -11.708  12.606  68.201  1.00  0.00    -0.396 A  
HETATM   15  C   UNL     1     -11.964  11.612  69.140  1.00  0.00    -0.313 A  
HETATM   16  F   UNL     1     -12.508  11.948  70.320  1.00  0.00    -0.334 F  
HETATM   17  C   UNL     1     -11.596  10.286  68.904  1.00  0.00    -0.065 A  
HETATM   18  C   UNL     1     -10.778  10.934  66.720  1.00  0.00    -0.309 A  
HETATM   19  C   UNL     1     -11.018   9.944  67.679  1.00  0.00    -0.263 A  
BRANCH  17  20
HETATM   20  N   UNL     1     -11.802   9.322  69.917  1.00  0.00    -0.401 N  
HETATM   21  H   UNL     1     -12.687   8.817  69.966  1.00  0.00     0.000 HD 
BRANCH  20  22
HETATM   22  C   UNL     1     -10.804   9.058  70.846  1.00  0.00    -0.258 C  
HETATM   23  O   UNL     1     -10.858   9.358  72.036  1.00  0.00    -0.225 OA 
BRANCH  22  24
HETATM   24  N   UNL     1      -9.732   8.421  70.250  1.00  0.00    -0.171 N  
HETATM   25  H   UNL     1      -8.919   8.970  69.972  1.00  0.00     0.000 HD 
BRANCH  24  26
HETATM   26  C   UNL     1      -9.734   7.032  70.016  1.00  0.00    -0.170 A  
HETATM   27  C   UNL     1      -9.594   6.175  71.104  1.00  0.00    -0.193 A  
HETATM   28  C   UNL     1      -9.589   4.796  70.901  1.00  0.00    -0.245 A  
HETATM   29  C   UNL     1      -9.651   4.260  69.608  1.00  0.00    -0.205 A  
HETATM   30 CL   UNL     1      -9.609   2.539  69.500  1.00  0.00    -0.122 Cl 
HETATM   31  C   UNL     1      -9.737   5.105  68.496  1.00  0.00    -0.205 A  
HETATM   32  C   UNL     1      -9.816   6.501  68.723  1.00  0.00    -0.146 A  
HETATM   33  C   UNL     1      -9.712   4.628  67.065  1.00  0.00    -0.195 C  
HETATM   34  F   UNL     1     -10.844   4.966  66.386  1.00  0.00    -0.326 F  
HETATM   35  F   UNL     1      -8.685   5.202  66.367  1.00  0.00    -0.112 F  
HETATM   36  F   UNL     1      -9.559   3.291  66.875  1.00  0.00    -0.212 F  
ENDBRANCH  24  26
ENDBRANCH  22  24
ENDBRANCH  20  22
ENDBRANCH  17  20
ENDBRANCH  12  13
ENDBRANCH   8  12
ENDBRANCH   3   6
TORSDOF 7
ENDMDL
MODEL      175
REMARK 921   NORMALIZED FREE ENERGY PREDICTED BY IDOCK:   -5.23 KCAL/MOL
REMARK 922        TOTAL FREE ENERGY PREDICTED BY IDOCK:   -9.35 KCAL/MOL
REMARK 923 INTER-LIGAND FREE ENERGY PREDICTED BY IDOCK:   -8.75 KCAL/MOL
REMARK 924 INTRA-LIGAND FREE ENERGY PREDICTED BY IDOCK:   -0.60 KCAL/MOL
REMARK 927      BINDING AFFINITY PREDICTED BY RF-SCORE:    0.00 PKD
ROOT
HETATM    1  C   UNL     1      -7.467  19.324  66.017  1.00  0.00    -0.276 C  
HETATM    2  N   UNL     1      -8.322  18.192  66.246  1.00  0.00    -0.236 N  
HETATM    3  C   UNL     1      -9.652  18.357  66.566  1.00  0.00    -0.327 C  
HETATM    4  H   UNL     1      -7.938  17.250  66.169  1.00  0.00     0.000 HD 
HETATM    5  O   UNL     1     -10.205  19.450  66.627  1.00  0.00    -0.365 OA 
ENDROOT
BRANCH   3   6
HETATM    6  C   UNL     1     -10.401  17.092  66.849  1.00  0.00    -0.303 A  
HETATM    7  C   UNL     1     -10.724  16.258  65.788  1.00  0.00    -0.264 A  
HETATM    8  C   UNL     1     -11.382  15.068  66.071  1.00  0.00    -0.270 A  
HETATM    9  C   UNL     1     -11.747  14.782  67.383  1.00  0.00    -0.371 A  
HETATM   10  N   UNL     1     -10.722  16.833  68.147  1.00  0.00    -0.351 NA 
HETATM   11  C   UNL     1     -11.395  15.684  68.376  1.00  0.00    -0.364 A  
BRANCH   8  12
HETATM   12  O   UNL     1     -11.775  14.168  65.108  1.00  0.00    -0.333 OA 
BRANCH  12  13
HETATM   13  C   UNL     1     -11.069  12.996  64.944  1.00  0.00    -0.301 A  
HETATM   14  C   UNL     1     -10.054  12.751  65.872  1.00  0.00    -0.286 A  
HETATM   15  C   UNL     1      -9.262  11.614  65.740  1.00  0.00    -0.173 A  
HETATM   16  F   UNL     1      -8.279  11.392  66.626  1.00  0.00    -0.146 F  
HETATM   17  C   UNL     1      -9.426  10.744  64.661  1.00  0.00    -0.251 A  
HETATM   18  C   UNL     1     -11.258  12.116  63.872  1.00  0.00    -0.485 A  
HETATM   19  C   UNL     1     -10.443  10.987  63.734  1.00  0.00    -0.408 A  
BRANCH  17  20
HETATM   20  N   UNL     1      -8.549   9.645  64.520  1.00  0.00    -0.173 N  
HETATM   21  H   UNL     1      -8.012   9.530  63.661  1.00  0.00     0.000 HD 
BRANCH  20  22
HETATM   22  C   UNL     1      -8.414   8.721  65.548  1.00  0.00    -0.165 C  
HETATM   23  O   UNL     1      -7.342   8.349  66.020  1.00  0.00    -0.072 OA 
BRANCH  22  24
HETATM   24  N   UNL     1      -9.649   8.264  65.965  1.00  0.00    -0.432 N  
HETATM   25  H   UNL     1     -10.326   7.956  65.267  1.00  0.00     0.000 HD 
BRANCH  24  26
HETATM   26  C   UNL     1      -9.998   8.212  67.328  1.00  0.00    -0.218 A  
HETATM   27  C   UNL     1     -10.424   9.382  67.949  1.00  0.00    -0.296 A  
HETATM   28  C   UNL     1     -10.772   9.361  69.299  1.00  0.00    -0.228 A  
HETATM   29  C   UNL     1     -10.631   8.192  70.059  1.00  0.00    -0.239 A  
HETATM   30 CL   UNL     1     -11.073   8.313  71.722  1.00  0.00    -0.320 Cl 
HETATM   31  C   UNL     1     -10.154   7.018  69.466  1.00  0.00    -0.179 A  
HETATM   32  C   UNL     1      -9.875   7.036  68.078  1.00  0.00    -0.156 A  
HETATM   33  C   UNL     1      -9.878   5.740  70.220  1.00  0.00    -0.189 C  
HETATM   34  F   UNL     1     -10.627   4.697  69.763  1.00  0.00    -0.260 F  
HETATM   35  F   UNL     1      -8.577   5.346  70.072  1.00  0.00    -0.111 F  
HETATM   36  F   UNL     1     -10.082   5.774  71.563  1.00  0.00    -0.201 F  
ENDBRANCH  24  26
ENDBRANCH  22  24
ENDBRANCH  20  22
ENDBRANCH  17  20
ENDBRANCH  12  13
ENDBRANCH   8  12
ENDBRANCH   3   6
TORSDOF 7
ENDMDL
MODEL      176
REMARK 921   NORMALIZED FREE ENERGY PREDICTED BY IDOCK:   -5.23 KCAL/MOL
REMARK 922        TOTAL FREE ENERGY PREDICTED BY IDOCK:   -9.35 KCAL/MOL
REMARK 923 INTER-LIGAND FREE ENERGY PREDICTED BY IDOCK:   -8.00 KCAL/MOL
REMARK 924 INTRA-LIGAND FREE ENERGY PREDICTED BY IDOCK:   -1.35 KCAL/MOL
REMARK 927      BINDING AFFINITY PREDICTED BY RF-SCORE:    0.00 PKD
ROOT
HETATM    1  C   UNL     1      -9.751  19.903  66.940  1.00  0.00    -0.407 C  
HETATM    2  N   UNL     1      -8.675  19.132  67.498  1.00  0.00    -0.289 N  
HETATM    3  C   UNL     1      -8.202  18.004  66.862  1.00  0.00    -0.242 C  
HETATM    4  H   UNL     1      -8.253  19.424  68.379  1.00  0.00     0.000 HD 
HETATM    5  O   UNL     1      -8.616  17.613  65.776  1.00  0.00    -0.516 OA 
ENDROOT
BRANCH   3   6
HETATM    6  C   UNL     1      -7.130  17.261  67.597  1.00  0.00    -0.164 A  
HETATM    7  C   UNL     1      -6.791  15.985  67.169  1.00  0.00    -0.223 A  
HETATM    8  C   UNL     1      -5.767  15.325  67.836  1.00  0.00    -0.139 A  
HETATM    9  C   UNL     1      -5.163  15.929  68.935  1.00  0.00    -0.103 A  
HETATM   10  N   UNL     1      -6.545  17.891  68.654  1.00  0.00    -0.211 NA 
HETATM   11  C   UNL     1      -5.580  17.200  69.299  1.00  0.00    -0.177 A  
BRANCH   8  12
HETATM   12  O   UNL     1      -5.351  14.052  67.522  1.00  0.00    -0.335 OA 
BRANCH  12  13
HETATM   13  C   UNL     1      -6.173  12.980  67.802  1.00  0.00    -0.149 A  
HETATM   14  C   UNL     1      -6.467  12.132  66.732  1.00  0.00     0.118 A  
HETATM   15  C   UNL     1      -7.333  11.060  66.924  1.00  0.00    -0.133 A  
HETATM   16  F   UNL     1      -7.623  10.256  65.889  1.00  0.00    -0.109 F  
HETATM   17  C   UNL     1      -7.959  10.851  68.155  1.00  0.00    -0.117 A  
HETATM   18  C   UNL     1      -6.777  12.766  69.046  1.00  0.00    -0.096 A  
HETATM   19  C   UNL     1      -7.664  11.698  69.225  1.00  0.00     0.160 A  
BRANCH  17  20
HETATM   20  N   UNL     1      -8.893   9.798  68.285  1.00  0.00    -0.119 N  
HETATM   21  H   UNL     1      -8.622   8.935  68.757  1.00  0.00     0.000 HD 
BRANCH  20  22
HETATM   22  C   UNL     1     -10.177   9.933  67.773  1.00  0.00    -0.197 C  
HETATM   23  O   UNL     1     -10.857   9.008  67.336  1.00  0.00    -0.230 OA 
BRANCH  22  24
HETATM   24  N   UNL     1     -10.586  11.252  67.809  1.00  0.00    -0.192 N  
HETATM   25  H   UNL     1     -10.422  11.845  66.996  1.00  0.00     0.000 HD 
BRANCH  24  26
HETATM   26  C   UNL     1     -11.222  11.799  68.940  1.00  0.00    -0.253 A  
HETATM   27  C   UNL     1     -11.915  10.943  69.791  1.00  0.00    -0.423 A  
HETATM   28  C   UNL     1     -12.557  11.458  70.916  1.00  0.00    -0.453 A  
HETATM   29  C   UNL     1     -12.576  12.837  71.164  1.00  0.00    -0.271 A  
HETATM   30 CL   UNL     1     -13.429  13.339  72.577  1.00  0.00    -0.669 Cl 
HETATM   31  C   UNL     1     -11.931  13.721  70.292  1.00  0.00    -0.397 A  
HETATM   32  C   UNL     1     -11.221  13.176  69.194  1.00  0.00    -0.303 A  
HETATM   33  C   UNL     1     -11.976  15.223  70.422  1.00  0.00    -0.335 C  
HETATM   34  F   UNL     1     -10.737  15.766  70.584  1.00  0.00    -0.308 F  
HETATM   35  F   UNL     1     -12.483  15.805  69.293  1.00  0.00    -0.306 F  
HETATM   36  F   UNL     1     -12.728  15.720  71.439  1.00  0.00    -0.409 F  
ENDBRANCH  24  26
ENDBRANCH  22  24
ENDBRANCH  20  22
ENDBRANCH  17  20
ENDBRANCH  12  13
ENDBRANCH   8  12
ENDBRANCH   3   6
TORSDOF 7
ENDMDL
MODEL      177
REMARK 921   NORMALIZED FREE ENERGY PREDICTED BY IDOCK:   -5.22 KCAL/MOL
REMARK 922        TOTAL FREE ENERGY PREDICTED BY IDOCK:   -9.34 KCAL/MOL
REMARK 923 INTER-LIGAND FREE ENERGY PREDICTED BY IDOCK:   -8.72 KCAL/MOL
REMARK 924 INTRA-LIGAND FREE ENERGY PREDICTED BY IDOCK:   -0.62 KCAL/MOL
REMARK 927      BINDING AFFINITY PREDICTED BY RF-SCORE:    0.00 PKD
ROOT
HETATM    1  C   UNL     1     -10.229   5.154  67.273  1.00  0.00    -0.190 C  
HETATM    2  N   UNL     1     -10.730   5.901  68.394  1.00  0.00    -0.255 N  
HETATM    3  C   UNL     1      -9.924   6.195  69.473  1.00  0.00    -0.166 C  
HETATM    4  H   UNL     1     -11.699   6.220  68.391  1.00  0.00     0.000 HD 
HETATM    5  O   UNL     1      -8.737   5.895  69.534  1.00  0.00    -0.115 OA 
ENDROOT
BRANCH   3   6
HETATM    6  C   UNL     1     -10.603   6.913  70.598  1.00  0.00    -0.222 A  
HETATM    7  C   UNL     1     -11.508   7.920  70.293  1.00  0.00    -0.097 A  
HETATM    8  C   UNL     1     -12.160   8.549  71.346  1.00  0.00    -0.303 A  
HETATM    9  C   UNL     1     -11.845   8.200  72.655  1.00  0.00    -0.389 A  
HETATM   10  N   UNL     1     -10.286   6.531  71.866  1.00  0.00    -0.199 NA 
HETATM   11  C   UNL     1     -10.914   7.193  72.862  1.00  0.00    -0.320 A  
BRANCH   8  12
HETATM   12  O   UNL     1     -13.063   9.574  71.178  1.00  0.00    -0.326 OA 
BRANCH  12  13
HETATM   13  C   UNL     1     -12.651  10.755  70.599  1.00  0.00    -0.357 A  
HETATM   14  C   UNL     1     -12.895  11.919  71.331  1.00  0.00    -0.411 A  
HETATM   15  C   UNL     1     -12.557  13.155  70.788  1.00  0.00    -0.260 A  
HETATM   16  F   UNL     1     -12.807  14.271  71.489  1.00  0.00    -0.352 F  
HETATM   17  C   UNL     1     -12.031  13.255  69.498  1.00  0.00    -0.307 A  
HETATM   18  C   UNL     1     -12.102  10.843  69.315  1.00  0.00    -0.332 A  
HETATM   19  C   UNL     1     -11.785  12.091  68.767  1.00  0.00    -0.377 A  
BRANCH  17  20
HETATM   20  N   UNL     1     -11.776  14.535  68.954  1.00  0.00    -0.302 N  
HETATM   21  H   UNL     1     -11.846  15.362  69.547  1.00  0.00     0.000 HD 
BRANCH  20  22
HETATM   22  C   UNL     1     -11.431  14.671  67.616  1.00  0.00    -0.346 C  
HETATM   23  O   UNL     1     -12.231  14.853  66.702  1.00  0.00    -0.130 OA 
BRANCH  22  24
HETATM   24  N   UNL     1     -10.064  14.564  67.446  1.00  0.00    -0.235 N  
HETATM   25  H   UNL     1      -9.683  13.733  66.993  1.00  0.00     0.000 HD 
BRANCH  24  26
HETATM   26  C   UNL     1      -9.183  15.572  67.883  1.00  0.00    -0.187 A  
HETATM   27  C   UNL     1      -7.967  15.194  68.445  1.00  0.00    -0.136 A  
HETATM   28  C   UNL     1      -7.078  16.172  68.888  1.00  0.00    -0.166 A  
HETATM   29  C   UNL     1      -7.420  17.529  68.842  1.00  0.00    -0.234 A  
HETATM   30 CL   UNL     1      -6.238  18.629  69.448  1.00  0.00    -0.270 Cl 
HETATM   31  C   UNL     1      -8.660  17.928  68.330  1.00  0.00    -0.277 A  
HETATM   32  C   UNL     1      -9.522  16.929  67.815  1.00  0.00    -0.237 A  
HETATM   33  C   UNL     1      -9.157  19.352  68.326  1.00  0.00    -0.345 C  
HETATM   34  F   UNL     1      -9.408  19.810  67.068  1.00  0.00    -0.352 F  
HETATM   35  F   UNL     1     -10.343  19.468  68.998  1.00  0.00    -0.468 F  
HETATM   36  F   UNL     1      -8.342  20.279  68.895  1.00  0.00    -0.062 F  
ENDBRANCH  24  26
ENDBRANCH  22  24
ENDBRANCH  20  22
ENDBRANCH  17  20
ENDBRANCH  12  13
ENDBRANCH   8  12
ENDBRANCH   3   6
TORSDOF 7
ENDMDL
MODEL      178
REMARK 921   NORMALIZED FREE ENERGY PREDICTED BY IDOCK:   -5.22 KCAL/MOL
REMARK 922        TOTAL FREE ENERGY PREDICTED BY IDOCK:   -9.34 KCAL/MOL
REMARK 923 INTER-LIGAND FREE ENERGY PREDICTED BY IDOCK:   -8.30 KCAL/MOL
REMARK 924 INTRA-LIGAND FREE ENERGY PREDICTED BY IDOCK:   -1.04 KCAL/MOL
REMARK 927      BINDING AFFINITY PREDICTED BY RF-SCORE:    0.00 PKD
ROOT
HETATM    1  C   UNL     1      -9.559   2.289  72.137  1.00  0.00    -0.118 C  
HETATM    2  N   UNL     1     -10.017   3.619  71.844  1.00  0.00    -0.171 N  
HETATM    3  C   UNL     1      -9.327   4.726  72.290  1.00  0.00    -0.127 C  
HETATM    4  H   UNL     1     -10.868   3.747  71.297  1.00  0.00     0.000 HD 
HETATM    5  O   UNL     1      -8.269   4.662  72.909  1.00  0.00    -0.099 OA 
ENDROOT
BRANCH   3   6
HETATM    6  C   UNL     1      -9.963   6.044  71.974  1.00  0.00    -0.170 A  
HETATM    7  C   UNL     1      -9.986   6.472  70.654  1.00  0.00    -0.206 A  
HETATM    8  C   UNL     1     -10.616   7.677  70.371  1.00  0.00    -0.230 A  
HETATM    9  C   UNL     1     -11.142   8.436  71.412  1.00  0.00    -0.312 A  
HETATM   10  N   UNL     1     -10.487   6.750  73.014  1.00  0.00    -0.233 NA 
HETATM   11  C   UNL     1     -11.058   7.934  72.702  1.00  0.00    -0.385 A  
BRANCH   8  12
HETATM   12  O   UNL     1     -10.689   8.219  69.109  1.00  0.00    -0.196 OA 
BRANCH  12  13
HETATM   13  C   UNL     1     -10.164   9.473  68.877  1.00  0.00    -0.199 A  
HETATM   14  C   UNL     1     -11.000  10.381  68.224  1.00  0.00    -0.321 A  
HETATM   15  C   UNL     1     -10.522  11.649  67.907  1.00  0.00    -0.192 A  
HETATM   16  F   UNL     1     -11.325  12.512  67.267  1.00  0.00    -0.279 F  
HETATM   17  C   UNL     1      -9.200  12.009  68.178  1.00  0.00    -0.195 A  
HETATM   18  C   UNL     1      -8.844   9.833  69.175  1.00  0.00    -0.160 A  
HETATM   19  C   UNL     1      -8.364  11.102  68.833  1.00  0.00    -0.101 A  
BRANCH  17  20
HETATM   20  N   UNL     1      -8.732  13.278  67.767  1.00  0.00    -0.181 N  
HETATM   21  H   UNL     1      -8.454  13.427  66.797  1.00  0.00     0.000 HD 
BRANCH  20  22
HETATM   22  C   UNL     1      -8.650  14.323  68.678  1.00  0.00    -0.149 C  
HETATM   23  O   UNL     1      -7.649  14.604  69.332  1.00  0.00    -0.144 OA 
BRANCH  22  24
HETATM   24  N   UNL     1      -9.851  15.002  68.759  1.00  0.00    -0.226 N  
HETATM   25  H   UNL     1     -10.577  14.653  69.385  1.00  0.00     0.000 HD 
BRANCH  24  26
HETATM   26  C   UNL     1     -10.099  16.161  67.999  1.00  0.00    -0.242 A  
HETATM   27  C   UNL     1     -10.521  16.015  66.682  1.00  0.00    -0.304 A  
HETATM   28  C   UNL     1     -10.770  17.147  65.907  1.00  0.00    -0.132 A  
HETATM   29  C   UNL     1     -10.532  18.431  66.413  1.00  0.00    -0.383 A  
HETATM   30 CL   UNL     1     -10.857  19.740  65.338  1.00  0.00    -0.360 Cl 
HETATM   31  C   UNL     1     -10.056  18.599  67.718  1.00  0.00    -0.408 A  
HETATM   32  C   UNL     1      -9.878  17.444  68.517  1.00  0.00    -0.320 A  
HETATM   33  C   UNL     1      -9.680  19.931  68.318  1.00  0.00    -0.368 C  
HETATM   34  F   UNL     1     -10.420  20.230  69.422  1.00  0.00    -0.458 F  
HETATM   35  F   UNL     1      -8.379  19.937  68.740  1.00  0.00    -0.331 F  
HETATM   36  F   UNL     1      -9.787  21.014  67.503  1.00  0.00    -0.601 F  
ENDBRANCH  24  26
ENDBRANCH  22  24
ENDBRANCH  20  22
ENDBRANCH  17  20
ENDBRANCH  12  13
ENDBRANCH   8  12
ENDBRANCH   3   6
TORSDOF 7
ENDMDL
MODEL      179
REMARK 921   NORMALIZED FREE ENERGY PREDICTED BY IDOCK:   -5.21 KCAL/MOL
REMARK 922        TOTAL FREE ENERGY PREDICTED BY IDOCK:   -9.33 KCAL/MOL
REMARK 923 INTER-LIGAND FREE ENERGY PREDICTED BY IDOCK:   -8.02 KCAL/MOL
REMARK 924 INTRA-LIGAND FREE ENERGY PREDICTED BY IDOCK:   -1.31 KCAL/MOL
REMARK 927      BINDING AFFINITY PREDICTED BY RF-SCORE:    0.00 PKD
ROOT
HETATM    1  C   UNL     1      -9.712  11.075  62.939  1.00  0.00    -0.323 C  
HETATM    2  N   UNL     1      -9.276  11.276  64.293  1.00  0.00    -0.388 N  
HETATM    3  C   UNL     1      -8.728  10.245  65.026  1.00  0.00    -0.182 C  
HETATM    4  H   UNL     1      -9.374  12.197  64.720  1.00  0.00     0.000 HD 
HETATM    5  O   UNL     1      -8.527   9.123  64.574  1.00  0.00    -0.163 OA 
ENDROOT
BRANCH   3   6
HETATM    6  C   UNL     1      -8.390  10.582  66.445  1.00  0.00    -0.145 A  
HETATM    7  C   UNL     1      -7.626  11.714  66.696  1.00  0.00    -0.050 A  
HETATM    8  C   UNL     1      -7.355  12.036  68.020  1.00  0.00    -0.102 A  
HETATM    9  C   UNL     1      -7.798  11.194  69.035  1.00  0.00    -0.103 A  
HETATM   10  N   UNL     1      -8.857   9.748  67.415  1.00  0.00    -0.132 NA 
HETATM   11  C   UNL     1      -8.541  10.076  68.686  1.00  0.00    -0.123 A  
BRANCH   8  12
HETATM   12  O   UNL     1      -6.594  13.118  68.399  1.00  0.00    -0.076 OA 
BRANCH  12  13
HETATM   13  C   UNL     1      -7.033  14.393  68.111  1.00  0.00    -0.124 A  
HETATM   14  C   UNL     1      -6.783  15.366  69.081  1.00  0.00    -0.138 A  
HETATM   15  C   UNL     1      -7.243  16.664  68.885  1.00  0.00    -0.219 A  
HETATM   16  F   UNL     1      -7.013  17.592  69.827  1.00  0.00    -0.159 F  
HETATM   17  C   UNL     1      -8.003  16.997  67.762  1.00  0.00    -0.185 A  
HETATM   18  C   UNL     1      -7.773  14.722  66.969  1.00  0.00    -0.038 A  
HETATM   19  C   UNL     1      -8.251  16.025  66.790  1.00  0.00    -0.307 A  
BRANCH  17  20
HETATM   20  N   UNL     1      -8.519  18.308  67.641  1.00  0.00    -0.253 N  
HETATM   21  H   UNL     1      -7.891  19.109  67.714  1.00  0.00     0.000 HD 
BRANCH  20  22
HETATM   22  C   UNL     1      -9.875  18.510  67.424  1.00  0.00    -0.312 C  
HETATM   23  O   UNL     1     -10.356  19.006  66.408  1.00  0.00    -0.390 OA 
BRANCH  22  24
HETATM   24  N   UNL     1     -10.617  18.086  68.511  1.00  0.00    -0.338 N  
HETATM   25  H   UNL     1     -10.909  18.770  69.209  1.00  0.00     0.000 HD 
BRANCH  24  26
HETATM   26  C   UNL     1     -10.979  16.736  68.679  1.00  0.00    -0.298 A  
HETATM   27  C   UNL     1     -10.859  16.168  69.943  1.00  0.00    -0.355 A  
HETATM   28  C   UNL     1     -11.208  14.832  70.137  1.00  0.00    -0.256 A  
HETATM   29  C   UNL     1     -11.609  14.031  69.060  1.00  0.00    -0.306 A  
HETATM   30 CL   UNL     1     -11.985  12.390  69.437  1.00  0.00    -0.344 Cl 
HETATM   31  C   UNL     1     -11.685  14.568  67.770  1.00  0.00    -0.403 A  
HETATM   32  C   UNL     1     -11.399  15.945  67.602  1.00  0.00    -0.151 A  
HETATM   33  C   UNL     1     -12.013  13.764  66.536  1.00  0.00    -0.434 C  
HETATM   34  F   UNL     1     -13.134  14.215  65.907  1.00  0.00    -0.525 F  
HETATM   35  F   UNL     1     -11.014  13.851  65.606  1.00  0.00    -0.284 F  
HETATM   36  F   UNL     1     -12.207  12.431  66.716  1.00  0.00    -0.413 F  
ENDBRANCH  24  26
ENDBRANCH  22  24
ENDBRANCH  20  22
ENDBRANCH  17  20
ENDBRANCH  12  13
ENDBRANCH   8  12
ENDBRANCH   3   6
TORSDOF 7
ENDMDL
MODEL      180
REMARK 921   NORMALIZED FREE ENERGY PREDICTED BY IDOCK:   -5.21 KCAL/MOL
REMARK 922        TOTAL FREE ENERGY PREDICTED BY IDOCK:   -9.32 KCAL/MOL
REMARK 923 INTER-LIGAND FREE ENERGY PREDICTED BY IDOCK:   -7.63 KCAL/MOL
REMARK 924 INTRA-LIGAND FREE ENERGY PREDICTED BY IDOCK:   -1.70 KCAL/MOL
REMARK 927      BINDING AFFINITY PREDICTED BY RF-SCORE:    0.00 PKD
ROOT
HETATM    1  C   UNL     1     -12.706  13.334  65.234  1.00  0.00    -0.412 C  
HETATM    2  N   UNL     1     -11.858  12.488  66.026  1.00  0.00    -0.423 N  
HETATM    3  C   UNL     1     -10.682  11.979  65.517  1.00  0.00    -0.276 C  
HETATM    4  H   UNL     1     -12.129  12.259  66.983  1.00  0.00     0.000 HD 
HETATM    5  O   UNL     1     -10.256  12.245  64.398  1.00  0.00    -0.304 OA 
ENDROOT
BRANCH   3   6
HETATM    6  C   UNL     1      -9.940  11.053  66.431  1.00  0.00    -0.222 A  
HETATM    7  C   UNL     1      -8.634  11.367  66.779  1.00  0.00    -0.166 A  
HETATM    8  C   UNL     1      -7.974  10.521  67.660  1.00  0.00    -0.106 A  
HETATM    9  C   UNL     1      -8.610   9.367  68.110  1.00  0.00    -0.120 A  
HETATM   10  N   UNL     1     -10.601   9.946  66.869  1.00  0.00    -0.209 NA 
HETATM   11  C   UNL     1      -9.911   9.128  67.694  1.00  0.00    -0.172 A  
BRANCH   8  12
HETATM   12  O   UNL     1      -6.673  10.710  68.066  1.00  0.00    -0.063 OA 
BRANCH  12  13
HETATM   13  C   UNL     1      -6.237  11.979  68.382  1.00  0.00    -0.051 A  
HETATM   14  C   UNL     1      -6.490  12.412  69.685  1.00  0.00    -0.063 A  
HETATM   15  C   UNL     1      -6.128  13.702  70.063  1.00  0.00    -0.137 A  
HETATM   16  F   UNL     1      -6.387  14.117  71.312  1.00  0.00    -0.202 F  
HETATM   17  C   UNL     1      -5.568  14.591  69.143  1.00  0.00    -0.091 A  
HETATM   18  C   UNL     1      -5.654  12.854  67.459  1.00  0.00    -0.084 A  
HETATM   19  C   UNL     1      -5.313  14.157  67.840  1.00  0.00    -0.071 A  
BRANCH  17  20
HETATM   20  N   UNL     1      -5.289  15.916  69.546  1.00  0.00    -0.109 N  
HETATM   21  H   UNL     1      -4.452  16.114  70.095  1.00  0.00     0.000 HD 
BRANCH  20  22
HETATM   22  C   UNL     1      -6.148  16.950  69.199  1.00  0.00    -0.184 C  
HETATM   23  O   UNL     1      -5.789  18.066  68.831  1.00  0.00    -0.189 OA 
BRANCH  22  24
HETATM   24  N   UNL     1      -7.468  16.560  69.334  1.00  0.00    -0.175 N  
HETATM   25  H   UNL     1      -7.795  16.223  70.239  1.00  0.00     0.000 HD 
BRANCH  24  26
HETATM   26  C   UNL     1      -8.370  16.617  68.255  1.00  0.00    -0.198 A  
HETATM   27  C   UNL     1      -8.622  15.452  67.537  1.00  0.00    -0.187 A  
HETATM   28  C   UNL     1      -9.509  15.481  66.462  1.00  0.00    -0.299 A  
HETATM   29  C   UNL     1     -10.096  16.683  66.047  1.00  0.00    -0.340 A  
HETATM   30 CL   UNL     1     -11.152  16.579  64.687  1.00  0.00    -0.311 Cl 
HETATM   31  C   UNL     1      -9.815  17.876  66.722  1.00  0.00    -0.333 A  
HETATM   32  C   UNL     1      -8.971  17.818  67.857  1.00  0.00    -0.255 A  
HETATM   33  C   UNL     1     -10.322  19.231  66.294  1.00  0.00    -0.480 C  
HETATM   34  F   UNL     1     -11.088  19.824  67.251  1.00  0.00    -0.552 F  
HETATM   35  F   UNL     1      -9.290  20.099  66.065  1.00  0.00    -0.423 F  
HETATM   36  F   UNL     1     -11.067  19.268  65.158  1.00  0.00    -0.422 F  
ENDBRANCH  24  26
ENDBRANCH  22  24
ENDBRANCH  20  22
ENDBRANCH  17  20
ENDBRANCH  12  13
ENDBRANCH   8  12
ENDBRANCH   3   6
TORSDOF 7
ENDMDL
MODEL      181
REMARK 921   NORMALIZED FREE ENERGY PREDICTED BY IDOCK:   -5.21 KCAL/MOL
REMARK 922        TOTAL FREE ENERGY PREDICTED BY IDOCK:   -9.32 KCAL/MOL
REMARK 923 INTER-LIGAND FREE ENERGY PREDICTED BY IDOCK:   -8.24 KCAL/MOL
REMARK 924 INTRA-LIGAND FREE ENERGY PREDICTED BY IDOCK:   -1.08 KCAL/MOL
REMARK 927      BINDING AFFINITY PREDICTED BY RF-SCORE:    0.00 PKD
ROOT
HETATM    1  C   UNL     1     -14.280   7.344  71.608  1.00  0.00    -0.440 C  
HETATM    2  N   UNL     1     -12.864   7.578  71.670  1.00  0.00    -0.349 N  
HETATM    3  C   UNL     1     -12.010   6.645  72.219  1.00  0.00    -0.222 C  
HETATM    4  H   UNL     1     -12.483   8.449  71.300  1.00  0.00     0.000 HD 
HETATM    5  O   UNL     1     -12.378   5.552  72.637  1.00  0.00    -0.085 OA 
ENDROOT
BRANCH   3   6
HETATM    6  C   UNL     1     -10.572   7.058  72.283  1.00  0.00    -0.213 A  
HETATM    7  C   UNL     1      -9.836   7.088  71.107  1.00  0.00    -0.180 A  
HETATM    8  C   UNL     1      -8.515   7.512  71.177  1.00  0.00    -0.117 A  
HETATM    9  C   UNL     1      -7.961   7.828  72.413  1.00  0.00    -0.141 A  
HETATM   10  N   UNL     1     -10.069   7.381  73.506  1.00  0.00    -0.327 NA 
HETATM   11  C   UNL     1      -8.770   7.752  73.537  1.00  0.00    -0.241 A  
BRANCH   8  12
HETATM   12  O   UNL     1      -7.675   7.567  70.089  1.00  0.00    -0.086 OA 
BRANCH  12  13
HETATM   13  C   UNL     1      -8.158   8.020  68.879  1.00  0.00    -0.124 A  
HETATM   14  C   UNL     1      -8.714   7.055  68.036  1.00  0.00    -0.126 A  
HETATM   15  C   UNL     1      -9.173   7.426  66.776  1.00  0.00    -0.156 A  
HETATM   16  F   UNL     1      -9.693   6.492  65.965  1.00  0.00    -0.156 F  
HETATM   17  C   UNL     1      -9.034   8.737  66.317  1.00  0.00    -0.173 A  
HETATM   18  C   UNL     1      -8.036   9.342  68.437  1.00  0.00    -0.109 A  
HETATM   19  C   UNL     1      -8.481   9.703  67.160  1.00  0.00    -0.131 A  
BRANCH  17  20
HETATM   20  N   UNL     1      -9.441   9.054  65.001  1.00  0.00    -0.430 N  
HETATM   21  H   UNL     1      -9.843   8.330  64.405  1.00  0.00     0.000 HD 
BRANCH  20  22
HETATM   22  C   UNL     1      -9.296  10.347  64.515  1.00  0.00    -0.264 C  
HETATM   23  O   UNL     1      -8.235  10.839  64.140  1.00  0.00    -0.044 OA 
BRANCH  22  24
HETATM   24  N   UNL     1     -10.507  11.014  64.520  1.00  0.00    -0.346 N  
HETATM   25  H   UNL     1     -11.220  10.752  63.839  1.00  0.00     0.000 HD 
BRANCH  24  26
HETATM   26  C   UNL     1     -10.780  12.045  65.439  1.00  0.00    -0.287 A  
HETATM   27  C   UNL     1     -11.453  11.726  66.614  1.00  0.00    -0.337 A  
HETATM   28  C   UNL     1     -11.740  12.728  67.540  1.00  0.00    -0.422 A  
HETATM   29  C   UNL     1     -11.423  14.066  67.272  1.00  0.00    -0.348 A  
HETATM   30 CL   UNL     1     -11.858  15.206  68.492  1.00  0.00    -0.336 Cl 
HETATM   31  C   UNL     1     -10.794  14.416  66.072  1.00  0.00    -0.309 A  
HETATM   32  C   UNL     1     -10.443  13.378  65.175  1.00  0.00    -0.358 A  
HETATM   33  C   UNL     1     -10.500  15.835  65.652  1.00  0.00    -0.383 C  
HETATM   34  F   UNL     1      -9.169  16.055  65.466  1.00  0.00    -0.314 F  
HETATM   35  F   UNL     1     -11.089  16.131  64.453  1.00  0.00    -0.473 F  
HETATM   36  F   UNL     1     -10.917  16.815  66.497  1.00  0.00    -0.212 F  
ENDBRANCH  24  26
ENDBRANCH  22  24
ENDBRANCH  20  22
ENDBRANCH  17  20
ENDBRANCH  12  13
ENDBRANCH   8  12
ENDBRANCH   3   6
TORSDOF 7
ENDMDL
MODEL      182
REMARK 921   NORMALIZED FREE ENERGY PREDICTED BY IDOCK:   -5.20 KCAL/MOL
REMARK 922        TOTAL FREE ENERGY PREDICTED BY IDOCK:   -9.32 KCAL/MOL
REMARK 923 INTER-LIGAND FREE ENERGY PREDICTED BY IDOCK:   -7.41 KCAL/MOL
REMARK 924 INTRA-LIGAND FREE ENERGY PREDICTED BY IDOCK:   -1.91 KCAL/MOL
REMARK 927      BINDING AFFINITY PREDICTED BY RF-SCORE:    0.00 PKD
ROOT
HETATM    1  C   UNL     1     -11.130   4.348  73.638  1.00  0.00    -0.278 C  
HETATM    2  N   UNL     1     -10.482   4.090  72.382  1.00  0.00    -0.133 N  
HETATM    3  C   UNL     1      -9.111   3.978  72.297  1.00  0.00    -0.115 C  
HETATM    4  H   UNL     1     -11.046   3.987  71.539  1.00  0.00     0.000 HD 
HETATM    5  O   UNL     1      -8.364   4.036  73.268  1.00  0.00    -0.088 OA 
ENDROOT
BRANCH   3   6
HETATM    6  C   UNL     1      -8.573   3.783  70.913  1.00  0.00    -0.072 A  
HETATM    7  C   UNL     1      -9.346   4.192  69.835  1.00  0.00    -0.235 A  
HETATM    8  C   UNL     1      -8.816   4.042  68.560  1.00  0.00    -0.107 A  
HETATM    9  C   UNL     1      -7.572   3.438  68.401  1.00  0.00    -0.056 A  
HETATM   10  N   UNL     1      -7.344   3.209  70.795  1.00  0.00    -0.037 NA 
HETATM   11  C   UNL     1      -6.880   3.046  69.537  1.00  0.00    -0.034 A  
BRANCH   8  12
HETATM   12  O   UNL     1      -9.488   4.389  67.411  1.00  0.00    -0.148 OA 
BRANCH  12  13
HETATM   13  C   UNL     1      -9.683   5.720  67.113  1.00  0.00    -0.136 A  
HETATM   14  C   UNL     1      -8.569   6.416  66.637  1.00  0.00    -0.121 A  
HETATM   15  C   UNL     1      -8.674   7.776  66.365  1.00  0.00    -0.150 A  
HETATM   16  F   UNL     1      -7.596   8.442  65.922  1.00  0.00    -0.076 F  
HETATM   17  C   UNL     1      -9.858   8.472  66.616  1.00  0.00    -0.272 A  
HETATM   18  C   UNL     1     -10.883   6.403  67.344  1.00  0.00    -0.457 A  
HETATM   19  C   UNL     1     -10.973   7.776  67.089  1.00  0.00    -0.047 A  
BRANCH  17  20
HETATM   20  N   UNL     1      -9.898   9.868  66.401  1.00  0.00    -0.212 N  
HETATM   21  H   UNL     1      -9.520  10.260  65.539  1.00  0.00     0.000 HD 
BRANCH  20  22
HETATM   22  C   UNL     1     -10.449  10.709  67.359  1.00  0.00    -0.235 C  
HETATM   23  O   UNL     1     -11.555  11.237  67.274  1.00  0.00    -0.527 OA 
BRANCH  22  24
HETATM   24  N   UNL     1      -9.581  10.883  68.420  1.00  0.00    -0.170 N  
HETATM   25  H   UNL     1      -8.788  11.515  68.315  1.00  0.00     0.000 HD 
BRANCH  24  26
HETATM   26  C   UNL     1      -9.763  10.209  69.643  1.00  0.00    -0.221 A  
HETATM   27  C   UNL     1      -8.686   9.517  70.187  1.00  0.00    -0.258 A  
HETATM   28  C   UNL     1      -8.839   8.838  71.396  1.00  0.00    -0.292 A  
HETATM   29  C   UNL     1     -10.084   8.783  72.035  1.00  0.00    -0.327 A  
HETATM   30 CL   UNL     1     -10.139   7.887  73.509  1.00  0.00    -0.274 Cl 
HETATM   31  C   UNL     1     -11.194   9.428  71.478  1.00  0.00    -0.457 A  
HETATM   32  C   UNL     1     -11.005  10.174  70.289  1.00  0.00    -0.380 A  
HETATM   33  C   UNL     1     -12.592   9.346  72.039  1.00  0.00    -0.384 C  
HETATM   34  F   UNL     1     -13.083  10.568  72.387  1.00  0.00    -0.508 F  
HETATM   35  F   UNL     1     -13.471   8.851  71.116  1.00  0.00    -0.322 F  
HETATM   36  F   UNL     1     -12.759   8.561  73.136  1.00  0.00    -0.279 F  
ENDBRANCH  24  26
ENDBRANCH  22  24
ENDBRANCH  20  22
ENDBRANCH  17  20
ENDBRANCH  12  13
ENDBRANCH   8  12
ENDBRANCH   3   6
TORSDOF 7
ENDMDL
MODEL      183
REMARK 921   NORMALIZED FREE ENERGY PREDICTED BY IDOCK:   -5.20 KCAL/MOL
REMARK 922        TOTAL FREE ENERGY PREDICTED BY IDOCK:   -9.32 KCAL/MOL
REMARK 923 INTER-LIGAND FREE ENERGY PREDICTED BY IDOCK:   -8.01 KCAL/MOL
REMARK 924 INTRA-LIGAND FREE ENERGY PREDICTED BY IDOCK:   -1.31 KCAL/MOL
REMARK 927      BINDING AFFINITY PREDICTED BY RF-SCORE:    0.00 PKD
ROOT
HETATM    1  C   UNL     1     -10.737   5.401  70.206  1.00  0.00    -0.216 C  
HETATM    2  N   UNL     1     -10.104   5.350  68.917  1.00  0.00    -0.183 N  
HETATM    3  C   UNL     1     -10.048   6.463  68.106  1.00  0.00    -0.149 C  
HETATM    4  H   UNL     1      -9.688   4.476  68.596  1.00  0.00     0.000 HD 
HETATM    5  O   UNL     1     -10.476   7.565  68.434  1.00  0.00    -0.194 OA 
ENDROOT
BRANCH   3   6
HETATM    6  C   UNL     1      -9.425   6.242  66.762  1.00  0.00    -0.144 A  
HETATM    7  C   UNL     1      -8.876   7.328  66.096  1.00  0.00    -0.181 A  
HETATM    8  C   UNL     1      -8.265   7.099  64.870  1.00  0.00    -0.071 A  
HETATM    9  C   UNL     1      -8.277   5.819  64.326  1.00  0.00    -0.106 A  
HETATM   10  N   UNL     1      -9.435   4.972  66.270  1.00  0.00    -0.147 NA 
HETATM   11  C   UNL     1      -8.865   4.798  65.058  1.00  0.00    -0.152 A  
BRANCH   8  12
HETATM   12  O   UNL     1      -7.703   8.093  64.103  1.00  0.00    -0.120 OA 
BRANCH  12  13
HETATM   13  C   UNL     1      -8.398   9.265  63.891  1.00  0.00    -0.179 A  
HETATM   14  C   UNL     1      -8.553  10.099  65.000  1.00  0.00    -0.178 A  
HETATM   15  C   UNL     1      -9.290  11.274  64.877  1.00  0.00    -0.159 A  
HETATM   16  F   UNL     1      -9.448  12.065  65.950  1.00  0.00    -0.226 F  
HETATM   17  C   UNL     1      -9.927  11.603  63.679  1.00  0.00    -0.379 A  
HETATM   18  C   UNL     1      -9.013   9.598  62.678  1.00  0.00    -0.274 A  
HETATM   19  C   UNL     1      -9.770  10.769  62.569  1.00  0.00    -0.176 A  
BRANCH  17  20
HETATM   20  N   UNL     1     -10.731  12.764  63.620  1.00  0.00    -0.509 N  
HETATM   21  H   UNL     1     -10.295  13.677  63.491  1.00  0.00     0.000 HD 
BRANCH  20  22
HETATM   22  C   UNL     1     -12.111  12.667  63.738  1.00  0.00    -0.522 C  
HETATM   23  O   UNL     1     -12.799  11.794  63.215  1.00  0.00    -0.627 OA 
BRANCH  22  24
HETATM   24  N   UNL     1     -12.612  13.693  64.517  1.00  0.00    -0.643 N  
HETATM   25  H   UNL     1     -13.247  14.370  64.097  1.00  0.00     0.000 HD 
BRANCH  24  26
HETATM   26  C   UNL     1     -12.268  13.826  65.876  1.00  0.00    -0.466 A  
HETATM   27  C   UNL     1     -11.875  15.076  66.343  1.00  0.00    -0.039 A  
HETATM   28  C   UNL     1     -11.526  15.236  67.683  1.00  0.00    -0.287 A  
HETATM   29  C   UNL     1     -11.496  14.138  68.553  1.00  0.00    -0.300 A  
HETATM   30 CL   UNL     1     -11.021  14.472  70.177  1.00  0.00    -0.127 Cl 
HETATM   31  C   UNL     1     -11.836  12.861  68.092  1.00  0.00    -0.380 A  
HETATM   32  C   UNL     1     -12.260  12.729  66.747  1.00  0.00    -0.134 A  
HETATM   33  C   UNL     1     -11.743  11.606  68.924  1.00  0.00    -0.334 C  
HETATM   34  F   UNL     1     -12.948  10.986  69.063  1.00  0.00     0.066 F  
HETATM   35  F   UNL     1     -10.923  10.681  68.340  1.00  0.00    -0.210 F  
HETATM   36  F   UNL     1     -11.261  11.752  70.186  1.00  0.00    -0.261 F  
ENDBRANCH  24  26
ENDBRANCH  22  24
ENDBRANCH  20  22
ENDBRANCH  17  20
ENDBRANCH  12  13
ENDBRANCH   8  12
ENDBRANCH   3   6
TORSDOF 7
ENDMDL
MODEL      184
REMARK 921   NORMALIZED FREE ENERGY PREDICTED BY IDOCK:   -5.20 KCAL/MOL
REMARK 922        TOTAL FREE ENERGY PREDICTED BY IDOCK:   -9.31 KCAL/MOL
REMARK 923 INTER-LIGAND FREE ENERGY PREDICTED BY IDOCK:   -8.07 KCAL/MOL
REMARK 924 INTRA-LIGAND FREE ENERGY PREDICTED BY IDOCK:   -1.24 KCAL/MOL
REMARK 927      BINDING AFFINITY PREDICTED BY RF-SCORE:    0.00 PKD
ROOT
HETATM    1  C   UNL     1     -13.410  10.267  71.722  1.00  0.00    -0.375 C  
HETATM    2  N   UNL     1     -12.782  11.511  71.371  1.00  0.00    -0.393 N  
HETATM    3  C   UNL     1     -13.258  12.712  71.855  1.00  0.00    -0.403 C  
HETATM    4  H   UNL     1     -11.971  11.507  70.753  1.00  0.00     0.000 HD 
HETATM    5  O   UNL     1     -14.193  12.803  72.643  1.00  0.00    -0.420 OA 
ENDROOT
BRANCH   3   6
HETATM    6  C   UNL     1     -12.551  13.929  71.345  1.00  0.00    -0.361 A  
HETATM    7  C   UNL     1     -12.304  14.033  69.983  1.00  0.00    -0.397 A  
HETATM    8  C   UNL     1     -11.685  15.186  69.520  1.00  0.00    -0.327 A  
HETATM    9  C   UNL     1     -11.279  16.159  70.428  1.00  0.00    -0.394 A  
HETATM   10  N   UNL     1     -12.188  14.870  72.259  1.00  0.00    -0.344 NA 
HETATM   11  C   UNL     1     -11.554  15.960  71.773  1.00  0.00    -0.455 A  
BRANCH   8  12
HETATM   12  O   UNL     1     -11.368  15.401  68.198  1.00  0.00    -0.324 OA 
BRANCH  12  13
HETATM   13  C   UNL     1     -10.671  14.438  67.500  1.00  0.00    -0.271 A  
HETATM   14  C   UNL     1     -11.401  13.709  66.559  1.00  0.00    -0.335 A  
HETATM   15  C   UNL     1     -10.780  12.682  65.854  1.00  0.00    -0.266 A  
HETATM   16  F   UNL     1     -11.491  11.976  64.961  1.00  0.00    -0.352 F  
HETATM   17  C   UNL     1      -9.454  12.330  66.113  1.00  0.00    -0.217 A  
HETATM   18  C   UNL     1      -9.334  14.108  67.750  1.00  0.00    -0.200 A  
HETATM   19  C   UNL     1      -8.723  13.060  67.053  1.00  0.00    -0.195 A  
BRANCH  17  20
HETATM   20  N   UNL     1      -8.886  11.230  65.431  1.00  0.00    -0.368 N  
HETATM   21  H   UNL     1      -9.323  10.880  64.578  1.00  0.00     0.000 HD 
BRANCH  20  22
HETATM   22  C   UNL     1      -7.736  10.622  65.917  1.00  0.00    -0.146 C  
HETATM   23  O   UNL     1      -6.592  10.915  65.577  1.00  0.00    -0.049 OA 
BRANCH  22  24
HETATM   24  N   UNL     1      -8.049   9.633  66.830  1.00  0.00    -0.112 N  
HETATM   25  H   UNL     1      -8.669   8.875  66.547  1.00  0.00     0.000 HD 
BRANCH  24  26
HETATM   26  C   UNL     1      -7.534   9.646  68.141  1.00  0.00    -0.082 A  
HETATM   27  C   UNL     1      -6.236  10.105  68.340  1.00  0.00    -0.048 A  
HETATM   28  C   UNL     1      -5.701  10.126  69.627  1.00  0.00    -0.038 A  
HETATM   29  C   UNL     1      -6.426   9.623  70.715  1.00  0.00    -0.104 A  
HETATM   30 CL   UNL     1      -5.634   9.685  72.246  1.00  0.00     0.008 Cl 
HETATM   31  C   UNL     1      -7.714   9.108  70.528  1.00  0.00    -0.142 A  
HETATM   32  C   UNL     1      -8.272   9.161  69.228  1.00  0.00    -0.118 A  
HETATM   33  C   UNL     1      -8.533   8.459  71.617  1.00  0.00    -0.163 C  
HETATM   34  F   UNL     1      -9.709   9.110  71.837  1.00  0.00    -0.365 F  
HETATM   35  F   UNL     1      -8.882   7.180  71.282  1.00  0.00    -0.128 F  
HETATM   36  F   UNL     1      -7.943   8.352  72.836  1.00  0.00    -0.189 F  
ENDBRANCH  24  26
ENDBRANCH  22  24
ENDBRANCH  20  22
ENDBRANCH  17  20
ENDBRANCH  12  13
ENDBRANCH   8  12
ENDBRANCH   3   6
TORSDOF 7
ENDMDL
MODEL      185
REMARK 921   NORMALIZED FREE ENERGY PREDICTED BY IDOCK:   -5.19 KCAL/MOL
REMARK 922        TOTAL FREE ENERGY PREDICTED BY IDOCK:   -9.30 KCAL/MOL
REMARK 923 INTER-LIGAND FREE ENERGY PREDICTED BY IDOCK:   -8.07 KCAL/MOL
REMARK 924 INTRA-LIGAND FREE ENERGY PREDICTED BY IDOCK:   -1.23 KCAL/MOL
REMARK 927      BINDING AFFINITY PREDICTED BY RF-SCORE:    0.00 PKD
ROOT
HETATM    1  C   UNL     1     -10.992   2.800  63.317  1.00  0.00    -0.183 C  
HETATM    2  N   UNL     1     -10.621   3.580  64.465  1.00  0.00    -0.467 N  
HETATM    3  C   UNL     1      -9.306   3.677  64.867  1.00  0.00    -0.154 C  
HETATM    4  H   UNL     1     -11.343   4.072  64.992  1.00  0.00     0.000 HD 
HETATM    5  O   UNL     1      -8.372   3.162  64.263  1.00  0.00    -0.089 OA 
ENDROOT
BRANCH   3   6
HETATM    6  C   UNL     1      -9.081   4.462  66.123  1.00  0.00    -0.130 A  
HETATM    7  C   UNL     1      -8.233   5.560  66.077  1.00  0.00    -0.114 A  
HETATM    8  C   UNL     1      -8.067   6.302  67.239  1.00  0.00    -0.109 A  
HETATM    9  C   UNL     1      -8.694   5.891  68.411  1.00  0.00    -0.112 A  
HETATM   10  N   UNL     1      -9.728   4.044  67.246  1.00  0.00    -0.187 NA 
HETATM   11  C   UNL     1      -9.510   4.771  68.364  1.00  0.00    -0.144 A  
BRANCH   8  12
HETATM   12  O   UNL     1      -7.240   7.398  67.330  1.00  0.00    -0.088 OA 
BRANCH  12  13
HETATM   13  C   UNL     1      -7.756   8.658  67.116  1.00  0.00    -0.096 A  
HETATM   14  C   UNL     1      -7.887   9.054  65.783  1.00  0.00    -0.098 A  
HETATM   15  C   UNL     1      -8.350  10.333  65.488  1.00  0.00    -0.164 A  
HETATM   16  F   UNL     1      -8.460  10.712  64.206  1.00  0.00    -0.176 F  
HETATM   17  C   UNL     1      -8.630  11.249  66.504  1.00  0.00    -0.170 A  
HETATM   18  C   UNL     1      -8.058   9.561  68.142  1.00  0.00    -0.102 A  
HETATM   19  C   UNL     1      -8.502  10.853  67.837  1.00  0.00    -0.129 A  
BRANCH  17  20
HETATM   20  N   UNL     1      -9.021  12.563  66.160  1.00  0.00    -0.426 N  
HETATM   21  H   UNL     1      -8.411  13.349  66.385  1.00  0.00     0.000 HD 
BRANCH  20  22
HETATM   22  C   UNL     1     -10.231  12.788  65.517  1.00  0.00    -0.279 C  
HETATM   23  O   UNL     1     -10.363  13.430  64.478  1.00  0.00    -0.413 OA 
BRANCH  22  24
HETATM   24  N   UNL     1     -11.273  12.200  66.208  1.00  0.00    -0.318 N  
HETATM   25  H   UNL     1     -11.803  11.450  65.765  1.00  0.00     0.000 HD 
BRANCH  24  26
HETATM   26  C   UNL     1     -11.623  12.611  67.509  1.00  0.00    -0.359 A  
HETATM   27  C   UNL     1     -11.654  13.973  67.790  1.00  0.00    -0.378 A  
HETATM   28  C   UNL     1     -11.994  14.407  69.071  1.00  0.00    -0.342 A  
HETATM   29  C   UNL     1     -12.235  13.488  70.100  1.00  0.00    -0.330 A  
HETATM   30 CL   UNL     1     -12.619  14.161  71.641  1.00  0.00    -0.419 Cl 
HETATM   31  C   UNL     1     -12.156  12.113  69.853  1.00  0.00    -0.324 A  
HETATM   32  C   UNL     1     -11.883  11.687  68.530  1.00  0.00    -0.357 A  
HETATM   33  C   UNL     1     -12.304  11.050  70.914  1.00  0.00    -0.402 C  
HETATM   34  F   UNL     1     -13.346  10.209  70.662  1.00  0.00    -0.424 F  
HETATM   35  F   UNL     1     -11.197  10.251  70.975  1.00  0.00    -0.385 F  
HETATM   36  F   UNL     1     -12.490  11.489  72.187  1.00  0.00    -0.207 F  
ENDBRANCH  24  26
ENDBRANCH  22  24
ENDBRANCH  20  22
ENDBRANCH  17  20
ENDBRANCH  12  13
ENDBRANCH   8  12
ENDBRANCH   3   6
TORSDOF 7
ENDMDL
MODEL      186
REMARK 921   NORMALIZED FREE ENERGY PREDICTED BY IDOCK:   -5.18 KCAL/MOL
REMARK 922        TOTAL FREE ENERGY PREDICTED BY IDOCK:   -9.29 KCAL/MOL
REMARK 923 INTER-LIGAND FREE ENERGY PREDICTED BY IDOCK:   -8.53 KCAL/MOL
REMARK 924 INTRA-LIGAND FREE ENERGY PREDICTED BY IDOCK:   -0.76 KCAL/MOL
REMARK 927      BINDING AFFINITY PREDICTED BY RF-SCORE:    0.00 PKD
ROOT
HETATM    1  C   UNL     1     -10.871  19.813  66.683  1.00  0.00    -0.309 C  
HETATM    2  N   UNL     1     -10.509  18.444  66.927  1.00  0.00    -0.392 N  
HETATM    3  C   UNL     1      -9.352  17.907  66.403  1.00  0.00    -0.255 C  
HETATM    4  H   UNL     1     -11.118  17.858  67.499  1.00  0.00     0.000 HD 
HETATM    5  O   UNL     1      -8.540  18.553  65.750  1.00  0.00    -0.442 OA 
ENDROOT
BRANCH   3   6
HETATM    6  C   UNL     1      -9.145  16.450  66.678  1.00  0.00    -0.250 A  
HETATM    7  C   UNL     1      -9.901  15.525  65.972  1.00  0.00    -0.364 A  
HETATM    8  C   UNL     1      -9.667  14.177  66.210  1.00  0.00    -0.297 A  
HETATM    9  C   UNL     1      -8.742  13.801  67.178  1.00  0.00    -0.231 A  
HETATM   10  N   UNL     1      -8.215  16.118  67.617  1.00  0.00    -0.145 NA 
HETATM   11  C   UNL     1      -8.045  14.797  67.845  1.00  0.00    -0.141 A  
BRANCH   8  12
HETATM   12  O   UNL     1     -10.363  13.164  65.591  1.00  0.00    -0.276 OA 
BRANCH  12  13
HETATM   13  C   UNL     1     -10.273  11.879  66.082  1.00  0.00    -0.226 A  
HETATM   14  C   UNL     1     -11.071  11.583  67.189  1.00  0.00    -0.355 A  
HETATM   15  C   UNL     1     -10.995  10.323  67.774  1.00  0.00    -0.300 A  
HETATM   16  F   UNL     1     -11.754  10.049  68.846  1.00  0.00    -0.181 F  
HETATM   17  C   UNL     1     -10.090   9.367  67.309  1.00  0.00    -0.226 A  
HETATM   18  C   UNL     1      -9.380  10.918  65.592  1.00  0.00    -0.236 A  
HETATM   19  C   UNL     1      -9.293   9.661  66.200  1.00  0.00    -0.248 A  
BRANCH  17  20
HETATM   20  N   UNL     1      -9.988   8.128  67.981  1.00  0.00    -0.176 N  
HETATM   21  H   UNL     1      -9.413   8.051  68.820  1.00  0.00     0.000 HD 
BRANCH  20  22
HETATM   22  C   UNL     1     -10.667   7.014  67.505  1.00  0.00    -0.281 C  
HETATM   23  O   UNL     1     -10.427   6.449  66.441  1.00  0.00    -0.100 OA 
BRANCH  22  24
HETATM   24  N   UNL     1     -11.661   6.629  68.386  1.00  0.00    -0.426 N  
HETATM   25  H   UNL     1     -12.618   6.540  68.045  1.00  0.00     0.000 HD 
BRANCH  24  26
HETATM   26  C   UNL     1     -11.385   6.357  69.739  1.00  0.00    -0.427 A  
HETATM   27  C   UNL     1     -12.055   7.091  70.714  1.00  0.00    -0.374 A  
HETATM   28  C   UNL     1     -11.799   6.844  72.062  1.00  0.00    -0.345 A  
HETATM   29  C   UNL     1     -10.823   5.917  72.450  1.00  0.00    -0.244 A  
HETATM   30 CL   UNL     1     -10.590   5.730  74.149  1.00  0.00    -0.253 Cl 
HETATM   31  C   UNL     1     -10.100   5.207  71.485  1.00  0.00    -0.257 A  
HETATM   32  C   UNL     1     -10.423   5.414  70.122  1.00  0.00    -0.361 A  
HETATM   33  C   UNL     1      -8.967   4.261  71.801  1.00  0.00    -0.120 C  
HETATM   34  F   UNL     1      -9.215   2.993  71.369  1.00  0.00    -0.134 F  
HETATM   35  F   UNL     1      -7.813   4.640  71.173  1.00  0.00    -0.072 F  
HETATM   36  F   UNL     1      -8.628   4.140  73.111  1.00  0.00    -0.091 F  
ENDBRANCH  24  26
ENDBRANCH  22  24
ENDBRANCH  20  22
ENDBRANCH  17  20
ENDBRANCH  12  13
ENDBRANCH   8  12
ENDBRANCH   3   6
TORSDOF 7
ENDMDL
MODEL      187
REMARK 921   NORMALIZED FREE ENERGY PREDICTED BY IDOCK:   -5.18 KCAL/MOL
REMARK 922        TOTAL FREE ENERGY PREDICTED BY IDOCK:   -9.28 KCAL/MOL
REMARK 923 INTER-LIGAND FREE ENERGY PREDICTED BY IDOCK:   -7.85 KCAL/MOL
REMARK 924 INTRA-LIGAND FREE ENERGY PREDICTED BY IDOCK:   -1.43 KCAL/MOL
REMARK 927      BINDING AFFINITY PREDICTED BY RF-SCORE:    0.00 PKD
ROOT
HETATM    1  C   UNL     1      -9.738   4.628  66.964  1.00  0.00    -0.195 C  
HETATM    2  N   UNL     1     -10.008   5.592  67.995  1.00  0.00    -0.140 N  
HETATM    3  C   UNL     1      -8.984   6.180  68.707  1.00  0.00    -0.123 C  
HETATM    4  H   UNL     1     -10.973   5.846  68.204  1.00  0.00     0.000 HD 
HETATM    5  O   UNL     1      -7.796   5.971  68.486  1.00  0.00    -0.097 OA 
ENDROOT
BRANCH   3   6
HETATM    6  C   UNL     1      -9.419   7.107  69.800  1.00  0.00    -0.149 A  
HETATM    7  C   UNL     1     -10.751   7.492  69.854  1.00  0.00    -0.254 A  
HETATM    8  C   UNL     1     -11.148   8.319  70.897  1.00  0.00    -0.261 A  
HETATM    9  C   UNL     1     -10.200   8.780  71.805  1.00  0.00    -0.408 A  
HETATM   10  N   UNL     1      -8.469   7.520  70.684  1.00  0.00    -0.130 NA 
HETATM   11  C   UNL     1      -8.888   8.354  71.661  1.00  0.00    -0.186 A  
BRANCH   8  12
HETATM   12  O   UNL     1     -12.432   8.787  71.051  1.00  0.00    -0.244 OA 
BRANCH  12  13
HETATM   13  C   UNL     1     -12.663  10.147  71.072  1.00  0.00    -0.386 A  
HETATM   14  C   UNL     1     -12.253  10.860  69.944  1.00  0.00    -0.408 A  
HETATM   15  C   UNL     1     -12.403  12.244  69.915  1.00  0.00    -0.052 A  
HETATM   16  F   UNL     1     -11.994  12.926  68.834  1.00  0.00    -0.314 F  
HETATM   17  C   UNL     1     -12.903  12.937  71.019  1.00  0.00    -0.184 A  
HETATM   18  C   UNL     1     -13.189  10.830  72.175  1.00  0.00    -0.360 A  
HETATM   19  C   UNL     1     -13.316  12.223  72.146  1.00  0.00    -0.473 A  
BRANCH  17  20
HETATM   20  N   UNL     1     -12.965  14.349  70.977  1.00  0.00    -0.341 N  
HETATM   21  H   UNL     1     -13.682  14.809  70.417  1.00  0.00     0.000 HD 
BRANCH  20  22
HETATM   22  C   UNL     1     -12.054  15.111  71.696  1.00  0.00    -0.359 C  
HETATM   23  O   UNL     1     -11.573  14.789  72.780  1.00  0.00    -0.154 OA 
BRANCH  22  24
HETATM   24  N   UNL     1     -11.766  16.289  71.034  1.00  0.00    -0.599 N  
HETATM   25  H   UNL     1     -12.129  17.168  71.403  1.00  0.00     0.000 HD 
BRANCH  24  26
HETATM   26  C   UNL     1     -10.984  16.308  69.863  1.00  0.00    -0.365 A  
HETATM   27  C   UNL     1     -11.245  17.283  68.906  1.00  0.00     0.360 A  
HETATM   28  C   UNL     1     -10.488  17.323  67.735  1.00  0.00    -0.371 A  
HETATM   29  C   UNL     1      -9.514  16.349  67.476  1.00  0.00    -0.224 A  
HETATM   30 CL   UNL     1      -8.671  16.502  65.979  1.00  0.00    -0.323 Cl 
HETATM   31  C   UNL     1      -9.272  15.328  68.402  1.00  0.00    -0.194 A  
HETATM   32  C   UNL     1      -9.997  15.345  69.619  1.00  0.00    -0.270 A  
HETATM   33  C   UNL     1      -8.315  14.185  68.172  1.00  0.00    -0.161 C  
HETATM   34  F   UNL     1      -7.319  14.148  69.100  1.00  0.00    -0.119 F  
HETATM   35  F   UNL     1      -8.950  12.977  68.271  1.00  0.00    -0.181 F  
HETATM   36  F   UNL     1      -7.691  14.152  66.965  1.00  0.00    -0.186 F  
ENDBRANCH  24  26
ENDBRANCH  22  24
ENDBRANCH  20  22
ENDBRANCH  17  20
ENDBRANCH  12  13
ENDBRANCH   8  12
ENDBRANCH   3   6
TORSDOF 7
ENDMDL
MODEL      188
REMARK 921   NORMALIZED FREE ENERGY PREDICTED BY IDOCK:   -5.17 KCAL/MOL
REMARK 922        TOTAL FREE ENERGY PREDICTED BY IDOCK:   -9.27 KCAL/MOL
REMARK 923 INTER-LIGAND FREE ENERGY PREDICTED BY IDOCK:   -8.00 KCAL/MOL
REMARK 924 INTRA-LIGAND FREE ENERGY PREDICTED BY IDOCK:   -1.28 KCAL/MOL
REMARK 927      BINDING AFFINITY PREDICTED BY RF-SCORE:    0.00 PKD
ROOT
HETATM    1  C   UNL     1     -14.040   7.768  71.650  1.00  0.00    -0.429 C  
HETATM    2  N   UNL     1     -12.892   7.792  70.787  1.00  0.00    -0.503 N  
HETATM    3  C   UNL     1     -11.685   8.297  71.220  1.00  0.00    -0.283 C  
HETATM    4  H   UNL     1     -12.970   7.427  69.838  1.00  0.00     0.000 HD 
HETATM    5  O   UNL     1     -11.490   8.706  72.360  1.00  0.00    -0.363 OA 
ENDROOT
BRANCH   3   6
HETATM    6  C   UNL     1     -10.599   8.325  70.189  1.00  0.00    -0.233 A  
HETATM    7  C   UNL     1     -10.838   8.984  68.991  1.00  0.00    -0.092 A  
HETATM    8  C   UNL     1      -9.807   9.036  68.061  1.00  0.00    -0.166 A  
HETATM    9  C   UNL     1      -8.608   8.384  68.329  1.00  0.00    -0.139 A  
HETATM   10  N   UNL     1      -9.431   7.695  70.494  1.00  0.00    -0.164 NA 
HETATM   11  C   UNL     1      -8.468   7.737  69.547  1.00  0.00    -0.131 A  
BRANCH   8  12
HETATM   12  O   UNL     1      -9.923   9.640  66.830  1.00  0.00    -0.186 OA 
BRANCH  12  13
HETATM   13  C   UNL     1     -10.125  11.002  66.757  1.00  0.00    -0.220 A  
HETATM   14  C   UNL     1      -9.010  11.805  67.004  1.00  0.00    -0.186 A  
HETATM   15  C   UNL     1      -9.148  13.190  67.002  1.00  0.00    -0.231 A  
HETATM   16  F   UNL     1      -8.076  13.957  67.255  1.00  0.00    -0.160 F  
HETATM   17  C   UNL     1     -10.395  13.789  66.813  1.00  0.00    -0.272 A  
HETATM   18  C   UNL     1     -11.375  11.593  66.542  1.00  0.00    -0.331 A  
HETATM   19  C   UNL     1     -11.510  12.986  66.563  1.00  0.00    -0.385 A  
BRANCH  17  20
HETATM   20  N   UNL     1     -10.505  15.196  66.897  1.00  0.00    -0.277 N  
HETATM   21  H   UNL     1     -10.295  15.772  66.081  1.00  0.00     0.000 HD 
BRANCH  20  22
HETATM   22  C   UNL     1     -10.897  15.799  68.085  1.00  0.00    -0.307 C  
HETATM   23  O   UNL     1     -12.060  15.898  68.469  1.00  0.00    -0.208 OA 
BRANCH  22  24
HETATM   24  N   UNL     1      -9.803  16.283  68.777  1.00  0.00    -0.228 N  
HETATM   25  H   UNL     1      -9.491  15.796  69.616  1.00  0.00     0.000 HD 
BRANCH  24  26
HETATM   26  C   UNL     1      -9.108  17.432  68.352  1.00  0.00    -0.274 A  
HETATM   27  C   UNL     1      -9.617  18.681  68.696  1.00  0.00    -0.407 A  
HETATM   28  C   UNL     1      -8.951  19.835  68.286  1.00  0.00    -0.347 A  
HETATM   29  C   UNL     1      -7.815  19.757  67.470  1.00  0.00    -0.282 A  
HETATM   30 CL   UNL     1      -7.106  21.263  67.015  1.00  0.00    -0.285 Cl 
HETATM   31  C   UNL     1      -7.318  18.513  67.068  1.00  0.00    -0.224 A  
HETATM   32  C   UNL     1      -7.961  17.348  67.553  1.00  0.00    -0.205 A  
HETATM   33  C   UNL     1      -6.162  18.329  66.116  1.00  0.00    -0.207 C  
HETATM   34  F   UNL     1      -5.128  17.645  66.681  1.00  0.00    -0.128 F  
HETATM   35  F   UNL     1      -6.529  17.594  65.023  1.00  0.00     0.019 F  
HETATM   36  F   UNL     1      -5.612  19.463  65.606  1.00  0.00    -0.162 F  
ENDBRANCH  24  26
ENDBRANCH  22  24
ENDBRANCH  20  22
ENDBRANCH  17  20
ENDBRANCH  12  13
ENDBRANCH   8  12
ENDBRANCH   3   6
TORSDOF 7
ENDMDL
MODEL      189
REMARK 921   NORMALIZED FREE ENERGY PREDICTED BY IDOCK:   -5.17 KCAL/MOL
REMARK 922        TOTAL FREE ENERGY PREDICTED BY IDOCK:   -9.27 KCAL/MOL
REMARK 923 INTER-LIGAND FREE ENERGY PREDICTED BY IDOCK:   -7.93 KCAL/MOL
REMARK 924 INTRA-LIGAND FREE ENERGY PREDICTED BY IDOCK:   -1.33 KCAL/MOL
REMARK 927      BINDING AFFINITY PREDICTED BY RF-SCORE:    0.00 PKD
ROOT
HETATM    1  C   UNL     1      -8.532   8.852  63.007  1.00  0.00    -0.169 C  
HETATM    2  N   UNL     1      -9.394   9.713  63.770  1.00  0.00    -0.408 N  
HETATM    3  C   UNL     1      -9.513  11.053  63.466  1.00  0.00    -0.292 C  
HETATM    4  H   UNL     1      -9.927   9.327  64.549  1.00  0.00     0.000 HD 
HETATM    5  O   UNL     1      -8.950  11.586  62.517  1.00  0.00    -0.328 OA 
ENDROOT
BRANCH   3   6
HETATM    6  C   UNL     1     -10.388  11.840  64.393  1.00  0.00    -0.307 A  
HETATM    7  C   UNL     1     -10.008  11.964  65.722  1.00  0.00    -0.264 A  
HETATM    8  C   UNL     1     -10.808  12.731  66.558  1.00  0.00    -0.256 A  
HETATM    9  C   UNL     1     -11.981  13.291  66.062  1.00  0.00    -0.473 A  
HETATM   10  N   UNL     1     -11.517  12.392  63.868  1.00  0.00    -0.396 NA 
HETATM   11  C   UNL     1     -12.287  13.099  64.723  1.00  0.00    -0.423 A  
BRANCH   8  12
HETATM   12  O   UNL     1     -10.552  12.915  67.897  1.00  0.00    -0.214 OA 
BRANCH  12  13
HETATM   13  C   UNL     1     -10.768  11.877  68.780  1.00  0.00    -0.224 A  
HETATM   14  C   UNL     1     -11.954  11.928  69.514  1.00  0.00    -0.355 A  
HETATM   15  C   UNL     1     -12.216  10.944  70.463  1.00  0.00    -0.367 A  
HETATM   16  F   UNL     1     -13.352  11.006  71.176  1.00  0.00    -0.391 F  
HETATM   17  C   UNL     1     -11.285   9.940  70.736  1.00  0.00    -0.353 A  
HETATM   18  C   UNL     1      -9.838  10.860  69.028  1.00  0.00    -0.196 A  
HETATM   19  C   UNL     1     -10.099   9.888  70.000  1.00  0.00    -0.308 A  
BRANCH  17  20
HETATM   20  N   UNL     1     -11.556   9.008  71.764  1.00  0.00    -0.352 N  
HETATM   21  H   UNL     1     -11.479   9.293  72.740  1.00  0.00     0.000 HD 
BRANCH  20  22
HETATM   22  C   UNL     1     -11.927   7.707  71.450  1.00  0.00    -0.310 C  
HETATM   23  O   UNL     1     -12.859   7.404  70.709  1.00  0.00    -0.139 OA 
BRANCH  22  24
HETATM   24  N   UNL     1     -11.112   6.794  72.092  1.00  0.00    -0.241 N  
HETATM   25  H   UNL     1     -11.519   5.927  72.442  1.00  0.00     0.000 HD 
BRANCH  24  26
HETATM   26  C   UNL     1      -9.736   7.031  72.276  1.00  0.00    -0.153 A  
HETATM   27  C   UNL     1      -9.303   7.500  73.512  1.00  0.00    -0.316 A  
HETATM   28  C   UNL     1      -7.946   7.746  73.720  1.00  0.00    -0.218 A  
HETATM   29  C   UNL     1      -7.021   7.595  72.679  1.00  0.00    -0.070 A  
HETATM   30 CL   UNL     1      -5.380   7.959  73.067  1.00  0.00    -0.040 Cl 
HETATM   31  C   UNL     1      -7.444   7.176  71.413  1.00  0.00    -0.080 A  
HETATM   32  C   UNL     1      -8.813   6.859  71.237  1.00  0.00    -0.135 A  
HETATM   33  C   UNL     1      -6.541   7.077  70.207  1.00  0.00    -0.048 C  
HETATM   34  F   UNL     1      -6.481   5.811  69.708  1.00  0.00    -0.034 F  
HETATM   35  F   UNL     1      -6.999   7.853  69.178  1.00  0.00    -0.052 F  
HETATM   36  F   UNL     1      -5.250   7.460  70.386  1.00  0.00    -0.022 F  
ENDBRANCH  24  26
ENDBRANCH  22  24
ENDBRANCH  20  22
ENDBRANCH  17  20
ENDBRANCH  12  13
ENDBRANCH   8  12
ENDBRANCH   3   6
TORSDOF 7
ENDMDL
MODEL      190
REMARK 921   NORMALIZED FREE ENERGY PREDICTED BY IDOCK:   -5.16 KCAL/MOL
REMARK 922        TOTAL FREE ENERGY PREDICTED BY IDOCK:   -9.26 KCAL/MOL
REMARK 923 INTER-LIGAND FREE ENERGY PREDICTED BY IDOCK:   -7.44 KCAL/MOL
REMARK 924 INTRA-LIGAND FREE ENERGY PREDICTED BY IDOCK:   -1.82 KCAL/MOL
REMARK 927      BINDING AFFINITY PREDICTED BY RF-SCORE:    0.00 PKD
ROOT
HETATM    1  C   UNL     1     -12.874  14.067  65.588  1.00  0.00    -0.406 C  
HETATM    2  N   UNL     1     -11.789  13.173  65.293  1.00  0.00    -0.345 N  
HETATM    3  C   UNL     1     -11.876  12.262  64.262  1.00  0.00    -0.403 C  
HETATM    4  H   UNL     1     -10.939  13.213  65.855  1.00  0.00     0.000 HD 
HETATM    5  O   UNL     1     -12.838  12.182  63.505  1.00  0.00    -0.768 OA 
ENDROOT
BRANCH   3   6
HETATM    6  C   UNL     1     -10.699  11.346  64.120  1.00  0.00    -0.371 A  
HETATM    7  C   UNL     1     -10.111  10.836  65.269  1.00  0.00    -0.353 A  
HETATM    8  C   UNL     1      -9.047   9.956  65.120  1.00  0.00    -0.211 A  
HETATM    9  C   UNL     1      -8.570   9.667  63.846  1.00  0.00    -0.217 A  
HETATM   10  N   UNL     1     -10.272  11.068  62.857  1.00  0.00    -0.181 NA 
HETATM   11  C   UNL     1      -9.211  10.238  62.757  1.00  0.00    -0.297 A  
BRANCH   8  12
HETATM   12  O   UNL     1      -8.367   9.398  66.178  1.00  0.00    -0.113 OA 
BRANCH  12  13
HETATM   13  C   UNL     1      -7.495  10.174  66.911  1.00  0.00    -0.096 A  
HETATM   14  C   UNL     1      -7.719  10.222  68.289  1.00  0.00    -0.092 A  
HETATM   15  C   UNL     1      -6.913  11.027  69.088  1.00  0.00    -0.104 A  
HETATM   16  F   UNL     1      -7.142  11.080  70.409  1.00  0.00    -0.068 F  
HETATM   17  C   UNL     1      -5.921  11.834  68.528  1.00  0.00    -0.049 A  
HETATM   18  C   UNL     1      -6.486  10.961  66.343  1.00  0.00    -0.130 A  
HETATM   19  C   UNL     1      -5.695  11.785  67.151  1.00  0.00    -0.131 A  
BRANCH  17  20
HETATM   20  N   UNL     1      -5.178  12.696  69.366  1.00  0.00    -0.073 N  
HETATM   21  H   UNL     1      -4.279  12.391  69.740  1.00  0.00     0.000 HD 
BRANCH  20  22
HETATM   22  C   UNL     1      -5.666  13.957  69.684  1.00  0.00    -0.098 C  
HETATM   23  O   UNL     1      -6.095  14.284  70.787  1.00  0.00    -0.196 OA 
BRANCH  22  24
HETATM   24  N   UNL     1      -5.616  14.795  68.586  1.00  0.00    -0.088 N  
HETATM   25  H   UNL     1      -4.711  15.017  68.172  1.00  0.00     0.000 HD 
BRANCH  24  26
HETATM   26  C   UNL     1      -6.782  15.352  68.026  1.00  0.00    -0.144 A  
HETATM   27  C   UNL     1      -6.647  16.306  67.023  1.00  0.00    -0.193 A  
HETATM   28  C   UNL     1      -7.785  16.876  66.453  1.00  0.00    -0.345 A  
HETATM   29  C   UNL     1      -9.063  16.554  66.927  1.00  0.00    -0.220 A  
HETATM   30 CL   UNL     1     -10.381  17.352  66.150  1.00  0.00    -0.357 Cl 
HETATM   31  C   UNL     1      -9.219  15.636  67.972  1.00  0.00    -0.184 A  
HETATM   32  C   UNL     1      -8.059  15.011  68.490  1.00  0.00    -0.148 A  
HETATM   33  C   UNL     1     -10.543  15.297  68.612  1.00  0.00    -0.236 C  
HETATM   34  F   UNL     1     -10.853  13.976  68.494  1.00  0.00    -0.226 F  
HETATM   35  F   UNL     1     -10.524  15.548  69.956  1.00  0.00    -0.248 F  
HETATM   36  F   UNL     1     -11.629  15.969  68.147  1.00  0.00    -0.350 F  
ENDBRANCH  24  26
ENDBRANCH  22  24
ENDBRANCH  20  22
ENDBRANCH  17  20
ENDBRANCH  12  13
ENDBRANCH   8  12
ENDBRANCH   3   6
TORSDOF 7
ENDMDL
MODEL      191
REMARK 921   NORMALIZED FREE ENERGY PREDICTED BY IDOCK:   -5.16 KCAL/MOL
REMARK 922        TOTAL FREE ENERGY PREDICTED BY IDOCK:   -9.25 KCAL/MOL
REMARK 923 INTER-LIGAND FREE ENERGY PREDICTED BY IDOCK:   -8.46 KCAL/MOL
REMARK 924 INTRA-LIGAND FREE ENERGY PREDICTED BY IDOCK:   -0.79 KCAL/MOL
REMARK 927      BINDING AFFINITY PREDICTED BY RF-SCORE:    0.00 PKD
ROOT
HETATM    1  C   UNL     1      -5.554  20.153  70.387  1.00  0.00    -0.297 C  
HETATM    2  N   UNL     1      -6.802  19.814  69.761  1.00  0.00    -0.300 N  
HETATM    3  C   UNL     1      -6.865  19.508  68.418  1.00  0.00    -0.290 C  
HETATM    4  H   UNL     1      -7.655  19.800  70.318  1.00  0.00     0.000 HD 
HETATM    5  O   UNL     1      -5.882  19.450  67.688  1.00  0.00    -0.192 OA 
ENDROOT
BRANCH   3   6
HETATM    6  C   UNL     1      -8.242  19.249  67.889  1.00  0.00    -0.305 A  
HETATM    7  C   UNL     1      -8.401  18.310  66.879  1.00  0.00    -0.256 A  
HETATM    8  C   UNL     1      -9.689  18.052  66.428  1.00  0.00    -0.321 A  
HETATM    9  C   UNL     1     -10.757  18.776  66.948  1.00  0.00    -0.406 A  
HETATM   10  N   UNL     1      -9.266  19.960  68.437  1.00  0.00    -0.279 NA 
HETATM   11  C   UNL     1     -10.498  19.707  67.943  1.00  0.00    -0.423 A  
BRANCH   8  12
HETATM   12  O   UNL     1      -9.977  17.160  65.420  1.00  0.00    -0.547 OA 
BRANCH  12  13
HETATM   13  C   UNL     1     -10.376  15.879  65.739  1.00  0.00    -0.376 A  
HETATM   14  C   UNL     1      -9.705  15.270  66.801  1.00  0.00    -0.249 A  
HETATM   15  C   UNL     1     -10.014  13.958  67.147  1.00  0.00    -0.239 A  
HETATM   16  F   UNL     1      -9.356  13.373  68.159  1.00  0.00    -0.190 F  
HETATM   17  C   UNL     1     -10.943  13.220  66.412  1.00  0.00    -0.289 A  
HETATM   18  C   UNL     1     -11.327  15.156  65.010  1.00  0.00    -0.381 A  
HETATM   19  C   UNL     1     -11.617  13.829  65.350  1.00  0.00    -0.330 A  
BRANCH  17  20
HETATM   20  N   UNL     1     -11.170  11.865  66.747  1.00  0.00    -0.311 N  
HETATM   21  H   UNL     1     -11.939  11.618  67.370  1.00  0.00     0.000 HD 
BRANCH  20  22
HETATM   22  C   UNL     1     -10.350  10.870  66.231  1.00  0.00    -0.250 C  
HETATM   23  O   UNL     1     -10.397  10.452  65.077  1.00  0.00    -0.306 OA 
BRANCH  22  24
HETATM   24  N   UNL     1      -9.478  10.401  67.195  1.00  0.00    -0.157 N  
HETATM   25  H   UNL     1      -8.594  10.888  67.344  1.00  0.00     0.000 HD 
BRANCH  24  26
HETATM   26  C   UNL     1      -9.778   9.268  67.977  1.00  0.00    -0.150 A  
HETATM   27  C   UNL     1     -10.658   9.413  69.045  1.00  0.00    -0.233 A  
HETATM   28  C   UNL     1     -10.970   8.309  69.837  1.00  0.00    -0.166 A  
HETATM   29  C   UNL     1     -10.354   7.070  69.617  1.00  0.00    -0.209 A  
HETATM   30 CL   UNL     1     -10.812   5.797  70.687  1.00  0.00    -0.350 Cl 
HETATM   31  C   UNL     1      -9.427   6.916  68.581  1.00  0.00    -0.134 A  
HETATM   32  C   UNL     1      -9.176   8.027  67.739  1.00  0.00    -0.142 A  
HETATM   33  C   UNL     1      -8.643   5.652  68.325  1.00  0.00    -0.107 C  
HETATM   34  F   UNL     1      -8.884   5.135  67.088  1.00  0.00    -0.112 F  
HETATM   35  F   UNL     1      -7.296   5.884  68.366  1.00  0.00    -0.075 F  
HETATM   36  F   UNL     1      -8.847   4.628  69.195  1.00  0.00    -0.093 F  
ENDBRANCH  24  26
ENDBRANCH  22  24
ENDBRANCH  20  22
ENDBRANCH  17  20
ENDBRANCH  12  13
ENDBRANCH   8  12
ENDBRANCH   3   6
TORSDOF 7
ENDMDL
MODEL      192
REMARK 921   NORMALIZED FREE ENERGY PREDICTED BY IDOCK:   -5.15 KCAL/MOL
REMARK 922        TOTAL FREE ENERGY PREDICTED BY IDOCK:   -9.24 KCAL/MOL
REMARK 923 INTER-LIGAND FREE ENERGY PREDICTED BY IDOCK:   -8.56 KCAL/MOL
REMARK 924 INTRA-LIGAND FREE ENERGY PREDICTED BY IDOCK:   -0.68 KCAL/MOL
REMARK 927      BINDING AFFINITY PREDICTED BY RF-SCORE:    0.00 PKD
ROOT
HETATM    1  C   UNL     1      -8.607   4.596  68.075  1.00  0.00    -0.102 C  
HETATM    2  N   UNL     1      -9.034   5.267  69.272  1.00  0.00    -0.102 N  
HETATM    3  C   UNL     1     -10.144   6.084  69.273  1.00  0.00    -0.185 C  
HETATM    4  H   UNL     1      -8.506   5.137  70.135  1.00  0.00     0.000 HD 
HETATM    5  O   UNL     1     -10.863   6.254  68.295  1.00  0.00    -0.265 OA 
ENDROOT
BRANCH   3   6
HETATM    6  C   UNL     1     -10.424   6.775  70.572  1.00  0.00    -0.209 A  
HETATM    7  C   UNL     1     -11.552   7.578  70.669  1.00  0.00    -0.272 A  
HETATM    8  C   UNL     1     -11.820   8.179  71.892  1.00  0.00    -0.317 A  
HETATM    9  C   UNL     1     -10.929   8.012  72.948  1.00  0.00    -0.398 A  
HETATM   10  N   UNL     1      -9.543   6.572  71.591  1.00  0.00    -0.161 NA 
HETATM   11  C   UNL     1      -9.819   7.205  72.752  1.00  0.00    -0.179 A  
BRANCH   8  12
HETATM   12  O   UNL     1     -12.892   9.012  72.111  1.00  0.00    -0.361 OA 
BRANCH  12  13
HETATM   13  C   UNL     1     -12.818  10.334  71.724  1.00  0.00    -0.460 A  
HETATM   14  C   UNL     1     -13.509  11.250  72.519  1.00  0.00     0.550 A  
HETATM   15  C   UNL     1     -13.525  12.595  72.161  1.00  0.00    -0.460 A  
HETATM   16  F   UNL     1     -14.203  13.469  72.921  1.00  0.00    -0.456 F  
HETATM   17  C   UNL     1     -12.911  13.035  70.987  1.00  0.00    -0.198 A  
HETATM   18  C   UNL     1     -12.178  10.768  70.557  1.00  0.00    -0.457 A  
HETATM   19  C   UNL     1     -12.217  12.119  70.193  1.00  0.00    -0.308 A  
BRANCH  17  20
HETATM   20  N   UNL     1     -13.019  14.395  70.619  1.00  0.00    -0.412 N  
HETATM   21  H   UNL     1     -13.679  14.674  69.892  1.00  0.00     0.000 HD 
BRANCH  20  22
HETATM   22  C   UNL     1     -12.232  15.354  71.243  1.00  0.00    -0.371 C  
HETATM   23  O   UNL     1     -12.539  15.951  72.272  1.00  0.00    -0.418 OA 
BRANCH  22  24
HETATM   24  N   UNL     1     -11.057  15.558  70.544  1.00  0.00    -0.322 N  
HETATM   25  H   UNL     1     -10.166  15.416  71.020  1.00  0.00     0.000 HD 
BRANCH  24  26
HETATM   26  C   UNL     1     -11.058  15.955  69.193  1.00  0.00    -0.302 A  
HETATM   27  C   UNL     1     -11.162  14.975  68.212  1.00  0.00    -0.309 A  
HETATM   28  C   UNL     1     -11.162  15.340  66.867  1.00  0.00    -0.256 A  
HETATM   29  C   UNL     1     -10.988  16.677  66.486  1.00  0.00     0.112 A  
HETATM   30 CL   UNL     1     -10.982  16.985  64.788  1.00  0.00    -0.063 Cl 
HETATM   31  C   UNL     1     -10.829  17.673  67.456  1.00  0.00    -0.205 A  
HETATM   32  C   UNL     1     -10.904  17.296  68.819  1.00  0.00    -0.153 A  
HETATM   33  C   UNL     1     -10.540  19.121  67.144  1.00  0.00    -0.470 C  
HETATM   34  F   UNL     1     -11.507  19.955  67.619  1.00  0.00    -0.259 F  
HETATM   35  F   UNL     1      -9.379  19.536  67.736  1.00  0.00    -0.336 F  
HETATM   36  F   UNL     1     -10.397  19.440  65.831  1.00  0.00    -0.460 F  
ENDBRANCH  24  26
ENDBRANCH  22  24
ENDBRANCH  20  22
ENDBRANCH  17  20
ENDBRANCH  12  13
ENDBRANCH   8  12
ENDBRANCH   3   6
TORSDOF 7
ENDMDL
MODEL      193
REMARK 921   NORMALIZED FREE ENERGY PREDICTED BY IDOCK:   -5.14 KCAL/MOL
REMARK 922        TOTAL FREE ENERGY PREDICTED BY IDOCK:   -9.23 KCAL/MOL
REMARK 923 INTER-LIGAND FREE ENERGY PREDICTED BY IDOCK:   -8.28 KCAL/MOL
REMARK 924 INTRA-LIGAND FREE ENERGY PREDICTED BY IDOCK:   -0.95 KCAL/MOL
REMARK 927      BINDING AFFINITY PREDICTED BY RF-SCORE:    0.00 PKD
ROOT
HETATM    1  C   UNL     1     -11.137   3.975  73.988  1.00  0.00    -0.093 C  
HETATM    2  N   UNL     1     -10.989   5.292  73.433  1.00  0.00    -0.304 N  
HETATM    3  C   UNL     1     -10.372   5.488  72.216  1.00  0.00    -0.210 C  
HETATM    4  H   UNL     1     -11.346   6.097  73.949  1.00  0.00     0.000 HD 
HETATM    5  O   UNL     1      -9.961   4.575  71.509  1.00  0.00    -0.180 OA 
ENDROOT
BRANCH   3   6
HETATM    6  C   UNL     1     -10.222   6.919  71.801  1.00  0.00    -0.189 A  
HETATM    7  C   UNL     1     -11.354   7.722  71.762  1.00  0.00    -0.302 A  
HETATM    8  C   UNL     1     -11.193   9.057  71.415  1.00  0.00    -0.324 A  
HETATM    9  C   UNL     1      -9.932   9.527  71.062  1.00  0.00    -0.269 A  
HETATM   10  N   UNL     1      -8.970   7.351  71.484  1.00  0.00    -0.125 NA 
HETATM   11  C   UNL     1      -8.862   8.646  71.115  1.00  0.00    -0.199 A  
BRANCH   8  12
HETATM   12  O   UNL     1     -12.236   9.949  71.319  1.00  0.00    -0.330 OA 
BRANCH  12  13
HETATM   13  C   UNL     1     -12.168  10.980  70.406  1.00  0.00    -0.373 A  
HETATM   14  C   UNL     1     -12.409  12.262  70.903  1.00  0.00    -0.363 A  
HETATM   15  C   UNL     1     -12.411  13.347  70.031  1.00  0.00    -0.226 A  
HETATM   16  F   UNL     1     -12.657  14.576  70.512  1.00  0.00    -0.346 F  
HETATM   17  C   UNL     1     -12.234  13.168  68.658  1.00  0.00    -0.043 A  
HETATM   18  C   UNL     1     -11.965  10.792  69.033  1.00  0.00    -0.258 A  
HETATM   19  C   UNL     1     -11.991  11.886  68.161  1.00  0.00    -0.222 A  
BRANCH  17  20
HETATM   20  N   UNL     1     -12.323  14.287  67.799  1.00  0.00    -0.578 N  
HETATM   21  H   UNL     1     -12.383  15.226  68.192  1.00  0.00     0.000 HD 
BRANCH  20  22
HETATM   22  C   UNL     1     -12.330  14.113  66.421  1.00  0.00    -0.400 C  
HETATM   23  O   UNL     1     -13.340  13.950  65.740  1.00  0.00    -0.534 OA 
BRANCH  22  24
HETATM   24  N   UNL     1     -11.044  14.137  65.915  1.00  0.00    -0.302 N  
HETATM   25  H   UNL     1     -10.577  15.035  65.788  1.00  0.00     0.000 HD 
BRANCH  24  26
HETATM   26  C   UNL     1     -10.362  12.954  65.570  1.00  0.00    -0.291 A  
HETATM   27  C   UNL     1     -10.815  12.221  64.478  1.00  0.00    -0.355 A  
HETATM   28  C   UNL     1     -10.161  11.044  64.116  1.00  0.00    -0.419 A  
HETATM   29  C   UNL     1      -9.096  10.550  64.881  1.00  0.00    -0.205 A  
HETATM   30 CL   UNL     1      -8.395   9.071  64.336  1.00  0.00    -0.169 Cl 
HETATM   31  C   UNL     1      -8.658  11.245  66.014  1.00  0.00    -0.130 A  
HETATM   32  C   UNL     1      -9.285  12.476  66.326  1.00  0.00    -0.133 A  
HETATM   33  C   UNL     1      -7.587  10.746  66.952  1.00  0.00    -0.123 C  
HETATM   34  F   UNL     1      -6.525  11.597  67.025  1.00  0.00    -0.096 F  
HETATM   35  F   UNL     1      -8.056  10.640  68.232  1.00  0.00    -0.104 F  
HETATM   36  F   UNL     1      -7.057   9.527  66.672  1.00  0.00    -0.081 F  
ENDBRANCH  24  26
ENDBRANCH  22  24
ENDBRANCH  20  22
ENDBRANCH  17  20
ENDBRANCH  12  13
ENDBRANCH   8  12
ENDBRANCH   3   6
TORSDOF 7
ENDMDL
MODEL      194
REMARK 921   NORMALIZED FREE ENERGY PREDICTED BY IDOCK:   -5.14 KCAL/MOL
REMARK 922        TOTAL FREE ENERGY PREDICTED BY IDOCK:   -9.23 KCAL/MOL
REMARK 923 INTER-LIGAND FREE ENERGY PREDICTED BY IDOCK:   -7.26 KCAL/MOL
REMARK 924 INTRA-LIGAND FREE ENERGY PREDICTED BY IDOCK:   -1.96 KCAL/MOL
REMARK 927      BINDING AFFINITY PREDICTED BY RF-SCORE:    0.00 PKD
ROOT
HETATM    1  C   UNL     1     -13.485   9.639  71.470  1.00  0.00    -0.352 C  
HETATM    2  N   UNL     1     -12.379   9.367  70.594  1.00  0.00    -0.487 N  
HETATM    3  C   UNL     1     -11.148   8.997  71.092  1.00  0.00    -0.301 C  
HETATM    4  H   UNL     1     -12.508   9.448  69.585  1.00  0.00     0.000 HD 
HETATM    5  O   UNL     1     -10.923   8.825  72.285  1.00  0.00    -0.359 OA 
ENDROOT
BRANCH   3   6
HETATM    6  C   UNL     1     -10.073   8.818  70.065  1.00  0.00    -0.190 A  
HETATM    7  C   UNL     1      -8.825   9.374  70.305  1.00  0.00    -0.269 A  
HETATM    8  C   UNL     1      -7.827   9.165  69.362  1.00  0.00    -0.095 A  
HETATM    9  C   UNL     1      -8.122   8.470  68.194  1.00  0.00    -0.119 A  
HETATM   10  N   UNL     1     -10.391   8.113  68.943  1.00  0.00    -0.214 NA 
HETATM   11  C   UNL     1      -9.403   7.965  68.034  1.00  0.00    -0.145 A  
BRANCH   8  12
HETATM   12  O   UNL     1      -6.555   9.679  69.474  1.00  0.00    -0.046 OA 
BRANCH  12  13
HETATM   13  C   UNL     1      -6.319  10.992  69.124  1.00  0.00    -0.057 A  
HETATM   14  C   UNL     1      -6.306  11.917  70.170  1.00  0.00    -0.012 A  
HETATM   15  C   UNL     1      -6.128  13.268  69.889  1.00  0.00    -0.125 A  
HETATM   16  F   UNL     1      -6.131  14.154  70.897  1.00  0.00    -0.178 F  
HETATM   17  C   UNL     1      -6.021  13.722  68.573  1.00  0.00    -0.093 A  
HETATM   18  C   UNL     1      -6.188  11.434  67.802  1.00  0.00    -0.050 A  
HETATM   19  C   UNL     1      -6.031  12.797  67.527  1.00  0.00    -0.143 A  
BRANCH  17  20
HETATM   20  N   UNL     1      -5.921  15.111  68.328  1.00  0.00    -0.113 N  
HETATM   21  H   UNL     1      -5.004  15.541  68.211  1.00  0.00     0.000 HD 
BRANCH  20  22
HETATM   22  C   UNL     1      -7.067  15.891  68.246  1.00  0.00    -0.116 C  
HETATM   23  O   UNL     1      -7.613  16.435  69.203  1.00  0.00    -0.228 OA 
BRANCH  22  24
HETATM   24  N   UNL     1      -7.519  15.968  66.942  1.00  0.00    -0.227 N  
HETATM   25  H   UNL     1      -6.949  16.450  66.247  1.00  0.00     0.000 HD 
BRANCH  24  26
HETATM   26  C   UNL     1      -8.745  15.398  66.549  1.00  0.00    -0.300 A  
HETATM   27  C   UNL     1      -9.640  16.180  65.826  1.00  0.00    -0.292 A  
HETATM   28  C   UNL     1     -10.862  15.642  65.427  1.00  0.00    -0.394 A  
HETATM   29  C   UNL     1     -11.234  14.345  65.806  1.00  0.00    -0.326 A  
HETATM   30 CL   UNL     1     -12.784  13.815  65.267  1.00  0.00    -0.502 Cl 
HETATM   31  C   UNL     1     -10.371  13.560  66.579  1.00  0.00    -0.282 A  
HETATM   32  C   UNL     1      -9.102  14.094  66.913  1.00  0.00    -0.260 A  
HETATM   33  C   UNL     1     -10.719  12.193  67.114  1.00  0.00    -0.232 C  
HETATM   34  F   UNL     1      -9.873  11.227  66.660  1.00  0.00    -0.208 F  
HETATM   35  F   UNL     1     -10.619  12.153  68.477  1.00  0.00    -0.205 F  
HETATM   36  F   UNL     1     -11.971  11.738  66.842  1.00  0.00    -0.344 F  
ENDBRANCH  24  26
ENDBRANCH  22  24
ENDBRANCH  20  22
ENDBRANCH  17  20
ENDBRANCH  12  13
ENDBRANCH   8  12
ENDBRANCH   3   6
TORSDOF 7
ENDMDL
MODEL      195
REMARK 921   NORMALIZED FREE ENERGY PREDICTED BY IDOCK:   -5.11 KCAL/MOL
REMARK 922        TOTAL FREE ENERGY PREDICTED BY IDOCK:   -9.19 KCAL/MOL
REMARK 923 INTER-LIGAND FREE ENERGY PREDICTED BY IDOCK:   -7.99 KCAL/MOL
REMARK 924 INTRA-LIGAND FREE ENERGY PREDICTED BY IDOCK:   -1.19 KCAL/MOL
REMARK 927      BINDING AFFINITY PREDICTED BY RF-SCORE:    0.00 PKD
ROOT
HETATM    1  C   UNL     1     -10.140  19.936  67.269  1.00  0.00    -0.432 C  
HETATM    2  N   UNL     1      -9.029  19.197  67.802  1.00  0.00    -0.291 N  
HETATM    3  C   UNL     1      -8.476  18.142  67.108  1.00  0.00    -0.243 C  
HETATM    4  H   UNL     1      -8.641  19.458  68.709  1.00  0.00     0.000 HD 
HETATM    5  O   UNL     1      -8.847  17.797  65.991  1.00  0.00    -0.494 OA 
ENDROOT
BRANCH   3   6
HETATM    6  C   UNL     1      -7.374  17.420  67.819  1.00  0.00    -0.177 A  
HETATM    7  C   UNL     1      -6.956  16.192  67.324  1.00  0.00    -0.234 A  
HETATM    8  C   UNL     1      -5.905  15.554  67.970  1.00  0.00    -0.136 A  
HETATM    9  C   UNL     1      -5.354  16.125  69.113  1.00  0.00    -0.111 A  
HETATM   10  N   UNL     1      -6.844  18.018  68.921  1.00  0.00    -0.248 NA 
HETATM   11  C   UNL     1      -5.850  17.347  69.543  1.00  0.00    -0.238 A  
BRANCH   8  12
HETATM   12  O   UNL     1      -5.412  14.327  67.592  1.00  0.00    -0.311 OA 
BRANCH  12  13
HETATM   13  C   UNL     1      -6.167  13.194  67.808  1.00  0.00    -0.156 A  
HETATM   14  C   UNL     1      -6.302  12.326  66.723  1.00  0.00     0.236 A  
HETATM   15  C   UNL     1      -7.094  11.188  66.849  1.00  0.00    -0.131 A  
HETATM   16  F   UNL     1      -7.233  10.365  65.798  1.00  0.00    -0.118 F  
HETATM   17  C   UNL     1      -7.804  10.931  68.023  1.00  0.00    -0.107 A  
HETATM   18  C   UNL     1      -6.854  12.932  68.999  1.00  0.00    -0.080 A  
HETATM   19  C   UNL     1      -7.666  11.798  69.110  1.00  0.00     0.115 A  
BRANCH  17  20
HETATM   20  N   UNL     1      -8.659   9.807  68.081  1.00  0.00    -0.118 N  
HETATM   21  H   UNL     1      -8.350   8.958  68.554  1.00  0.00     0.000 HD 
BRANCH  20  22
HETATM   22  C   UNL     1      -9.918   9.854  67.497  1.00  0.00    -0.185 C  
HETATM   23  O   UNL     1     -10.468   8.907  66.941  1.00  0.00    -0.271 OA 
BRANCH  22  24
HETATM   24  N   UNL     1     -10.469  11.116  67.616  1.00  0.00    -0.188 N  
HETATM   25  H   UNL     1     -10.318  11.796  66.871  1.00  0.00     0.000 HD 
BRANCH  24  26
HETATM   26  C   UNL     1     -11.233  11.487  68.739  1.00  0.00    -0.249 A  
HETATM   27  C   UNL     1     -11.343  12.839  69.051  1.00  0.00    -0.346 A  
HETATM   28  C   UNL     1     -12.091  13.234  70.160  1.00  0.00    -0.403 A  
HETATM   29  C   UNL     1     -12.675  12.284  71.007  1.00  0.00    -0.225 A  
HETATM   30 CL   UNL     1     -13.550  12.910  72.356  1.00  0.00    -0.659 Cl 
HETATM   31  C   UNL     1     -12.533  10.917  70.742  1.00  0.00    -0.489 A  
HETATM   32  C   UNL     1     -11.833  10.534  69.572  1.00  0.00    -0.287 A  
HETATM   33  C   UNL     1     -13.042   9.821  71.644  1.00  0.00    -0.419 C  
HETATM   34  F   UNL     1     -13.946   9.015  71.021  1.00  0.00    -0.352 F  
HETATM   35  F   UNL     1     -12.030   8.992  72.042  1.00  0.00    -0.382 F  
HETATM   36  F   UNL     1     -13.642  10.217  72.798  1.00  0.00    -0.265 F  
ENDBRANCH  24  26
ENDBRANCH  22  24
ENDBRANCH  20  22
ENDBRANCH  17  20
ENDBRANCH  12  13
ENDBRANCH   8  12
ENDBRANCH   3   6
TORSDOF 7
ENDMDL
MODEL      196
REMARK 921   NORMALIZED FREE ENERGY PREDICTED BY IDOCK:   -5.09 KCAL/MOL
REMARK 922        TOTAL FREE ENERGY PREDICTED BY IDOCK:   -9.17 KCAL/MOL
REMARK 923 INTER-LIGAND FREE ENERGY PREDICTED BY IDOCK:   -8.76 KCAL/MOL
REMARK 924 INTRA-LIGAND FREE ENERGY PREDICTED BY IDOCK:   -0.41 KCAL/MOL
REMARK 927      BINDING AFFINITY PREDICTED BY RF-SCORE:    0.00 PKD
ROOT
HETATM    1  C   UNL     1      -6.151   7.417  72.020  1.00  0.00    -0.040 C  
HETATM    2  N   UNL     1      -7.543   7.384  71.665  1.00  0.00    -0.084 N  
HETATM    3  C   UNL     1      -8.518   7.757  72.567  1.00  0.00    -0.131 C  
HETATM    4  H   UNL     1      -7.816   7.081  70.731  1.00  0.00     0.000 HD 
HETATM    5  O   UNL     1      -8.274   8.182  73.691  1.00  0.00    -0.201 OA 
ENDROOT
BRANCH   3   6
HETATM    6  C   UNL     1      -9.926   7.601  72.083  1.00  0.00    -0.183 A  
HETATM    7  C   UNL     1     -10.811   8.655  72.261  1.00  0.00    -0.392 A  
HETATM    8  C   UNL     1     -12.102   8.510  71.770  1.00  0.00    -0.333 A  
HETATM    9  C   UNL     1     -12.481   7.308  71.180  1.00  0.00    -0.373 A  
HETATM   10  N   UNL     1     -10.256   6.419  71.491  1.00  0.00    -0.192 NA 
HETATM   11  C   UNL     1     -11.532   6.305  71.061  1.00  0.00    -0.306 A  
BRANCH   8  12
HETATM   12  O   UNL     1     -13.078   9.471  71.900  1.00  0.00    -0.365 OA 
BRANCH  12  13
HETATM   13  C   UNL     1     -12.880  10.720  71.351  1.00  0.00    -0.452 A  
HETATM   14  C   UNL     1     -12.395  10.749  70.042  1.00  0.00    -0.371 A  
HETATM   15  C   UNL     1     -12.119  11.972  69.438  1.00  0.00    -0.202 A  
HETATM   16  F   UNL     1     -11.639  11.993  68.185  1.00  0.00    -0.300 F  
HETATM   17  C   UNL     1     -12.263  13.170  70.140  1.00  0.00    -0.290 A  
HETATM   18  C   UNL     1     -13.052  11.918  72.055  1.00  0.00    -0.441 A  
HETATM   19  C   UNL     1     -12.751  13.142  71.449  1.00  0.00    -0.390 A  
BRANCH  17  20
HETATM   20  N   UNL     1     -11.896  14.385  69.517  1.00  0.00    -0.309 N  
HETATM   21  H   UNL     1     -12.028  14.500  68.512  1.00  0.00     0.000 HD 
BRANCH  20  22
HETATM   22  C   UNL     1     -11.357  15.422  70.266  1.00  0.00    -0.311 C  
HETATM   23  O   UNL     1     -11.012  15.331  71.442  1.00  0.00    -0.314 OA 
BRANCH  22  24
HETATM   24  N   UNL     1     -11.268  16.578  69.515  1.00  0.00    -0.314 N  
HETATM   25  H   UNL     1     -12.118  17.101  69.306  1.00  0.00     0.000 HD 
BRANCH  24  26
HETATM   26  C   UNL     1     -10.034  17.052  69.030  1.00  0.00    -0.269 A  
HETATM   27  C   UNL     1      -9.911  18.407  68.739  1.00  0.00    -0.388 A  
HETATM   28  C   UNL     1      -8.701  18.903  68.254  1.00  0.00    -0.367 A  
HETATM   29  C   UNL     1      -7.627  18.043  67.987  1.00  0.00    -0.244 A  
HETATM   30 CL   UNL     1      -6.200  18.785  67.365  1.00  0.00    -0.185 Cl 
HETATM   31  C   UNL     1      -7.748  16.669  68.223  1.00  0.00    -0.183 A  
HETATM   32  C   UNL     1      -8.957  16.191  68.784  1.00  0.00    -0.236 A  
HETATM   33  C   UNL     1      -6.686  15.654  67.879  1.00  0.00    -0.150 C  
HETATM   34  F   UNL     1      -6.244  14.975  68.974  1.00  0.00    -0.093 F  
HETATM   35  F   UNL     1      -7.168  14.698  67.028  1.00  0.00    -0.196 F  
HETATM   36  F   UNL     1      -5.567  16.131  67.271  1.00  0.00    -0.152 F  
ENDBRANCH  24  26
ENDBRANCH  22  24
ENDBRANCH  20  22
ENDBRANCH  17  20
ENDBRANCH  12  13
ENDBRANCH   8  12
ENDBRANCH   3   6
TORSDOF 7
ENDMDL
MODEL      197
REMARK 921   NORMALIZED FREE ENERGY PREDICTED BY IDOCK:   -5.09 KCAL/MOL
REMARK 922        TOTAL FREE ENERGY PREDICTED BY IDOCK:   -9.17 KCAL/MOL
REMARK 923 INTER-LIGAND FREE ENERGY PREDICTED BY IDOCK:   -7.72 KCAL/MOL
REMARK 924 INTRA-LIGAND FREE ENERGY PREDICTED BY IDOCK:   -1.44 KCAL/MOL
REMARK 927      BINDING AFFINITY PREDICTED BY RF-SCORE:    0.00 PKD
ROOT
HETATM    1  C   UNL     1     -12.786  14.078  65.698  1.00  0.00    -0.481 C  
HETATM    2  N   UNL     1     -11.720  13.172  65.366  1.00  0.00    -0.334 N  
HETATM    3  C   UNL     1     -11.836  12.291  64.312  1.00  0.00    -0.403 C  
HETATM    4  H   UNL     1     -10.864  13.181  65.920  1.00  0.00     0.000 HD 
HETATM    5  O   UNL     1     -12.808  12.251  63.565  1.00  0.00    -0.768 OA 
ENDROOT
BRANCH   3   6
HETATM    6  C   UNL     1     -10.678  11.358  64.132  1.00  0.00    -0.371 A  
HETATM    7  C   UNL     1     -10.109  10.781  65.258  1.00  0.00    -0.353 A  
HETATM    8  C   UNL     1      -9.063   9.886  65.072  1.00  0.00    -0.218 A  
HETATM    9  C   UNL     1      -8.583   9.648  63.788  1.00  0.00    -0.217 A  
HETATM   10  N   UNL     1     -10.250  11.132  62.860  1.00  0.00    -0.202 NA 
HETATM   11  C   UNL     1      -9.206  10.285  62.725  1.00  0.00    -0.297 A  
BRANCH   8  12
HETATM   12  O   UNL     1      -8.401   9.264  66.106  1.00  0.00    -0.115 OA 
BRANCH  12  13
HETATM   13  C   UNL     1      -7.523   9.987  66.885  1.00  0.00    -0.095 A  
HETATM   14  C   UNL     1      -7.739   9.940  68.264  1.00  0.00    -0.085 A  
HETATM   15  C   UNL     1      -6.926  10.687  69.111  1.00  0.00    -0.085 A  
HETATM   16  F   UNL     1      -7.147  10.650  70.434  1.00  0.00    -0.161 F  
HETATM   17  C   UNL     1      -5.936  11.529  68.602  1.00  0.00    -0.046 A  
HETATM   18  C   UNL     1      -6.516  10.809  66.365  1.00  0.00    -0.125 A  
HETATM   19  C   UNL     1      -5.718  11.574  67.223  1.00  0.00    -0.090 A  
BRANCH  17  20
HETATM   20  N   UNL     1      -5.187  12.331  69.493  1.00  0.00    -0.066 N  
HETATM   21  H   UNL     1      -4.257  12.031  69.787  1.00  0.00     0.000 HD 
BRANCH  20  22
HETATM   22  C   UNL     1      -5.710  13.526  69.969  1.00  0.00    -0.123 C  
HETATM   23  O   UNL     1      -6.100  13.711  71.119  1.00  0.00    -0.190 OA 
BRANCH  22  24
HETATM   24  N   UNL     1      -5.744  14.482  68.971  1.00  0.00    -0.084 N  
HETATM   25  H   UNL     1      -4.963  14.546  68.318  1.00  0.00     0.000 HD 
BRANCH  24  26
HETATM   26  C   UNL     1      -6.829  15.369  68.832  1.00  0.00    -0.124 A  
HETATM   27  C   UNL     1      -8.085  14.843  68.549  1.00  0.00    -0.147 A  
HETATM   28  C   UNL     1      -9.176  15.699  68.403  1.00  0.00    -0.191 A  
HETATM   29  C   UNL     1      -9.012  17.089  68.466  1.00  0.00    -0.263 A  
HETATM   30 CL   UNL     1     -10.440  18.030  68.242  1.00  0.00    -0.377 Cl 
HETATM   31  C   UNL     1      -7.747  17.641  68.697  1.00  0.00    -0.281 A  
HETATM   32  C   UNL     1      -6.663  16.757  68.917  1.00  0.00    -0.195 A  
HETATM   33  C   UNL     1      -7.454  19.121  68.688  1.00  0.00    -0.334 C  
HETATM   34  F   UNL     1      -6.964  19.559  69.881  1.00  0.00    -0.324 F  
HETATM   35  F   UNL     1      -6.495  19.432  67.764  1.00  0.00    -0.219 F  
HETATM   36  F   UNL     1      -8.498  19.942  68.399  1.00  0.00    -0.356 F  
ENDBRANCH  24  26
ENDBRANCH  22  24
ENDBRANCH  20  22
ENDBRANCH  17  20
ENDBRANCH  12  13
ENDBRANCH   8  12
ENDBRANCH   3   6
TORSDOF 7
ENDMDL
MODEL      198
REMARK 921   NORMALIZED FREE ENERGY PREDICTED BY IDOCK:   -5.09 KCAL/MOL
REMARK 922        TOTAL FREE ENERGY PREDICTED BY IDOCK:   -9.16 KCAL/MOL
REMARK 923 INTER-LIGAND FREE ENERGY PREDICTED BY IDOCK:   -8.41 KCAL/MOL
REMARK 924 INTRA-LIGAND FREE ENERGY PREDICTED BY IDOCK:   -0.75 KCAL/MOL
REMARK 927      BINDING AFFINITY PREDICTED BY RF-SCORE:    0.00 PKD
ROOT
HETATM    1  C   UNL     1      -7.040  19.424  65.637  1.00  0.00    -0.267 C  
HETATM    2  N   UNL     1      -7.910  18.442  66.225  1.00  0.00    -0.257 N  
HETATM    3  C   UNL     1      -9.178  18.777  66.650  1.00  0.00    -0.329 C  
HETATM    4  H   UNL     1      -7.584  17.482  66.330  1.00  0.00     0.000 HD 
HETATM    5  O   UNL     1      -9.666  19.894  66.514  1.00  0.00    -0.374 OA 
ENDROOT
BRANCH   3   6
HETATM    6  C   UNL     1      -9.940  17.670  67.310  1.00  0.00    -0.322 A  
HETATM    7  C   UNL     1     -10.601  16.748  66.511  1.00  0.00    -0.198 A  
HETATM    8  C   UNL     1     -11.270  15.705  67.137  1.00  0.00    -0.152 A  
HETATM    9  C   UNL     1     -11.309  15.651  68.527  1.00  0.00    -0.361 A  
HETATM   10  N   UNL     1      -9.939  17.636  68.672  1.00  0.00    -0.349 NA 
HETATM   11  C   UNL     1     -10.632  16.627  69.243  1.00  0.00    -0.343 A  
BRANCH   8  12
HETATM   12  O   UNL     1     -11.978  14.739  66.460  1.00  0.00    -0.309 OA 
BRANCH  12  13
HETATM   13  C   UNL     1     -11.397  13.512  66.219  1.00  0.00    -0.309 A  
HETATM   14  C   UNL     1     -10.957  13.283  64.914  1.00  0.00    -0.345 A  
HETATM   15  C   UNL     1     -10.409  12.048  64.581  1.00  0.00    -0.287 A  
HETATM   16  F   UNL     1     -10.000  11.828  63.322  1.00  0.00    -0.337 F  
HETATM   17  C   UNL     1     -10.346  11.013  65.516  1.00  0.00    -0.260 A  
HETATM   18  C   UNL     1     -11.316  12.489  67.171  1.00  0.00    -0.381 A  
HETATM   19  C   UNL     1     -10.784  11.242  66.822  1.00  0.00    -0.323 A  
BRANCH  17  20
HETATM   20  N   UNL     1      -9.856   9.749  65.115  1.00  0.00    -0.405 N  
HETATM   21  H   UNL     1      -9.816   9.511  64.124  1.00  0.00     0.000 HD 
BRANCH  20  22
HETATM   22  C   UNL     1      -9.428   8.830  66.064  1.00  0.00    -0.233 C  
HETATM   23  O   UNL     1      -8.287   8.770  66.516  1.00  0.00    -0.108 OA 
BRANCH  22  24
HETATM   24  N   UNL     1     -10.457   7.982  66.428  1.00  0.00    -0.363 N  
HETATM   25  H   UNL     1     -11.421   8.272  66.265  1.00  0.00     0.000 HD 
BRANCH  24  26
HETATM   26  C   UNL     1     -10.208   6.727  67.017  1.00  0.00    -0.237 A  
HETATM   27  C   UNL     1     -10.222   6.631  68.405  1.00  0.00    -0.188 A  
HETATM   28  C   UNL     1      -9.976   5.401  69.015  1.00  0.00    -0.260 A  
HETATM   29  C   UNL     1      -9.643   4.274  68.251  1.00  0.00    -0.135 A  
HETATM   30 CL   UNL     1      -9.338   2.825  69.135  1.00  0.00    -0.217 Cl 
HETATM   31  C   UNL     1      -9.572   4.362  66.857  1.00  0.00    -0.219 A  
HETATM   32  C   UNL     1      -9.896   5.599  66.248  1.00  0.00    -0.156 A  
HETATM   33  C   UNL     1      -9.130   3.233  65.958  1.00  0.00    -0.150 C  
HETATM   34  F   UNL     1     -10.097   2.870  65.070  1.00  0.00    -0.049 F  
HETATM   35  F   UNL     1      -8.054   3.595  65.196  1.00  0.00    -0.092 F  
HETATM   36  F   UNL     1      -8.751   2.083  66.574  1.00  0.00    -0.095 F  
ENDBRANCH  24  26
ENDBRANCH  22  24
ENDBRANCH  20  22
ENDBRANCH  17  20
ENDBRANCH  12  13
ENDBRANCH   8  12
ENDBRANCH   3   6
TORSDOF 7
ENDMDL
MODEL      199
REMARK 921   NORMALIZED FREE ENERGY PREDICTED BY IDOCK:   -5.09 KCAL/MOL
REMARK 922        TOTAL FREE ENERGY PREDICTED BY IDOCK:   -9.16 KCAL/MOL
REMARK 923 INTER-LIGAND FREE ENERGY PREDICTED BY IDOCK:   -8.27 KCAL/MOL
REMARK 924 INTRA-LIGAND FREE ENERGY PREDICTED BY IDOCK:   -0.89 KCAL/MOL
REMARK 927      BINDING AFFINITY PREDICTED BY RF-SCORE:    0.00 PKD
ROOT
HETATM    1  C   UNL     1     -14.367   7.815  71.797  1.00  0.00    -0.470 C  
HETATM    2  N   UNL     1     -13.300   7.598  70.860  1.00  0.00    -0.566 N  
HETATM    3  C   UNL     1     -12.167   6.900  71.220  1.00  0.00    -0.380 C  
HETATM    4  H   UNL     1     -13.382   7.965  69.912  1.00  0.00     0.000 HD 
HETATM    5  O   UNL     1     -12.010   6.381  72.320  1.00  0.00    -0.304 OA 
ENDROOT
BRANCH   3   6
HETATM    6  C   UNL     1     -11.108   6.817  70.164  1.00  0.00    -0.315 A  
HETATM    7  C   UNL     1      -9.962   7.586  70.309  1.00  0.00    -0.192 A  
HETATM    8  C   UNL     1      -8.972   7.467  69.343  1.00  0.00    -0.139 A  
HETATM    9  C   UNL     1      -9.182   6.641  68.243  1.00  0.00    -0.121 A  
HETATM   10  N   UNL     1     -11.338   5.982  69.113  1.00  0.00    -0.288 NA 
HETATM   11  C   UNL     1     -10.367   5.924  68.175  1.00  0.00    -0.210 A  
BRANCH   8  12
HETATM   12  O   UNL     1      -7.800   8.188  69.361  1.00  0.00    -0.101 OA 
BRANCH  12  13
HETATM   13  C   UNL     1      -7.800   9.497  68.930  1.00  0.00    -0.080 A  
HETATM   14  C   UNL     1      -6.822  10.328  69.479  1.00  0.00    -0.084 A  
HETATM   15  C   UNL     1      -6.793  11.676  69.133  1.00  0.00    -0.111 A  
HETATM   16  F   UNL     1      -5.859  12.473  69.675  1.00  0.00    -0.079 F  
HETATM   17  C   UNL     1      -7.762  12.225  68.291  1.00  0.00    -0.143 A  
HETATM   18  C   UNL     1      -8.763  10.033  68.065  1.00  0.00    -0.125 A  
HETATM   19  C   UNL     1      -8.740  11.393  67.740  1.00  0.00    -0.136 A  
BRANCH  17  20
HETATM   20  N   UNL     1      -7.743  13.614  68.029  1.00  0.00    -0.127 N  
HETATM   21  H   UNL     1      -7.334  13.961  67.162  1.00  0.00     0.000 HD 
BRANCH  20  22
HETATM   22  C   UNL     1      -8.280  14.507  68.947  1.00  0.00    -0.114 C  
HETATM   23  O   UNL     1      -7.688  14.938  69.934  1.00  0.00    -0.098 OA 
BRANCH  22  24
HETATM   24  N   UNL     1      -9.578  14.841  68.609  1.00  0.00    -0.213 N  
HETATM   25  H   UNL     1     -10.338  14.218  68.883  1.00  0.00     0.000 HD 
BRANCH  24  26
HETATM   26  C   UNL     1      -9.878  16.018  67.896  1.00  0.00    -0.226 A  
HETATM   27  C   UNL     1     -10.337  15.903  66.588  1.00  0.00    -0.302 A  
HETATM   28  C   UNL     1     -10.639  17.052  65.858  1.00  0.00    -0.221 A  
HETATM   29  C   UNL     1     -10.417  18.325  66.399  1.00  0.00    -0.366 A  
HETATM   30 CL   UNL     1     -10.808  19.660  65.378  1.00  0.00    -0.357 Cl 
HETATM   31  C   UNL     1      -9.905  18.463  67.694  1.00  0.00    -0.328 A  
HETATM   32  C   UNL     1      -9.674  17.288  68.449  1.00  0.00    -0.293 A  
HETATM   33  C   UNL     1      -9.543  19.785  68.326  1.00  0.00    -0.368 C  
HETATM   34  F   UNL     1     -10.257  20.028  69.461  1.00  0.00    -0.471 F  
HETATM   35  F   UNL     1      -8.231  19.811  68.709  1.00  0.00    -0.367 F  
HETATM   36  F   UNL     1      -9.703  20.890  67.551  1.00  0.00    -0.578 F  
ENDBRANCH  24  26
ENDBRANCH  22  24
ENDBRANCH  20  22
ENDBRANCH  17  20
ENDBRANCH  12  13
ENDBRANCH   8  12
ENDBRANCH   3   6
TORSDOF 7
ENDMDL
MODEL      200
REMARK 921   NORMALIZED FREE ENERGY PREDICTED BY IDOCK:   -5.05 KCAL/MOL
REMARK 922        TOTAL FREE ENERGY PREDICTED BY IDOCK:   -9.10 KCAL/MOL
REMARK 923 INTER-LIGAND FREE ENERGY PREDICTED BY IDOCK:   -7.66 KCAL/MOL
REMARK 924 INTRA-LIGAND FREE ENERGY PREDICTED BY IDOCK:   -1.44 KCAL/MOL
REMARK 927      BINDING AFFINITY PREDICTED BY RF-SCORE:    0.00 PKD
ROOT
HETATM    1  C   UNL     1     -10.325   6.264  68.531  1.00  0.00    -0.203 C  
HETATM    2  N   UNL     1     -11.135   7.251  69.191  1.00  0.00    -0.446 N  
HETATM    3  C   UNL     1     -10.563   8.253  69.946  1.00  0.00    -0.232 C  
HETATM    4  H   UNL     1     -12.150   7.211  69.099  1.00  0.00     0.000 HD 
HETATM    5  O   UNL     1      -9.352   8.406  70.065  1.00  0.00    -0.157 OA 
ENDROOT
BRANCH   3   6
HETATM    6  C   UNL     1     -11.532   9.164  70.634  1.00  0.00    -0.262 A  
HETATM    7  C   UNL     1     -11.394  10.534  70.463  1.00  0.00    -0.400 A  
HETATM    8  C   UNL     1     -12.325  11.363  71.074  1.00  0.00    -0.343 A  
HETATM    9  C   UNL     1     -13.315  10.807  71.878  1.00  0.00    -0.445 A  
HETATM   10  N   UNL     1     -12.502   8.584  71.395  1.00  0.00    -0.309 NA 
HETATM   11  C   UNL     1     -13.365   9.427  72.003  1.00  0.00    -0.450 A  
BRANCH   8  12
HETATM   12  O   UNL     1     -12.287  12.736  70.999  1.00  0.00    -0.356 OA 
BRANCH  12  13
HETATM   13  C   UNL     1     -12.212  13.348  69.766  1.00  0.00    -0.245 A  
HETATM   14  C   UNL     1     -12.494  12.544  68.659  1.00  0.00     0.564 A  
HETATM   15  C   UNL     1     -12.386  13.076  67.378  1.00  0.00     0.120 A  
HETATM   16  F   UNL     1     -12.644  12.295  66.318  1.00  0.00    -0.141 F  
HETATM   17  C   UNL     1     -11.944  14.385  67.177  1.00  0.00    -0.389 A  
HETATM   18  C   UNL     1     -11.791  14.670  69.576  1.00  0.00    -0.374 A  
HETATM   19  C   UNL     1     -11.664  15.191  68.283  1.00  0.00    -0.336 A  
BRANCH  17  20
HETATM   20  N   UNL     1     -11.773  14.861  65.857  1.00  0.00    -0.243 N  
HETATM   21  H   UNL     1     -12.539  15.345  65.388  1.00  0.00     0.000 HD 
BRANCH  20  22
HETATM   22  C   UNL     1     -10.566  14.673  65.196  1.00  0.00    -0.421 C  
HETATM   23  O   UNL     1      -9.562  15.360  65.363  1.00  0.00    -0.278 OA 
BRANCH  22  24
HETATM   24  N   UNL     1     -10.648  13.612  64.313  1.00  0.00    -0.567 N  
HETATM   25  H   UNL     1     -11.233  13.702  63.483  1.00  0.00     0.000 HD 
BRANCH  24  26
HETATM   26  C   UNL     1      -9.946  12.412  64.532  1.00  0.00    -0.175 A  
HETATM   27  C   UNL     1     -10.066  11.392  63.594  1.00  0.00    -0.421 A  
HETATM   28  C   UNL     1      -9.384  10.191  63.787  1.00  0.00    -0.336 A  
HETATM   29  C   UNL     1      -8.635   9.970  64.950  1.00  0.00    -0.173 A  
HETATM   30 CL   UNL     1      -7.865   8.431  65.072  1.00  0.00    -0.110 Cl 
HETATM   31  C   UNL     1      -8.544  10.963  65.931  1.00  0.00    -0.179 A  
HETATM   32  C   UNL     1      -9.182  12.203  65.687  1.00  0.00     0.042 A  
HETATM   33  C   UNL     1      -7.843  10.784  67.256  1.00  0.00    -0.113 C  
HETATM   34  F   UNL     1      -6.822  11.669  67.425  1.00  0.00    -0.079 F  
HETATM   35  F   UNL     1      -8.694  11.006  68.303  1.00  0.00    -0.121 F  
HETATM   36  F   UNL     1      -7.307   9.558  67.495  1.00  0.00    -0.086 F  
ENDBRANCH  24  26
ENDBRANCH  22  24
ENDBRANCH  20  22
ENDBRANCH  17  20
ENDBRANCH  12  13
ENDBRANCH   8  12
ENDBRANCH   3   6
TORSDOF 7
ENDMDL
MODEL      201
REMARK 921   NORMALIZED FREE ENERGY PREDICTED BY IDOCK:   -4.99 KCAL/MOL
REMARK 922        TOTAL FREE ENERGY PREDICTED BY IDOCK:   -9.02 KCAL/MOL
REMARK 923 INTER-LIGAND FREE ENERGY PREDICTED BY IDOCK:   -8.39 KCAL/MOL
REMARK 924 INTRA-LIGAND FREE ENERGY PREDICTED BY IDOCK:   -0.63 KCAL/MOL
REMARK 927      BINDING AFFINITY PREDICTED BY RF-SCORE:    0.00 PKD
ROOT
HETATM    1  C   UNL     1      -7.921  20.081  66.601  1.00  0.00    -0.314 C  
HETATM    2  N   UNL     1      -8.539  18.784  66.610  1.00  0.00    -0.293 N  
HETATM    3  C   UNL     1      -9.843  18.612  66.198  1.00  0.00    -0.287 C  
HETATM    4  H   UNL     1      -8.003  17.976  66.927  1.00  0.00     0.000 HD 
HETATM    5  O   UNL     1     -10.540  19.519  65.755  1.00  0.00    -0.508 OA 
ENDROOT
BRANCH   3   6
HETATM    6  C   UNL     1     -10.375  17.219  66.334  1.00  0.00    -0.316 A  
HETATM    7  C   UNL     1     -10.561  16.699  67.607  1.00  0.00    -0.321 A  
HETATM    8  C   UNL     1     -11.094  15.421  67.717  1.00  0.00    -0.320 A  
HETATM    9  C   UNL     1     -11.362  14.688  66.565  1.00  0.00    -0.353 A  
HETATM   10  N   UNL     1     -10.647  16.539  65.186  1.00  0.00    -0.674 NA 
HETATM   11  C   UNL     1     -11.128  15.286  65.335  1.00  0.00    -0.347 A  
BRANCH   8  12
HETATM   12  O   UNL     1     -11.306  14.786  68.919  1.00  0.00    -0.254 OA 
BRANCH  12  13
HETATM   13  C   UNL     1     -11.093  13.427  69.017  1.00  0.00    -0.249 A  
HETATM   14  C   UNL     1     -12.060  12.699  69.714  1.00  0.00    -0.301 A  
HETATM   15  C   UNL     1     -11.886  11.331  69.902  1.00  0.00    -0.360 A  
HETATM   16  F   UNL     1     -12.811  10.639  70.585  1.00  0.00    -0.381 F  
HETATM   17  C   UNL     1     -10.732  10.684  69.456  1.00  0.00    -0.251 A  
HETATM   18  C   UNL     1      -9.943  12.783  68.544  1.00  0.00    -0.168 A  
HETATM   19  C   UNL     1      -9.766  11.411  68.757  1.00  0.00    -0.155 A  
BRANCH  17  20
HETATM   20  N   UNL     1     -10.559   9.310  69.737  1.00  0.00    -0.223 N  
HETATM   21  H   UNL     1     -10.969   8.609  69.119  1.00  0.00     0.000 HD 
BRANCH  20  22
HETATM   22  C   UNL     1      -9.833   8.909  70.851  1.00  0.00    -0.242 C  
HETATM   23  O   UNL     1     -10.223   9.002  72.012  1.00  0.00    -0.339 OA 
BRANCH  22  24
HETATM   24  N   UNL     1      -8.603   8.399  70.480  1.00  0.00    -0.128 N  
HETATM   25  H   UNL     1      -7.830   8.435  71.144  1.00  0.00     0.000 HD 
BRANCH  24  26
HETATM   26  C   UNL     1      -8.390   7.831  69.209  1.00  0.00    -0.136 A  
HETATM   27  C   UNL     1      -7.392   8.366  68.401  1.00  0.00    -0.094 A  
HETATM   28  C   UNL     1      -7.162   7.825  67.137  1.00  0.00    -0.090 A  
HETATM   29  C   UNL     1      -7.971   6.795  66.638  1.00  0.00    -0.108 A  
HETATM   30 CL   UNL     1      -7.593   6.239  65.050  1.00  0.00    -0.084 Cl 
HETATM   31  C   UNL     1      -9.015   6.279  67.413  1.00  0.00    -0.109 A  
HETATM   32  C   UNL     1      -9.188   6.788  68.723  1.00  0.00    -0.130 A  
HETATM   33  C   UNL     1      -9.996   5.240  66.929  1.00  0.00    -0.194 C  
HETATM   34  F   UNL     1      -9.965   4.106  67.683  1.00  0.00    -0.220 F  
HETATM   35  F   UNL     1     -11.283   5.695  67.010  1.00  0.00    -0.278 F  
HETATM   36  F   UNL     1      -9.853   4.826  65.643  1.00  0.00    -0.163 F  
ENDBRANCH  24  26
ENDBRANCH  22  24
ENDBRANCH  20  22
ENDBRANCH  17  20
ENDBRANCH  12  13
ENDBRANCH   8  12
ENDBRANCH   3   6
TORSDOF 7
ENDMDL
MODEL      202
REMARK 921   NORMALIZED FREE ENERGY PREDICTED BY IDOCK:   -4.99 KCAL/MOL
REMARK 922        TOTAL FREE ENERGY PREDICTED BY IDOCK:   -9.01 KCAL/MOL
REMARK 923 INTER-LIGAND FREE ENERGY PREDICTED BY IDOCK:   -7.23 KCAL/MOL
REMARK 924 INTRA-LIGAND FREE ENERGY PREDICTED BY IDOCK:   -1.78 KCAL/MOL
REMARK 927      BINDING AFFINITY PREDICTED BY RF-SCORE:    0.00 PKD
ROOT
HETATM    1  C   UNL     1     -10.033  19.994  67.672  1.00  0.00    -0.428 C  
HETATM    2  N   UNL     1     -10.581  18.843  67.008  1.00  0.00    -0.429 N  
HETATM    3  C   UNL     1     -10.031  17.591  67.182  1.00  0.00    -0.314 C  
HETATM    4  H   UNL     1     -11.391  18.954  66.399  1.00  0.00     0.000 HD 
HETATM    5  O   UNL     1      -9.091  17.361  67.936  1.00  0.00    -0.246 OA 
ENDROOT
BRANCH   3   6
HETATM    6  C   UNL     1     -10.660  16.501  66.370  1.00  0.00    -0.221 A  
HETATM    7  C   UNL     1     -11.004  15.315  67.003  1.00  0.00    -0.324 A  
HETATM    8  C   UNL     1     -11.624  14.329  66.245  1.00  0.00    -0.372 A  
HETATM    9  C   UNL     1     -11.821  14.534  64.883  1.00  0.00    -0.417 A  
HETATM   10  N   UNL     1     -10.858  16.744  65.045  1.00  0.00    -0.653 NA 
HETATM   11  C   UNL     1     -11.429  15.746  64.335  1.00  0.00    -0.263 A  
BRANCH   8  12
HETATM   12  O   UNL     1     -11.995  13.104  66.748  1.00  0.00    -0.384 OA 
BRANCH  12  13
HETATM   13  C   UNL     1     -11.075  12.078  66.787  1.00  0.00    -0.305 A  
HETATM   14  C   UNL     1     -11.441  10.948  67.522  1.00  0.00    -0.234 A  
HETATM   15  C   UNL     1     -10.543   9.893  67.652  1.00  0.00    -0.270 A  
HETATM   16  F   UNL     1     -10.895   8.816  68.371  1.00  0.00    -0.226 F  
HETATM   17  C   UNL     1      -9.259   9.969  67.109  1.00  0.00    -0.141 A  
HETATM   18  C   UNL     1      -9.799  12.154  66.217  1.00  0.00    -0.250 A  
HETATM   19  C   UNL     1      -8.894  11.098  66.371  1.00  0.00    -0.182 A  
BRANCH  17  20
HETATM   20  N   UNL     1      -8.351   8.909  67.332  1.00  0.00    -0.108 N  
HETATM   21  H   UNL     1      -8.652   7.945  67.193  1.00  0.00     0.000 HD 
BRANCH  20  22
HETATM   22  C   UNL     1      -7.050   9.175  67.740  1.00  0.00    -0.079 C  
HETATM   23  O   UNL     1      -6.068   9.157  67.002  1.00  0.00    -0.055 OA 
BRANCH  22  24
HETATM   24  N   UNL     1      -7.005   9.455  69.092  1.00  0.00    -0.057 N  
HETATM   25  H   UNL     1      -7.294   8.737  69.757  1.00  0.00     0.000 HD 
BRANCH  24  26
HETATM   26  C   UNL     1      -6.570  10.704  69.576  1.00  0.00    -0.091 A  
HETATM   27  C   UNL     1      -5.732  10.731  70.686  1.00  0.00    -0.116 A  
HETATM   28  C   UNL     1      -5.289  11.954  71.188  1.00  0.00    -0.069 A  
HETATM   29  C   UNL     1      -5.734  13.161  70.634  1.00  0.00    -0.171 A  
HETATM   30 CL   UNL     1      -5.128  14.600  71.369  1.00  0.00    -0.133 Cl 
HETATM   31  C   UNL     1      -6.620  13.157  69.550  1.00  0.00    -0.034 A  
HETATM   32  C   UNL     1      -7.002  11.907  69.005  1.00  0.00    -0.098 A  
HETATM   33  C   UNL     1      -7.227  14.400  68.948  1.00  0.00    -0.125 C  
HETATM   34  F   UNL     1      -6.904  14.550  67.633  1.00  0.00    -0.140 F  
HETATM   35  F   UNL     1      -8.594  14.353  68.983  1.00  0.00    -0.160 F  
HETATM   36  F   UNL     1      -6.903  15.580  69.539  1.00  0.00    -0.138 F  
ENDBRANCH  24  26
ENDBRANCH  22  24
ENDBRANCH  20  22
ENDBRANCH  17  20
ENDBRANCH  12  13
ENDBRANCH   8  12
ENDBRANCH   3   6
TORSDOF 7
ENDMDL
MODEL      203
REMARK 921   NORMALIZED FREE ENERGY PREDICTED BY IDOCK:   -4.98 KCAL/MOL
REMARK 922        TOTAL FREE ENERGY PREDICTED BY IDOCK:   -9.00 KCAL/MOL
REMARK 923 INTER-LIGAND FREE ENERGY PREDICTED BY IDOCK:   -8.14 KCAL/MOL
REMARK 924 INTRA-LIGAND FREE ENERGY PREDICTED BY IDOCK:   -0.87 KCAL/MOL
REMARK 927      BINDING AFFINITY PREDICTED BY RF-SCORE:    0.00 PKD
ROOT
HETATM    1  C   UNL     1      -7.556  17.805  68.249  1.00  0.00    -0.256 C  
HETATM    2  N   UNL     1      -8.501  16.929  68.885  1.00  0.00    -0.235 N  
HETATM    3  C   UNL     1      -9.809  16.858  68.453  1.00  0.00    -0.266 C  
HETATM    4  H   UNL     1      -8.200  16.351  69.669  1.00  0.00     0.000 HD 
HETATM    5  O   UNL     1     -10.239  17.479  67.488  1.00  0.00    -0.314 OA 
ENDROOT
BRANCH   3   6
HETATM    6  C   UNL     1     -10.696  15.959  69.258  1.00  0.00    -0.259 A  
HETATM    7  C   UNL     1     -10.962  14.684  68.778  1.00  0.00    -0.268 A  
HETATM    8  C   UNL     1     -11.754  13.848  69.556  1.00  0.00    -0.313 A  
HETATM    9  C   UNL     1     -12.299  14.329  70.743  1.00  0.00    -0.427 A  
HETATM   10  N   UNL     1     -11.194  16.454  70.425  1.00  0.00    -0.335 NA 
HETATM   11  C   UNL     1     -11.990  15.623  71.133  1.00  0.00    -0.409 A  
BRANCH   8  12
HETATM   12  O   UNL     1     -12.107  12.572  69.183  1.00  0.00    -0.247 OA 
BRANCH  12  13
HETATM   13  C   UNL     1     -11.923  11.530  70.068  1.00  0.00    -0.357 A  
HETATM   14  C   UNL     1     -10.861  10.666  69.793  1.00  0.00    -0.317 A  
HETATM   15  C   UNL     1     -10.646   9.561  70.610  1.00  0.00    -0.308 A  
HETATM   16  F   UNL     1      -9.633   8.726  70.332  1.00  0.00    -0.160 F  
HETATM   17  C   UNL     1     -11.510   9.267  71.666  1.00  0.00    -0.398 A  
HETATM   18  C   UNL     1     -12.781  11.259  71.140  1.00  0.00    -0.492 A  
HETATM   19  C   UNL     1     -12.571  10.132  71.943  1.00  0.00    -0.437 A  
BRANCH  17  20
HETATM   20  N   UNL     1     -11.302   8.091  72.422  1.00  0.00    -0.354 N  
HETATM   21  H   UNL     1     -10.855   8.147  73.337  1.00  0.00     0.000 HD 
BRANCH  20  22
HETATM   22  C   UNL     1     -11.705   6.858  71.925  1.00  0.00    -0.299 C  
HETATM   23  O   UNL     1     -12.602   6.695  71.101  1.00  0.00    -0.303 OA 
BRANCH  22  24
HETATM   24  N   UNL     1     -10.967   5.835  72.488  1.00  0.00    -0.247 N  
HETATM   25  H   UNL     1     -11.134   5.580  73.462  1.00  0.00     0.000 HD 
BRANCH  24  26
HETATM   26  C   UNL     1      -9.991   5.134  71.753  1.00  0.00    -0.187 A  
HETATM   27  C   UNL     1      -9.707   3.820  72.110  1.00  0.00    -0.228 A  
HETATM   28  C   UNL     1      -8.743   3.104  71.402  1.00  0.00    -0.118 A  
HETATM   29  C   UNL     1      -8.004   3.713  70.379  1.00  0.00    -0.050 A  
HETATM   30 CL   UNL     1      -6.825   2.721  69.603  1.00  0.00    -0.034 Cl 
HETATM   31  C   UNL     1      -8.237   5.050  70.039  1.00  0.00    -0.081 A  
HETATM   32  C   UNL     1      -9.270   5.742  70.718  1.00  0.00    -0.171 A  
HETATM   33  C   UNL     1      -7.431   5.819  69.021  1.00  0.00    -0.084 C  
HETATM   34  F   UNL     1      -8.196   6.275  67.991  1.00  0.00    -0.110 F  
HETATM   35  F   UNL     1      -6.865   6.934  69.575  1.00  0.00    -0.045 F  
HETATM   36  F   UNL     1      -6.397   5.154  68.441  1.00  0.00    -0.030 F  
ENDBRANCH  24  26
ENDBRANCH  22  24
ENDBRANCH  20  22
ENDBRANCH  17  20
ENDBRANCH  12  13
ENDBRANCH   8  12
ENDBRANCH   3   6
TORSDOF 7
ENDMDL
MODEL      204
REMARK 921   NORMALIZED FREE ENERGY PREDICTED BY IDOCK:   -4.98 KCAL/MOL
REMARK 922        TOTAL FREE ENERGY PREDICTED BY IDOCK:   -9.00 KCAL/MOL
REMARK 923 INTER-LIGAND FREE ENERGY PREDICTED BY IDOCK:   -7.64 KCAL/MOL
REMARK 924 INTRA-LIGAND FREE ENERGY PREDICTED BY IDOCK:   -1.36 KCAL/MOL
REMARK 927      BINDING AFFINITY PREDICTED BY RF-SCORE:    0.00 PKD
ROOT
HETATM    1  C   UNL     1     -14.032   7.557  71.431  1.00  0.00    -0.356 C  
HETATM    2  N   UNL     1     -12.637   7.638  71.099  1.00  0.00    -0.490 N  
HETATM    3  C   UNL     1     -11.743   8.283  71.926  1.00  0.00    -0.322 C  
HETATM    4  H   UNL     1     -12.302   7.211  70.235  1.00  0.00     0.000 HD 
HETATM    5  O   UNL     1     -12.052   8.777  73.005  1.00  0.00    -0.072 OA 
ENDROOT
BRANCH   3   6
HETATM    6  C   UNL     1     -10.337   8.352  71.414  1.00  0.00    -0.222 A  
HETATM    7  C   UNL     1     -10.133   8.512  70.051  1.00  0.00    -0.195 A  
HETATM    8  C   UNL     1      -8.825   8.616  69.596  1.00  0.00    -0.137 A  
HETATM    9  C   UNL     1      -7.773   8.495  70.500  1.00  0.00    -0.084 A  
HETATM   10  N   UNL     1      -9.333   8.253  72.329  1.00  0.00    -0.226 NA 
HETATM   11  C   UNL     1      -8.075   8.321  71.842  1.00  0.00    -0.141 A  
BRANCH   8  12
HETATM   12  O   UNL     1      -8.489   8.756  68.270  1.00  0.00    -0.128 OA 
BRANCH  12  13
HETATM   13  C   UNL     1      -9.020   9.798  67.540  1.00  0.00    -0.131 A  
HETATM   14  C   UNL     1      -8.513  11.069  67.820  1.00  0.00    -0.122 A  
HETATM   15  C   UNL     1      -9.038  12.178  67.162  1.00  0.00    -0.189 A  
HETATM   16  F   UNL     1      -8.557  13.398  67.446  1.00  0.00    -0.163 F  
HETATM   17  C   UNL     1     -10.104  12.048  66.270  1.00  0.00    -0.222 A  
HETATM   18  C   UNL     1     -10.073   9.654  66.628  1.00  0.00    -0.307 A  
HETATM   19  C   UNL     1     -10.610  10.777  65.988  1.00  0.00    -0.224 A  
BRANCH  17  20
HETATM   20  N   UNL     1     -10.659  13.208  65.685  1.00  0.00    -0.273 N  
HETATM   21  H   UNL     1     -10.139  13.714  64.968  1.00  0.00     0.000 HD 
BRANCH  20  22
HETATM   22  C   UNL     1     -11.910  13.663  66.081  1.00  0.00    -0.392 C  
HETATM   23  O   UNL     1     -12.815  13.981  65.314  1.00  0.00    -0.686 OA 
BRANCH  22  24
HETATM   24  N   UNL     1     -11.999  13.721  67.459  1.00  0.00    -0.383 N  
HETATM   25  H   UNL     1     -12.335  12.905  67.970  1.00  0.00     0.000 HD 
BRANCH  24  26
HETATM   26  C   UNL     1     -11.639  14.878  68.176  1.00  0.00    -0.334 A  
HETATM   27  C   UNL     1     -10.887  15.854  67.528  1.00  0.00    -0.305 A  
HETATM   28  C   UNL     1     -10.514  17.008  68.215  1.00  0.00    -0.363 A  
HETATM   29  C   UNL     1     -10.824  17.169  69.572  1.00  0.00     0.086 A  
HETATM   30 CL   UNL     1     -10.279  18.632  70.305  1.00  0.00     1.102 Cl 
HETATM   31  C   UNL     1     -11.534  16.176  70.257  1.00  0.00    -0.319 A  
HETATM   32  C   UNL     1     -11.970  15.043  69.527  1.00  0.00    -0.346 A  
HETATM   33  C   UNL     1     -11.832  16.213  71.735  1.00  0.00    -0.506 C  
HETATM   34  F   UNL     1     -13.169  16.202  71.995  1.00  0.00    -0.490 F  
HETATM   35  F   UNL     1     -11.328  15.113  72.372  1.00  0.00    -0.494 F  
HETATM   36  F   UNL     1     -11.335  17.274  72.425  1.00  0.00    -0.207 F  
ENDBRANCH  24  26
ENDBRANCH  22  24
ENDBRANCH  20  22
ENDBRANCH  17  20
ENDBRANCH  12  13
ENDBRANCH   8  12
ENDBRANCH   3   6
TORSDOF 7
ENDMDL
MODEL      205
REMARK 921   NORMALIZED FREE ENERGY PREDICTED BY IDOCK:   -4.97 KCAL/MOL
REMARK 922        TOTAL FREE ENERGY PREDICTED BY IDOCK:   -9.00 KCAL/MOL
REMARK 923 INTER-LIGAND FREE ENERGY PREDICTED BY IDOCK:   -8.83 KCAL/MOL
REMARK 924 INTRA-LIGAND FREE ENERGY PREDICTED BY IDOCK:   -0.17 KCAL/MOL
REMARK 927      BINDING AFFINITY PREDICTED BY RF-SCORE:    0.00 PKD
ROOT
HETATM    1  C   UNL     1     -11.889  11.955  63.210  1.00  0.00    -0.318 C  
HETATM    2  N   UNL     1     -11.012  11.551  64.274  1.00  0.00    -0.347 N  
HETATM    3  C   UNL     1     -10.013  10.625  64.062  1.00  0.00    -0.337 C  
HETATM    4  H   UNL     1     -11.131  11.955  65.202  1.00  0.00     0.000 HD 
HETATM    5  O   UNL     1      -9.769  10.129  62.967  1.00  0.00    -0.258 OA 
ENDROOT
BRANCH   3   6
HETATM    6  C   UNL     1      -9.228  10.245  65.279  1.00  0.00    -0.199 A  
HETATM    7  C   UNL     1      -8.473  11.221  65.915  1.00  0.00    -0.060 A  
HETATM    8  C   UNL     1      -7.784  10.863  67.066  1.00  0.00    -0.129 A  
HETATM    9  C   UNL     1      -7.818   9.543  67.504  1.00  0.00    -0.102 A  
HETATM   10  N   UNL     1      -9.303   8.950  65.692  1.00  0.00    -0.220 NA 
HETATM   11  C   UNL     1      -8.587   8.634  66.794  1.00  0.00    -0.120 A  
BRANCH   8  12
HETATM   12  O   UNL     1      -6.986  11.731  67.776  1.00  0.00    -0.082 OA 
BRANCH  12  13
HETATM   13  C   UNL     1      -7.350  13.057  67.882  1.00  0.00    -0.128 A  
HETATM   14  C   UNL     1      -6.780  13.770  68.938  1.00  0.00    -0.108 A  
HETATM   15  C   UNL     1      -7.140  15.099  69.143  1.00  0.00    -0.154 A  
HETATM   16  F   UNL     1      -6.600  15.775  70.169  1.00  0.00    -0.166 F  
HETATM   17  C   UNL     1      -8.107  15.714  68.345  1.00  0.00    -0.137 A  
HETATM   18  C   UNL     1      -8.302  13.672  67.061  1.00  0.00    -0.099 A  
HETATM   19  C   UNL     1      -8.675  15.001  67.287  1.00  0.00    -0.221 A  
BRANCH  17  20
HETATM   20  N   UNL     1      -8.502  17.039  68.637  1.00  0.00    -0.259 N  
HETATM   21  H   UNL     1      -7.872  17.655  69.153  1.00  0.00     0.000 HD 
BRANCH  20  22
HETATM   22  C   UNL     1      -9.742  17.507  68.225  1.00  0.00    -0.311 C  
HETATM   23  O   UNL     1     -10.009  17.874  67.083  1.00  0.00    -0.302 OA 
BRANCH  22  24
HETATM   24  N   UNL     1     -10.640  17.517  69.276  1.00  0.00    -0.379 N  
HETATM   25  H   UNL     1     -10.894  18.407  69.704  1.00  0.00     0.000 HD 
BRANCH  24  26
HETATM   26  C   UNL     1     -11.212  16.329  69.772  1.00  0.00    -0.314 A  
HETATM   27  C   UNL     1     -11.491  15.302  68.876  1.00  0.00    -0.346 A  
HETATM   28  C   UNL     1     -12.060  14.117  69.339  1.00  0.00    -0.372 A  
HETATM   29  C   UNL     1     -12.422  13.972  70.685  1.00  0.00    -0.365 A  
HETATM   30 CL   UNL     1     -13.141  12.465  71.117  1.00  0.00    -0.219 Cl 
HETATM   31  C   UNL     1     -12.199  15.013  71.593  1.00  0.00    -0.411 A  
HETATM   32  C   UNL     1     -11.552  16.182  71.122  1.00  0.00    -0.453 A  
HETATM   33  C   UNL     1     -12.639  14.989  73.036  1.00  0.00    -0.437 C  
HETATM   34  F   UNL     1     -11.591  15.104  73.899  1.00  0.00    -0.491 F  
HETATM   35  F   UNL     1     -13.464  16.041  73.322  1.00  0.00    -0.589 F  
HETATM   36  F   UNL     1     -13.324  13.887  73.440  1.00  0.00    -0.399 F  
ENDBRANCH  24  26
ENDBRANCH  22  24
ENDBRANCH  20  22
ENDBRANCH  17  20
ENDBRANCH  12  13
ENDBRANCH   8  12
ENDBRANCH   3   6
TORSDOF 7
ENDMDL
MODEL      206
REMARK 921   NORMALIZED FREE ENERGY PREDICTED BY IDOCK:   -4.97 KCAL/MOL
REMARK 922        TOTAL FREE ENERGY PREDICTED BY IDOCK:   -8.99 KCAL/MOL
REMARK 923 INTER-LIGAND FREE ENERGY PREDICTED BY IDOCK:   -7.61 KCAL/MOL
REMARK 924 INTRA-LIGAND FREE ENERGY PREDICTED BY IDOCK:   -1.38 KCAL/MOL
REMARK 927      BINDING AFFINITY PREDICTED BY RF-SCORE:    0.00 PKD
ROOT
HETATM    1  C   UNL     1     -12.338  14.453  66.522  1.00  0.00    -0.243 C  
HETATM    2  N   UNL     1     -11.403  13.520  65.957  1.00  0.00    -0.308 N  
HETATM    3  C   UNL     1     -11.823  12.501  65.129  1.00  0.00    -0.405 C  
HETATM    4  H   UNL     1     -10.410  13.612  66.173  1.00  0.00     0.000 HD 
HETATM    5  O   UNL     1     -12.989  12.350  64.778  1.00  0.00    -0.786 OA 
ENDROOT
BRANCH   3   6
HETATM    6  C   UNL     1     -10.748  11.563  64.678  1.00  0.00    -0.319 A  
HETATM    7  C   UNL     1      -9.946  10.960  65.637  1.00  0.00    -0.305 A  
HETATM    8  C   UNL     1      -8.980  10.060  65.205  1.00  0.00    -0.192 A  
HETATM    9  C   UNL     1      -8.806   9.842  63.841  1.00  0.00    -0.250 A  
HETATM   10  N   UNL     1     -10.620  11.356  63.338  1.00  0.00    -0.388 NA 
HETATM   11  C   UNL     1      -9.644  10.503  62.957  1.00  0.00    -0.333 A  
BRANCH   8  12
HETATM   12  O   UNL     1      -8.110   9.413  66.052  1.00  0.00    -0.108 OA 
BRANCH  12  13
HETATM   13  C   UNL     1      -8.024   8.037  66.017  1.00  0.00    -0.101 A  
HETATM   14  C   UNL     1      -9.223   7.340  66.178  1.00  0.00    -0.136 A  
HETATM   15  C   UNL     1      -9.209   5.949  66.209  1.00  0.00    -0.158 A  
HETATM   16  F   UNL     1     -10.362   5.284  66.378  1.00  0.00    -0.198 F  
HETATM   17  C   UNL     1      -8.008   5.239  66.140  1.00  0.00    -0.104 A  
HETATM   18  C   UNL     1      -6.817   7.334  65.923  1.00  0.00    -0.057 A  
HETATM   19  C   UNL     1      -6.809   5.936  65.977  1.00  0.00    -0.061 A  
BRANCH  17  20
HETATM   20  N   UNL     1      -8.032   3.830  66.255  1.00  0.00    -0.089 N  
HETATM   21  H   UNL     1      -7.682   3.252  65.491  1.00  0.00     0.000 HD 
BRANCH  20  22
HETATM   22  C   UNL     1      -8.529   3.229  67.404  1.00  0.00    -0.095 C  
HETATM   23  O   UNL     1      -9.384   2.348  67.420  1.00  0.00    -0.158 OA 
BRANCH  22  24
HETATM   24  N   UNL     1      -7.939   3.763  68.534  1.00  0.00    -0.070 N  
HETATM   25  H   UNL     1      -6.929   3.907  68.547  1.00  0.00     0.000 HD 
BRANCH  24  26
HETATM   26  C   UNL     1      -8.696   4.114  69.669  1.00  0.00    -0.078 A  
HETATM   27  C   UNL     1      -8.642   3.286  70.785  1.00  0.00    -0.115 A  
HETATM   28  C   UNL     1      -9.384   3.608  71.921  1.00  0.00    -0.189 A  
HETATM   29  C   UNL     1     -10.240   4.717  71.929  1.00  0.00    -0.193 A  
HETATM   30 CL   UNL     1     -11.119   4.984  73.389  1.00  0.00    -0.384 Cl 
HETATM   31  C   UNL     1     -10.350   5.533  70.797  1.00  0.00    -0.321 A  
HETATM   32  C   UNL     1      -9.534   5.236  69.678  1.00  0.00    -0.196 A  
HETATM   33  C   UNL     1     -11.311   6.689  70.676  1.00  0.00    -0.347 C  
HETATM   34  F   UNL     1     -10.674   7.874  70.463  1.00  0.00    -0.216 F  
HETATM   35  F   UNL     1     -12.149   6.530  69.607  1.00  0.00    -0.393 F  
HETATM   36  F   UNL     1     -12.135   6.905  71.736  1.00  0.00    -0.312 F  
ENDBRANCH  24  26
ENDBRANCH  22  24
ENDBRANCH  20  22
ENDBRANCH  17  20
ENDBRANCH  12  13
ENDBRANCH   8  12
ENDBRANCH   3   6
TORSDOF 7
ENDMDL
MODEL      207
REMARK 921   NORMALIZED FREE ENERGY PREDICTED BY IDOCK:   -4.97 KCAL/MOL
REMARK 922        TOTAL FREE ENERGY PREDICTED BY IDOCK:   -8.99 KCAL/MOL
REMARK 923 INTER-LIGAND FREE ENERGY PREDICTED BY IDOCK:   -7.77 KCAL/MOL
REMARK 924 INTRA-LIGAND FREE ENERGY PREDICTED BY IDOCK:   -1.22 KCAL/MOL
REMARK 927      BINDING AFFINITY PREDICTED BY RF-SCORE:    0.00 PKD
ROOT
HETATM    1  C   UNL     1     -10.839   3.913  63.786  1.00  0.00    -0.119 C  
HETATM    2  N   UNL     1     -10.834   4.314  65.166  1.00  0.00    -0.685 N  
HETATM    3  C   UNL     1      -9.741   4.078  65.973  1.00  0.00    -0.187 C  
HETATM    4  H   UNL     1     -11.653   4.781  65.556  1.00  0.00     0.000 HD 
HETATM    5  O   UNL     1      -8.699   3.570  65.573  1.00  0.00    -0.114 OA 
ENDROOT
BRANCH   3   6
HETATM    6  C   UNL     1      -9.908   4.482  67.405  1.00  0.00    -0.157 A  
HETATM    7  C   UNL     1     -10.303   5.783  67.687  1.00  0.00    -0.270 A  
HETATM    8  C   UNL     1     -10.493   6.131  69.018  1.00  0.00    -0.248 A  
HETATM    9  C   UNL     1     -10.225   5.198  70.016  1.00  0.00    -0.354 A  
HETATM   10  N   UNL     1      -9.659   3.538  68.354  1.00  0.00    -0.137 NA 
HETATM   11  C   UNL     1      -9.819   3.927  69.638  1.00  0.00    -0.036 A  
BRANCH   8  12
HETATM   12  O   UNL     1     -10.863   7.390  69.430  1.00  0.00    -0.232 OA 
BRANCH  12  13
HETATM   13  C   UNL     1      -9.987   8.443  69.268  1.00  0.00    -0.195 A  
HETATM   14  C   UNL     1      -8.927   8.510  70.173  1.00  0.00    -0.148 A  
HETATM   15  C   UNL     1      -8.033   9.574  70.106  1.00  0.00    -0.160 A  
HETATM   16  F   UNL     1      -7.023   9.641  70.988  1.00  0.00    -0.106 F  
HETATM   17  C   UNL     1      -8.212  10.609  69.186  1.00  0.00    -0.139 A  
HETATM   18  C   UNL     1     -10.162   9.463  68.324  1.00  0.00    -0.229 A  
HETATM   19  C   UNL     1      -9.272  10.541  68.278  1.00  0.00    -0.152 A  
BRANCH  17  20
HETATM   20  N   UNL     1      -7.327  11.711  69.204  1.00  0.00    -0.274 N  
HETATM   21  H   UNL     1      -6.782  11.910  70.043  1.00  0.00     0.000 HD 
BRANCH  20  22
HETATM   22  C   UNL     1      -7.197  12.523  68.086  1.00  0.00    -0.106 C  
HETATM   23  O   UNL     1      -6.602  12.210  67.058  1.00  0.00    -0.147 OA 
BRANCH  22  24
HETATM   24  N   UNL     1      -7.819  13.741  68.286  1.00  0.00    -0.135 N  
HETATM   25  H   UNL     1      -7.600  14.278  69.125  1.00  0.00     0.000 HD 
BRANCH  24  26
HETATM   26  C   UNL     1      -8.748  14.259  67.363  1.00  0.00    -0.209 A  
HETATM   27  C   UNL     1      -8.444  15.450  66.712  1.00  0.00    -0.307 A  
HETATM   28  C   UNL     1      -9.347  15.986  65.795  1.00  0.00    -0.250 A  
HETATM   29  C   UNL     1     -10.590  15.380  65.572  1.00  0.00    -0.383 A  
HETATM   30 CL   UNL     1     -11.620  16.164  64.432  1.00  0.00    -0.321 Cl 
HETATM   31  C   UNL     1     -10.938  14.210  66.256  1.00  0.00    -0.303 A  
HETATM   32  C   UNL     1      -9.981  13.637  67.129  1.00  0.00    -0.247 A  
HETATM   33  C   UNL     1     -12.285  13.539  66.156  1.00  0.00    -0.433 C  
HETATM   34  F   UNL     1     -12.195  12.264  65.685  1.00  0.00    -0.477 F  
HETATM   35  F   UNL     1     -12.880  13.432  67.383  1.00  0.00     0.012 F  
HETATM   36  F   UNL     1     -13.210  14.153  65.372  1.00  0.00    -0.521 F  
ENDBRANCH  24  26
ENDBRANCH  22  24
ENDBRANCH  20  22
ENDBRANCH  17  20
ENDBRANCH  12  13
ENDBRANCH   8  12
ENDBRANCH   3   6
TORSDOF 7
ENDMDL
MODEL      208
REMARK 921   NORMALIZED FREE ENERGY PREDICTED BY IDOCK:   -4.96 KCAL/MOL
REMARK 922        TOTAL FREE ENERGY PREDICTED BY IDOCK:   -8.97 KCAL/MOL
REMARK 923 INTER-LIGAND FREE ENERGY PREDICTED BY IDOCK:   -7.90 KCAL/MOL
REMARK 924 INTRA-LIGAND FREE ENERGY PREDICTED BY IDOCK:   -1.07 KCAL/MOL
REMARK 927      BINDING AFFINITY PREDICTED BY RF-SCORE:    0.00 PKD
ROOT
HETATM    1  C   UNL     1      -9.751   3.862  70.029  1.00  0.00    -0.172 C  
HETATM    2  N   UNL     1     -10.513   5.075  70.141  1.00  0.00    -0.238 N  
HETATM    3  C   UNL     1     -10.402   5.887  71.249  1.00  0.00    -0.221 C  
HETATM    4  H   UNL     1     -11.148   5.339  69.387  1.00  0.00     0.000 HD 
HETATM    5  O   UNL     1      -9.626   5.670  72.174  1.00  0.00    -0.149 OA 
ENDROOT
BRANCH   3   6
HETATM    6  C   UNL     1     -11.312   7.076  71.260  1.00  0.00    -0.274 A  
HETATM    7  C   UNL     1     -10.759   8.338  71.094  1.00  0.00    -0.270 A  
HETATM    8  C   UNL     1     -11.620   9.428  71.065  1.00  0.00    -0.330 A  
HETATM    9  C   UNL     1     -12.983   9.230  71.265  1.00  0.00    -0.342 A  
HETATM   10  N   UNL     1     -12.642   6.844  71.436  1.00  0.00    -0.370 NA 
HETATM   11  C   UNL     1     -13.441   7.933  71.440  1.00  0.00    -0.244 A  
BRANCH   8  12
HETATM   12  O   UNL     1     -11.196  10.729  70.928  1.00  0.00    -0.085 OA 
BRANCH  12  13
HETATM   13  C   UNL     1     -11.439  11.402  69.749  1.00  0.00    -0.300 A  
HETATM   14  C   UNL     1     -11.264  10.671  68.573  1.00  0.00    -0.342 A  
HETATM   15  C   UNL     1     -11.438  11.297  67.342  1.00  0.00    -0.221 A  
HETATM   16  F   UNL     1     -11.254  10.593  66.215  1.00  0.00    -0.176 F  
HETATM   17  C   UNL     1     -11.728  12.661  67.263  1.00  0.00    -0.370 A  
HETATM   18  C   UNL     1     -11.754  12.765  69.681  1.00  0.00    -0.372 A  
HETATM   19  C   UNL     1     -11.905  13.392  68.439  1.00  0.00    -0.401 A  
BRANCH  17  20
HETATM   20  N   UNL     1     -11.818  13.275  65.993  1.00  0.00    -0.375 N  
HETATM   21  H   UNL     1     -12.668  13.172  65.438  1.00  0.00     0.000 HD 
BRANCH  20  22
HETATM   22  C   UNL     1     -10.754  14.017  65.497  1.00  0.00    -0.313 C  
HETATM   23  O   UNL     1     -10.866  15.062  64.860  1.00  0.00    -0.393 OA 
BRANCH  22  24
HETATM   24  N   UNL     1      -9.548  13.418  65.807  1.00  0.00    -0.487 N  
HETATM   25  H   UNL     1      -9.243  12.608  65.266  1.00  0.00     0.000 HD 
BRANCH  24  26
HETATM   26  C   UNL     1      -8.730  13.896  66.848  1.00  0.00    -0.158 A  
HETATM   27  C   UNL     1      -8.659  15.269  67.060  1.00  0.00    -0.256 A  
HETATM   28  C   UNL     1      -7.854  15.770  68.082  1.00  0.00    -0.133 A  
HETATM   29  C   UNL     1      -7.058  14.914  68.855  1.00  0.00    -0.117 A  
HETATM   30 CL   UNL     1      -6.091  15.669  70.067  1.00  0.00    -0.162 Cl 
HETATM   31  C   UNL     1      -7.074  13.534  68.623  1.00  0.00    -0.106 A  
HETATM   32  C   UNL     1      -7.952  13.034  67.631  1.00  0.00    -0.169 A  
HETATM   33  C   UNL     1      -6.185  12.545  69.335  1.00  0.00    -0.113 C  
HETATM   34  F   UNL     1      -6.897  11.612  70.027  1.00  0.00    -0.108 F  
HETATM   35  F   UNL     1      -5.420  11.836  68.450  1.00  0.00    -0.046 F  
HETATM   36  F   UNL     1      -5.298  13.061  70.227  1.00  0.00    -0.085 F  
ENDBRANCH  24  26
ENDBRANCH  22  24
ENDBRANCH  20  22
ENDBRANCH  17  20
ENDBRANCH  12  13
ENDBRANCH   8  12
ENDBRANCH   3   6
TORSDOF 7
ENDMDL
MODEL      209
REMARK 921   NORMALIZED FREE ENERGY PREDICTED BY IDOCK:   -4.93 KCAL/MOL
REMARK 922        TOTAL FREE ENERGY PREDICTED BY IDOCK:   -8.94 KCAL/MOL
REMARK 923 INTER-LIGAND FREE ENERGY PREDICTED BY IDOCK:   -8.44 KCAL/MOL
REMARK 924 INTRA-LIGAND FREE ENERGY PREDICTED BY IDOCK:   -0.50 KCAL/MOL
REMARK 927      BINDING AFFINITY PREDICTED BY RF-SCORE:    0.00 PKD
ROOT
HETATM    1  C   UNL     1      -8.512   8.805  62.585  1.00  0.00    -0.183 C  
HETATM    2  N   UNL     1      -9.440   9.558  63.384  1.00  0.00    -0.470 N  
HETATM    3  C   UNL     1      -9.598  10.916  63.203  1.00  0.00    -0.357 C  
HETATM    4  H   UNL     1      -9.991   9.080  64.097  1.00  0.00     0.000 HD 
HETATM    5  O   UNL     1      -9.015  11.557  62.336  1.00  0.00    -0.316 OA 
ENDROOT
BRANCH   3   6
HETATM    6  C   UNL     1     -10.543  11.579  64.157  1.00  0.00    -0.363 A  
HETATM    7  C   UNL     1     -10.159  11.721  65.483  1.00  0.00    -0.285 A  
HETATM    8  C   UNL     1     -11.029  12.374  66.346  1.00  0.00    -0.276 A  
HETATM    9  C   UNL     1     -12.266  12.805  65.877  1.00  0.00    -0.422 A  
HETATM   10  N   UNL     1     -11.736  12.007  63.658  1.00  0.00    -0.470 NA 
HETATM   11  C   UNL     1     -12.569  12.604  64.539  1.00  0.00    -0.412 A  
BRANCH   8  12
HETATM   12  O   UNL     1     -10.775  12.561  67.685  1.00  0.00    -0.212 OA 
BRANCH  12  13
HETATM   13  C   UNL     1     -11.112  11.572  68.585  1.00  0.00    -0.238 A  
HETATM   14  C   UNL     1     -11.937  11.957  69.645  1.00  0.00    -0.365 A  
HETATM   15  C   UNL     1     -12.276  11.027  70.623  1.00  0.00    -0.385 A  
HETATM   16  F   UNL     1     -13.056  11.406  71.647  1.00  0.00    -0.491 F  
HETATM   17  C   UNL     1     -11.757   9.731  70.596  1.00  0.00    -0.300 A  
HETATM   18  C   UNL     1     -10.607  10.268  68.535  1.00  0.00    -0.240 A  
HETATM   19  C   UNL     1     -10.935   9.345  69.535  1.00  0.00    -0.193 A  
BRANCH  17  20
HETATM   20  N   UNL     1     -12.063   8.842  71.652  1.00  0.00    -0.323 N  
HETATM   21  H   UNL     1     -12.238   9.208  72.588  1.00  0.00     0.000 HD 
BRANCH  20  22
HETATM   22  C   UNL     1     -12.126   7.475  71.420  1.00  0.00    -0.327 C  
HETATM   23  O   UNL     1     -13.100   6.887  70.958  1.00  0.00    -0.270 OA 
BRANCH  22  24
HETATM   24  N   UNL     1     -10.946   6.858  71.791  1.00  0.00    -0.226 N  
HETATM   25  H   UNL     1     -10.737   6.739  72.782  1.00  0.00     0.000 HD 
BRANCH  24  26
HETATM   26  C   UNL     1     -10.024   6.389  70.835  1.00  0.00    -0.185 A  
HETATM   27  C   UNL     1      -9.854   5.016  70.693  1.00  0.00    -0.282 A  
HETATM   28  C   UNL     1      -8.945   4.525  69.756  1.00  0.00    -0.149 A  
HETATM   29  C   UNL     1      -8.147   5.397  69.004  1.00  0.00    -0.094 A  
HETATM   30 CL   UNL     1      -7.047   4.654  67.902  1.00  0.00    -0.060 Cl 
HETATM   31  C   UNL     1      -8.264   6.781  69.169  1.00  0.00    -0.121 A  
HETATM   32  C   UNL     1      -9.243   7.266  70.071  1.00  0.00    -0.148 A  
HETATM   33  C   UNL     1      -7.386   7.794  68.478  1.00  0.00    -0.091 C  
HETATM   34  F   UNL     1      -8.099   8.649  67.693  1.00  0.00    -0.103 F  
HETATM   35  F   UNL     1      -6.735   8.588  69.381  1.00  0.00    -0.042 F  
HETATM   36  F   UNL     1      -6.405   7.299  67.678  1.00  0.00    -0.040 F  
ENDBRANCH  24  26
ENDBRANCH  22  24
ENDBRANCH  20  22
ENDBRANCH  17  20
ENDBRANCH  12  13
ENDBRANCH   8  12
ENDBRANCH   3   6
TORSDOF 7
ENDMDL
MODEL      210
REMARK 921   NORMALIZED FREE ENERGY PREDICTED BY IDOCK:   -4.93 KCAL/MOL
REMARK 922        TOTAL FREE ENERGY PREDICTED BY IDOCK:   -8.93 KCAL/MOL
REMARK 923 INTER-LIGAND FREE ENERGY PREDICTED BY IDOCK:   -7.68 KCAL/MOL
REMARK 924 INTRA-LIGAND FREE ENERGY PREDICTED BY IDOCK:   -1.25 KCAL/MOL
REMARK 927      BINDING AFFINITY PREDICTED BY RF-SCORE:    0.00 PKD
ROOT
HETATM    1  C   UNL     1      -9.875   2.275  72.026  1.00  0.00    -0.152 C  
HETATM    2  N   UNL     1     -10.112   3.660  72.328  1.00  0.00    -0.167 N  
HETATM    3  C   UNL     1     -10.119   4.614  71.333  1.00  0.00    -0.178 C  
HETATM    4  H   UNL     1     -10.278   3.941  73.294  1.00  0.00     0.000 HD 
HETATM    5  O   UNL     1      -9.980   4.355  70.143  1.00  0.00    -0.221 OA 
ENDROOT
BRANCH   3   6
HETATM    6  C   UNL     1     -10.304   6.023  71.805  1.00  0.00    -0.215 A  
HETATM    7  C   UNL     1     -11.507   6.661  71.538  1.00  0.00    -0.343 A  
HETATM    8  C   UNL     1     -11.679   7.953  72.018  1.00  0.00    -0.311 A  
HETATM    9  C   UNL     1     -10.633   8.582  72.686  1.00  0.00    -0.217 A  
HETATM   10  N   UNL     1      -9.267   6.600  72.475  1.00  0.00    -0.138 NA 
HETATM   11  C   UNL     1      -9.460   7.870  72.892  1.00  0.00    -0.257 A  
BRANCH   8  12
HETATM   12  O   UNL     1     -12.815   8.700  71.804  1.00  0.00    -0.326 OA 
BRANCH  12  13
HETATM   13  C   UNL     1     -12.700  10.009  71.387  1.00  0.00    -0.415 A  
HETATM   14  C   UNL     1     -13.300  10.971  72.201  1.00  0.00    -0.285 A  
HETATM   15  C   UNL     1     -13.273  12.309  71.818  1.00  0.00    -0.326 A  
HETATM   16  F   UNL     1     -13.864  13.228  72.597  1.00  0.00    -0.620 F  
HETATM   17  C   UNL     1     -12.706  12.698  70.603  1.00  0.00    -0.062 A  
HETATM   18  C   UNL     1     -12.107  10.392  70.178  1.00  0.00    -0.334 A  
HETATM   19  C   UNL     1     -12.103  11.736  69.789  1.00  0.00    -0.338 A  
BRANCH  17  20
HETATM   20  N   UNL     1     -12.771  14.056  70.215  1.00  0.00    -0.323 N  
HETATM   21  H   UNL     1     -13.665  14.464  69.941  1.00  0.00     0.000 HD 
BRANCH  20  22
HETATM   22  C   UNL     1     -11.622  14.836  70.204  1.00  0.00    -0.290 C  
HETATM   23  O   UNL     1     -11.089  15.312  71.203  1.00  0.00    -0.340 OA 
BRANCH  22  24
HETATM   24  N   UNL     1     -11.162  15.018  68.913  1.00  0.00    -0.261 N  
HETATM   25  H   UNL     1     -11.828  15.246  68.176  1.00  0.00     0.000 HD 
BRANCH  24  26
HETATM   26  C   UNL     1      -9.797  14.896  68.591  1.00  0.00    -0.225 A  
HETATM   27  C   UNL     1      -9.016  16.048  68.558  1.00  0.00    -0.200 A  
HETATM   28  C   UNL     1      -7.662  15.956  68.238  1.00  0.00    -0.137 A  
HETATM   29  C   UNL     1      -7.091  14.729  67.879  1.00  0.00    -0.158 A  
HETATM   30 CL   UNL     1      -5.412  14.764  67.481  1.00  0.00     0.059 Cl 
HETATM   31  C   UNL     1      -7.870  13.567  67.853  1.00  0.00    -0.159 A  
HETATM   32  C   UNL     1      -9.226  13.663  68.252  1.00  0.00    -0.198 A  
HETATM   33  C   UNL     1      -7.370  12.221  67.389  1.00  0.00    -0.151 C  
HETATM   34  F   UNL     1      -7.450  11.274  68.365  1.00  0.00    -0.085 F  
HETATM   35  F   UNL     1      -8.123  11.741  66.354  1.00  0.00    -0.160 F  
HETATM   36  F   UNL     1      -6.088  12.174  66.940  1.00  0.00    -0.147 F  
ENDBRANCH  24  26
ENDBRANCH  22  24
ENDBRANCH  20  22
ENDBRANCH  17  20
ENDBRANCH  12  13
ENDBRANCH   8  12
ENDBRANCH   3   6
TORSDOF 7
ENDMDL
MODEL      211
REMARK 921   NORMALIZED FREE ENERGY PREDICTED BY IDOCK:   -4.92 KCAL/MOL
REMARK 922        TOTAL FREE ENERGY PREDICTED BY IDOCK:   -8.92 KCAL/MOL
REMARK 923 INTER-LIGAND FREE ENERGY PREDICTED BY IDOCK:   -8.31 KCAL/MOL
REMARK 924 INTRA-LIGAND FREE ENERGY PREDICTED BY IDOCK:   -0.61 KCAL/MOL
REMARK 927      BINDING AFFINITY PREDICTED BY RF-SCORE:    0.00 PKD
ROOT
HETATM    1  C   UNL     1     -12.260  12.535  63.696  1.00  0.00    -0.550 C  
HETATM    2  N   UNL     1     -11.111  12.039  64.402  1.00  0.00    -0.324 N  
HETATM    3  C   UNL     1     -10.271  11.107  63.831  1.00  0.00    -0.362 C  
HETATM    4  H   UNL     1     -10.913  12.382  65.342  1.00  0.00     0.000 HD 
HETATM    5  O   UNL     1     -10.407  10.681  62.689  1.00  0.00     0.081 OA 
ENDROOT
BRANCH   3   6
HETATM    6  C   UNL     1      -9.159  10.628  64.712  1.00  0.00    -0.209 A  
HETATM    7  C   UNL     1      -8.700  11.466  65.718  1.00  0.00    -0.062 A  
HETATM    8  C   UNL     1      -7.696  10.991  66.553  1.00  0.00    -0.154 A  
HETATM    9  C   UNL     1      -7.147   9.734  66.319  1.00  0.00    -0.095 A  
HETATM   10  N   UNL     1      -8.661   9.384  64.469  1.00  0.00    -0.198 NA 
HETATM   11  C   UNL     1      -7.661   8.974  65.279  1.00  0.00    -0.098 A  
BRANCH   8  12
HETATM   12  O   UNL     1      -7.141  11.730  67.572  1.00  0.00    -0.095 OA 
BRANCH  12  13
HETATM   13  C   UNL     1      -7.536  13.038  67.757  1.00  0.00    -0.152 A  
HETATM   14  C   UNL     1      -7.114  13.649  68.939  1.00  0.00    -0.102 A  
HETATM   15  C   UNL     1      -7.517  14.951  69.221  1.00  0.00    -0.177 A  
HETATM   16  F   UNL     1      -7.120  15.528  70.366  1.00  0.00    -0.005 F  
HETATM   17  C   UNL     1      -8.387  15.636  68.370  1.00  0.00    -0.162 A  
HETATM   18  C   UNL     1      -8.389  13.725  66.884  1.00  0.00    -0.029 A  
HETATM   19  C   UNL     1      -8.808  15.025  67.186  1.00  0.00    -0.233 A  
BRANCH  17  20
HETATM   20  N   UNL     1      -8.836  16.926  68.734  1.00  0.00    -0.266 N  
HETATM   21  H   UNL     1      -8.167  17.622  69.063  1.00  0.00     0.000 HD 
BRANCH  20  22
HETATM   22  C   UNL     1     -10.183  17.249  68.645  1.00  0.00    -0.351 C  
HETATM   23  O   UNL     1     -10.758  17.578  67.611  1.00  0.00    -0.362 OA 
BRANCH  22  24
HETATM   24  N   UNL     1     -10.794  17.162  69.882  1.00  0.00    -0.261 N  
HETATM   25  H   UNL     1     -10.795  17.979  70.494  1.00  0.00     0.000 HD 
BRANCH  24  26
HETATM   26  C   UNL     1     -11.413  15.976  70.320  1.00  0.00    -0.359 A  
HETATM   27  C   UNL     1     -12.024  15.968  71.570  1.00  0.00    -0.539 A  
HETATM   28  C   UNL     1     -12.642  14.806  72.030  1.00  0.00    -0.401 A  
HETATM   29  C   UNL     1     -12.594  13.622  71.281  1.00  0.00    -0.351 A  
HETATM   30 CL   UNL     1     -13.377  12.253  71.980  1.00  0.00    -0.578 Cl 
HETATM   31  C   UNL     1     -11.938  13.594  70.045  1.00  0.00    -0.413 A  
HETATM   32  C   UNL     1     -11.380  14.801  69.558  1.00  0.00    -0.312 A  
HETATM   33  C   UNL     1     -11.751  12.350  69.213  1.00  0.00    -0.329 C  
HETATM   34  F   UNL     1     -12.328  12.457  67.984  1.00  0.00    -0.311 F  
HETATM   35  F   UNL     1     -10.427  12.106  68.974  1.00  0.00    -0.221 F  
HETATM   36  F   UNL     1     -12.230  11.192  69.740  1.00  0.00    -0.328 F  
ENDBRANCH  24  26
ENDBRANCH  22  24
ENDBRANCH  20  22
ENDBRANCH  17  20
ENDBRANCH  12  13
ENDBRANCH   8  12
ENDBRANCH   3   6
TORSDOF 7
ENDMDL
MODEL      212
REMARK 921   NORMALIZED FREE ENERGY PREDICTED BY IDOCK:   -4.92 KCAL/MOL
REMARK 922        TOTAL FREE ENERGY PREDICTED BY IDOCK:   -8.92 KCAL/MOL
REMARK 923 INTER-LIGAND FREE ENERGY PREDICTED BY IDOCK:   -8.11 KCAL/MOL
REMARK 924 INTRA-LIGAND FREE ENERGY PREDICTED BY IDOCK:   -0.81 KCAL/MOL
REMARK 927      BINDING AFFINITY PREDICTED BY RF-SCORE:    0.00 PKD
ROOT
HETATM    1  C   UNL     1      -6.892   9.359  64.597  1.00  0.00    -0.096 C  
HETATM    2  N   UNL     1      -7.148  10.604  65.267  1.00  0.00    -0.339 N  
HETATM    3  C   UNL     1      -6.422  10.978  66.377  1.00  0.00    -0.127 C  
HETATM    4  H   UNL     1      -7.880  11.221  64.916  1.00  0.00     0.000 HD 
HETATM    5  O   UNL     1      -5.492  10.321  66.834  1.00  0.00    -0.040 OA 
ENDROOT
BRANCH   3   6
HETATM    6  C   UNL     1      -6.850  12.264  67.014  1.00  0.00    -0.031 A  
HETATM    7  C   UNL     1      -8.201  12.466  67.262  1.00  0.00    -0.184 A  
HETATM    8  C   UNL     1      -8.578  13.646  67.890  1.00  0.00    -0.181 A  
HETATM    9  C   UNL     1      -7.612  14.603  68.189  1.00  0.00    -0.123 A  
HETATM   10  N   UNL     1      -5.877  13.168  67.313  1.00  0.00    -0.339 NA 
HETATM   11  C   UNL     1      -6.289  14.319  67.889  1.00  0.00    -0.163 A  
BRANCH   8  12
HETATM   12  O   UNL     1      -9.884  13.974  68.173  1.00  0.00    -0.221 OA 
BRANCH  12  13
HETATM   13  C   UNL     1     -10.751  12.996  68.611  1.00  0.00    -0.248 A  
HETATM   14  C   UNL     1     -11.415  13.252  69.812  1.00  0.00    -0.228 A  
HETATM   15  C   UNL     1     -12.266  12.288  70.345  1.00  0.00    -0.288 A  
HETATM   16  F   UNL     1     -12.890  12.534  71.508  1.00  0.00    -0.442 F  
HETATM   17  C   UNL     1     -12.421  11.045  69.730  1.00  0.00    -0.183 A  
HETATM   18  C   UNL     1     -10.919  11.761  67.972  1.00  0.00    -0.274 A  
HETATM   19  C   UNL     1     -11.759  10.789  68.527  1.00  0.00    -0.259 A  
BRANCH  17  20
HETATM   20  N   UNL     1     -13.232  10.066  70.347  1.00  0.00    -0.577 N  
HETATM   21  H   UNL     1     -14.140   9.831  69.945  1.00  0.00     0.000 HD 
BRANCH  20  22
HETATM   22  C   UNL     1     -12.799   9.422  71.499  1.00  0.00    -0.362 C  
HETATM   23  O   UNL     1     -13.496   9.213  72.489  1.00  0.00    -0.464 OA 
BRANCH  22  24
HETATM   24  N   UNL     1     -11.472   9.054  71.388  1.00  0.00    -0.302 N  
HETATM   25  H   UNL     1     -10.748   9.719  71.659  1.00  0.00     0.000 HD 
BRANCH  24  26
HETATM   26  C   UNL     1     -11.093   7.784  70.911  1.00  0.00    -0.259 A  
HETATM   27  C   UNL     1     -10.860   6.770  71.834  1.00  0.00    -0.261 A  
HETATM   28  C   UNL     1     -10.480   5.504  71.389  1.00  0.00    -0.305 A  
HETATM   29  C   UNL     1     -10.260   5.257  70.028  1.00  0.00    -0.288 A  
HETATM   30 CL   UNL     1      -9.769   3.655  69.619  1.00  0.00    -0.219 Cl 
HETATM   31  C   UNL     1     -10.438   6.278  69.087  1.00  0.00    -0.291 A  
HETATM   32  C   UNL     1     -10.894   7.538  69.546  1.00  0.00    -0.184 A  
HETATM   33  C   UNL     1     -10.135   6.137  67.616  1.00  0.00    -0.155 C  
HETATM   34  F   UNL     1     -11.234   6.344  66.838  1.00  0.00    -0.422 F  
HETATM   35  F   UNL     1      -9.218   7.065  67.205  1.00  0.00    -0.126 F  
HETATM   36  F   UNL     1      -9.625   4.942  67.215  1.00  0.00    -0.130 F  
ENDBRANCH  24  26
ENDBRANCH  22  24
ENDBRANCH  20  22
ENDBRANCH  17  20
ENDBRANCH  12  13
ENDBRANCH   8  12
ENDBRANCH   3   6
TORSDOF 7
ENDMDL
MODEL      213
REMARK 921   NORMALIZED FREE ENERGY PREDICTED BY IDOCK:   -4.90 KCAL/MOL
REMARK 922        TOTAL FREE ENERGY PREDICTED BY IDOCK:   -8.89 KCAL/MOL
REMARK 923 INTER-LIGAND FREE ENERGY PREDICTED BY IDOCK:   -8.35 KCAL/MOL
REMARK 924 INTRA-LIGAND FREE ENERGY PREDICTED BY IDOCK:   -0.54 KCAL/MOL
REMARK 927      BINDING AFFINITY PREDICTED BY RF-SCORE:    0.00 PKD
ROOT
HETATM    1  C   UNL     1      -6.621   5.308  67.291  1.00  0.00    -0.053 C  
HETATM    2  N   UNL     1      -7.329   5.057  68.515  1.00  0.00    -0.062 N  
HETATM    3  C   UNL     1      -7.432   3.783  69.031  1.00  0.00    -0.053 C  
HETATM    4  H   UNL     1      -7.763   5.835  69.012  1.00  0.00     0.000 HD 
HETATM    5  O   UNL     1      -6.898   2.801  68.526  1.00  0.00    -0.045 OA 
ENDROOT
BRANCH   3   6
HETATM    6  C   UNL     1      -8.262   3.663  70.272  1.00  0.00    -0.056 A  
HETATM    7  C   UNL     1      -9.304   4.559  70.463  1.00  0.00    -0.218 A  
HETATM    8  C   UNL     1     -10.091   4.409  71.599  1.00  0.00    -0.160 A  
HETATM    9  C   UNL     1      -9.775   3.421  72.526  1.00  0.00    -0.207 A  
HETATM   10  N   UNL     1      -7.939   2.671  71.147  1.00  0.00    -0.049 NA 
HETATM   11  C   UNL     1      -8.704   2.583  72.257  1.00  0.00    -0.066 A  
BRANCH   8  12
HETATM   12  O   UNL     1     -11.139   5.243  71.913  1.00  0.00    -0.163 OA 
BRANCH  12  13
HETATM   13  C   UNL     1     -11.076   6.576  71.567  1.00  0.00    -0.265 A  
HETATM   14  C   UNL     1     -11.016   6.857  70.201  1.00  0.00    -0.322 A  
HETATM   15  C   UNL     1     -10.895   8.177  69.776  1.00  0.00    -0.190 A  
HETATM   16  F   UNL     1     -10.824   8.440  68.462  1.00  0.00    -0.204 F  
HETATM   17  C   UNL     1     -10.774   9.221  70.695  1.00  0.00    -0.269 A  
HETATM   18  C   UNL     1     -10.980   7.618  72.497  1.00  0.00    -0.377 A  
HETATM   19  C   UNL     1     -10.837   8.940  72.062  1.00  0.00    -0.404 A  
BRANCH  17  20
HETATM   20  N   UNL     1     -10.574  10.538  70.222  1.00  0.00    -0.445 N  
HETATM   21  H   UNL     1      -9.639  10.843  69.952  1.00  0.00     0.000 HD 
BRANCH  20  22
HETATM   22  C   UNL     1     -11.644  11.417  70.122  1.00  0.00    -0.280 C  
HETATM   23  O   UNL     1     -12.755  11.227  70.612  1.00  0.00    -0.291 OA 
BRANCH  22  24
HETATM   24  N   UNL     1     -11.297  12.534  69.387  1.00  0.00    -0.405 N  
HETATM   25  H   UNL     1     -10.991  13.375  69.876  1.00  0.00     0.000 HD 
BRANCH  24  26
HETATM   26  C   UNL     1     -11.355  12.542  67.980  1.00  0.00    -0.289 A  
HETATM   27  C   UNL     1     -12.268  13.387  67.357  1.00  0.00    -0.262 A  
HETATM   28  C   UNL     1     -12.350  13.412  65.966  1.00  0.00    -0.471 A  
HETATM   29  C   UNL     1     -11.574  12.546  65.185  1.00  0.00    -0.353 A  
HETATM   30 CL   UNL     1     -11.793  12.664  63.478  1.00  0.00    -0.585 Cl 
HETATM   31  C   UNL     1     -10.687  11.650  65.793  1.00  0.00    -0.331 A  
HETATM   32  C   UNL     1     -10.562  11.688  67.203  1.00  0.00    -0.269 A  
HETATM   33  C   UNL     1      -9.882  10.615  65.046  1.00  0.00    -0.293 C  
HETATM   34  F   UNL     1      -8.541  10.785  65.210  1.00  0.00    -0.175 F  
HETATM   35  F   UNL     1     -10.148   9.354  65.502  1.00  0.00    -0.381 F  
HETATM   36  F   UNL     1     -10.079  10.550  63.703  1.00  0.00    -0.358 F  
ENDBRANCH  24  26
ENDBRANCH  22  24
ENDBRANCH  20  22
ENDBRANCH  17  20
ENDBRANCH  12  13
ENDBRANCH   8  12
ENDBRANCH   3   6
TORSDOF 7
ENDMDL
MODEL      214
REMARK 921   NORMALIZED FREE ENERGY PREDICTED BY IDOCK:   -4.84 KCAL/MOL
REMARK 922        TOTAL FREE ENERGY PREDICTED BY IDOCK:   -8.81 KCAL/MOL
REMARK 923 INTER-LIGAND FREE ENERGY PREDICTED BY IDOCK:   -8.48 KCAL/MOL
REMARK 924 INTRA-LIGAND FREE ENERGY PREDICTED BY IDOCK:   -0.33 KCAL/MOL
REMARK 927      BINDING AFFINITY PREDICTED BY RF-SCORE:    0.00 PKD
ROOT
HETATM    1  C   UNL     1     -10.449   5.426  68.448  1.00  0.00    -0.121 C  
HETATM    2  N   UNL     1     -11.352   6.331  69.104  1.00  0.00    -0.533 N  
HETATM    3  C   UNL     1     -10.960   7.051  70.212  1.00  0.00    -0.271 C  
HETATM    4  H   UNL     1     -12.300   6.443  68.745  1.00  0.00     0.000 HD 
HETATM    5  O   UNL     1      -9.826   7.016  70.678  1.00  0.00    -0.182 OA 
ENDROOT
BRANCH   3   6
HETATM    6  C   UNL     1     -12.029   7.896  70.834  1.00  0.00    -0.196 A  
HETATM    7  C   UNL     1     -11.817   9.263  70.944  1.00  0.00    -0.346 A  
HETATM    8  C   UNL     1     -12.835  10.038  71.485  1.00  0.00    -0.432 A  
HETATM    9  C   UNL     1     -13.992   9.422  71.952  1.00  0.00    -0.302 A  
HETATM   10  N   UNL     1     -13.157   7.262  71.260  1.00  0.00    -0.355 NA 
HETATM   11  C   UNL     1     -14.107   8.047  71.815  1.00  0.00    -0.434 A  
BRANCH   8  12
HETATM   12  O   UNL     1     -12.741  11.398  71.666  1.00  0.00    -0.375 OA 
BRANCH  12  13
HETATM   13  C   UNL     1     -12.446  12.209  70.590  1.00  0.00    -0.242 A  
HETATM   14  C   UNL     1     -12.270  11.566  69.363  1.00  0.00    -0.273 A  
HETATM   15  C   UNL     1     -11.917  12.312  68.242  1.00  0.00    -0.200 A  
HETATM   16  F   UNL     1     -11.736  11.687  67.068  1.00  0.00    -0.368 F  
HETATM   17  C   UNL     1     -11.678  13.684  68.336  1.00  0.00    -0.358 A  
HETATM   18  C   UNL     1     -12.232  13.589  70.690  1.00  0.00    -0.434 A  
HETATM   19  C   UNL     1     -11.856  14.328  69.563  1.00  0.00    -0.378 A  
BRANCH  17  20
HETATM   20  N   UNL     1     -11.244  14.389  67.190  1.00  0.00    -0.316 N  
HETATM   21  H   UNL     1     -11.926  14.708  66.502  1.00  0.00     0.000 HD 
BRANCH  20  22
HETATM   22  C   UNL     1      -9.894  14.650  66.998  1.00  0.00    -0.244 C  
HETATM   23  O   UNL     1      -9.441  15.410  66.145  1.00  0.00    -0.286 OA 
BRANCH  22  24
HETATM   24  N   UNL     1      -9.121  13.931  67.890  1.00  0.00    -0.186 N  
HETATM   25  H   UNL     1      -9.077  14.231  68.864  1.00  0.00     0.000 HD 
BRANCH  24  26
HETATM   26  C   UNL     1      -8.393  12.794  67.490  1.00  0.00    -0.179 A  
HETATM   27  C   UNL     1      -7.026  12.926  67.264  1.00  0.00    -0.067 A  
HETATM   28  C   UNL     1      -6.282  11.818  66.863  1.00  0.00    -0.134 A  
HETATM   29  C   UNL     1      -6.903  10.586  66.615  1.00  0.00    -0.108 A  
HETATM   30 CL   UNL     1      -5.867   9.307  66.100  1.00  0.00    -0.056 Cl 
HETATM   31  C   UNL     1      -8.285  10.446  66.785  1.00  0.00    -0.126 A  
HETATM   32  C   UNL     1      -9.016  11.560  67.263  1.00  0.00    -0.162 A  
HETATM   33  C   UNL     1      -9.056   9.192  66.453  1.00  0.00    -0.170 C  
HETATM   34  F   UNL     1      -9.693   8.673  67.539  1.00  0.00    -0.163 F  
HETATM   35  F   UNL     1     -10.042   9.442  65.538  1.00  0.00    -0.381 F  
HETATM   36  F   UNL     1      -8.341   8.164  65.924  1.00  0.00    -0.104 F  
ENDBRANCH  24  26
ENDBRANCH  22  24
ENDBRANCH  20  22
ENDBRANCH  17  20
ENDBRANCH  12  13
ENDBRANCH   8  12
ENDBRANCH   3   6
TORSDOF 7
ENDMDL
MODEL      215
REMARK 921   NORMALIZED FREE ENERGY PREDICTED BY IDOCK:   -4.83 KCAL/MOL
REMARK 922        TOTAL FREE ENERGY PREDICTED BY IDOCK:   -8.80 KCAL/MOL
REMARK 923 INTER-LIGAND FREE ENERGY PREDICTED BY IDOCK:   -8.21 KCAL/MOL
REMARK 924 INTRA-LIGAND FREE ENERGY PREDICTED BY IDOCK:   -0.59 KCAL/MOL
REMARK 927      BINDING AFFINITY PREDICTED BY RF-SCORE:    0.00 PKD
ROOT
HETATM    1  C   UNL     1     -12.855   7.513  71.611  1.00  0.00    -0.358 C  
HETATM    2  N   UNL     1     -11.913   6.992  70.659  1.00  0.00    -0.505 N  
HETATM    3  C   UNL     1     -10.824   6.252  71.066  1.00  0.00    -0.271 C  
HETATM    4  H   UNL     1     -12.053   7.172  69.665  1.00  0.00     0.000 HD 
HETATM    5  O   UNL     1     -10.610   5.945  72.234  1.00  0.00    -0.202 OA 
ENDROOT
BRANCH   3   6
HETATM    6  C   UNL     1      -9.889   5.839  69.972  1.00  0.00    -0.180 A  
HETATM    7  C   UNL     1     -10.109   6.326  68.691  1.00  0.00    -0.185 A  
HETATM    8  C   UNL     1      -9.210   5.968  67.695  1.00  0.00    -0.107 A  
HETATM    9  C   UNL     1      -8.169   5.094  67.993  1.00  0.00    -0.098 A  
HETATM   10  N   UNL     1      -8.868   5.001  70.304  1.00  0.00    -0.112 NA 
HETATM   11  C   UNL     1      -8.038   4.646  69.299  1.00  0.00    -0.069 A  
BRANCH   8  12
HETATM   12  O   UNL     1      -9.328   6.367  66.383  1.00  0.00    -0.159 OA 
BRANCH  12  13
HETATM   13  C   UNL     1      -9.452   7.708  66.089  1.00  0.00    -0.049 A  
HETATM   14  C   UNL     1      -8.509   8.236  65.206  1.00  0.00    -0.179 A  
HETATM   15  C   UNL     1      -8.537   9.594  64.902  1.00  0.00    -0.170 A  
HETATM   16  F   UNL     1      -7.619  10.099  64.064  1.00  0.00    -0.137 F  
HETATM   17  C   UNL     1      -9.457  10.449  65.513  1.00  0.00    -0.215 A  
HETATM   18  C   UNL     1     -10.394   8.553  66.688  1.00  0.00    -0.303 A  
HETATM   19  C   UNL     1     -10.402   9.921  66.395  1.00  0.00    -0.246 A  
BRANCH  17  20
HETATM   20  N   UNL     1      -9.399  11.835  65.237  1.00  0.00    -0.410 N  
HETATM   21  H   UNL     1      -8.726  12.422  65.729  1.00  0.00     0.000 HD 
BRANCH  20  22
HETATM   22  C   UNL     1     -10.255  12.399  64.301  1.00  0.00    -0.332 C  
HETATM   23  O   UNL     1     -10.072  12.383  63.086  1.00  0.00    -0.359 OA 
BRANCH  22  24
HETATM   24  N   UNL     1     -11.340  12.992  64.918  1.00  0.00    -0.295 N  
HETATM   25  H   UNL     1     -12.225  13.052  64.416  1.00  0.00     0.000 HD 
BRANCH  24  26
HETATM   26  C   UNL     1     -11.254  13.514  66.223  1.00  0.00    -0.297 A  
HETATM   27  C   UNL     1     -11.862  12.814  67.260  1.00  0.00    -0.414 A  
HETATM   28  C   UNL     1     -11.795  13.311  68.562  1.00  0.00    -0.384 A  
HETATM   29  C   UNL     1     -11.186  14.543  68.830  1.00  0.00    -0.261 A  
HETATM   30 CL   UNL     1     -11.197  15.050  70.479  1.00  0.00    -0.296 Cl 
HETATM   31  C   UNL     1     -10.614  15.289  67.793  1.00  0.00    -0.266 A  
HETATM   32  C   UNL     1     -10.625  14.737  66.489  1.00  0.00    -0.299 A  
HETATM   33  C   UNL     1     -10.022  16.666  67.966  1.00  0.00    -0.258 C  
HETATM   34  F   UNL     1      -8.703  16.709  67.626  1.00  0.00    -0.193 F  
HETATM   35  F   UNL     1     -10.637  17.578  67.154  1.00  0.00    -0.329 F  
HETATM   36  F   UNL     1     -10.094  17.203  69.212  1.00  0.00    -0.271 F  
ENDBRANCH  24  26
ENDBRANCH  22  24
ENDBRANCH  20  22
ENDBRANCH  17  20
ENDBRANCH  12  13
ENDBRANCH   8  12
ENDBRANCH   3   6
TORSDOF 7
ENDMDL
MODEL      216
REMARK 921   NORMALIZED FREE ENERGY PREDICTED BY IDOCK:   -4.82 KCAL/MOL
REMARK 922        TOTAL FREE ENERGY PREDICTED BY IDOCK:   -8.78 KCAL/MOL
REMARK 923 INTER-LIGAND FREE ENERGY PREDICTED BY IDOCK:   -7.78 KCAL/MOL
REMARK 924 INTRA-LIGAND FREE ENERGY PREDICTED BY IDOCK:   -1.00 KCAL/MOL
REMARK 927      BINDING AFFINITY PREDICTED BY RF-SCORE:    0.00 PKD
ROOT
HETATM    1  C   UNL     1     -10.819   7.527  73.002  1.00  0.00    -0.392 C  
HETATM    2  N   UNL     1     -10.790   8.032  71.657  1.00  0.00    -0.230 N  
HETATM    3  C   UNL     1     -10.622   7.186  70.581  1.00  0.00    -0.225 C  
HETATM    4  H   UNL     1     -10.895   9.033  71.495  1.00  0.00     0.000 HD 
HETATM    5  O   UNL     1     -10.539   5.967  70.683  1.00  0.00    -0.229 OA 
ENDROOT
BRANCH   3   6
HETATM    6  C   UNL     1     -10.537   7.862  69.247  1.00  0.00    -0.188 A  
HETATM    7  C   UNL     1     -10.709   9.238  69.187  1.00  0.00    -0.202 A  
HETATM    8  C   UNL     1     -10.586   9.855  67.949  1.00  0.00    -0.254 A  
HETATM    9  C   UNL     1     -10.361   9.080  66.815  1.00  0.00    -0.310 A  
HETATM   10  N   UNL     1     -10.293   7.076  68.163  1.00  0.00    -0.182 NA 
HETATM   11  C   UNL     1     -10.219   7.710  66.972  1.00  0.00    -0.300 A  
BRANCH   8  12
HETATM   12  O   UNL     1     -10.753  11.207  67.752  1.00  0.00    -0.196 OA 
BRANCH  12  13
HETATM   13  C   UNL     1      -9.648  12.030  67.709  1.00  0.00    -0.193 A  
HETATM   14  C   UNL     1      -8.513  11.575  68.383  1.00  0.00    -0.159 A  
HETATM   15  C   UNL     1      -7.375  12.375  68.430  1.00  0.00    -0.113 A  
HETATM   16  F   UNL     1      -6.292  11.939  69.091  1.00  0.00    -0.064 F  
HETATM   17  C   UNL     1      -7.369  13.652  67.864  1.00  0.00    -0.148 A  
HETATM   18  C   UNL     1      -9.644  13.299  67.118  1.00  0.00    -0.240 A  
HETATM   19  C   UNL     1      -8.504  14.106  67.188  1.00  0.00    -0.214 A  
BRANCH  17  20
HETATM   20  N   UNL     1      -6.220  14.463  68.004  1.00  0.00    -0.142 N  
HETATM   21  H   UNL     1      -5.485  14.428  67.298  1.00  0.00     0.000 HD 
BRANCH  20  22
HETATM   22  C   UNL     1      -6.088  15.309  69.097  1.00  0.00    -0.102 C  
HETATM   23  O   UNL     1      -6.270  14.976  70.266  1.00  0.00    -0.153 OA 
BRANCH  22  24
HETATM   24  N   UNL     1      -5.734  16.583  68.696  1.00  0.00    -0.116 N  
HETATM   25  H   UNL     1      -4.747  16.838  68.665  1.00  0.00     0.000 HD 
BRANCH  24  26
HETATM   26  C   UNL     1      -6.701  17.538  68.327  1.00  0.00    -0.197 A  
HETATM   27  C   UNL     1      -6.288  18.846  68.097  1.00  0.00    -0.231 A  
HETATM   28  C   UNL     1      -7.225  19.813  67.734  1.00  0.00    -0.311 A  
HETATM   29  C   UNL     1      -8.590  19.502  67.668  1.00  0.00    -0.314 A  
HETATM   30 CL   UNL     1      -9.641  20.799  67.233  1.00  0.00    -0.572 Cl 
HETATM   31  C   UNL     1      -9.033  18.205  67.948  1.00  0.00    -0.273 A  
HETATM   32  C   UNL     1      -8.062  17.217  68.243  1.00  0.00    -0.239 A  
HETATM   33  C   UNL     1     -10.485  17.797  67.997  1.00  0.00    -0.394 C  
HETATM   34  F   UNL     1     -10.780  16.825  67.090  1.00  0.00    -0.317 F  
HETATM   35  F   UNL     1     -10.813  17.269  69.215  1.00  0.00    -0.292 F  
HETATM   36  F   UNL     1     -11.397  18.782  67.786  1.00  0.00    -0.289 F  
ENDBRANCH  24  26
ENDBRANCH  22  24
ENDBRANCH  20  22
ENDBRANCH  17  20
ENDBRANCH  12  13
ENDBRANCH   8  12
ENDBRANCH   3   6
TORSDOF 7
ENDMDL
MODEL      217
REMARK 921   NORMALIZED FREE ENERGY PREDICTED BY IDOCK:   -4.82 KCAL/MOL
REMARK 922        TOTAL FREE ENERGY PREDICTED BY IDOCK:   -8.78 KCAL/MOL
REMARK 923 INTER-LIGAND FREE ENERGY PREDICTED BY IDOCK:   -7.36 KCAL/MOL
REMARK 924 INTRA-LIGAND FREE ENERGY PREDICTED BY IDOCK:   -1.42 KCAL/MOL
REMARK 927      BINDING AFFINITY PREDICTED BY RF-SCORE:    0.00 PKD
ROOT
HETATM    1  C   UNL     1      -6.000  16.793  68.193  1.00  0.00    -0.125 C  
HETATM    2  N   UNL     1      -7.311  16.343  68.574  1.00  0.00    -0.171 N  
HETATM    3  C   UNL     1      -8.343  16.298  67.662  1.00  0.00    -0.161 C  
HETATM    4  H   UNL     1      -7.480  16.050  69.536  1.00  0.00     0.000 HD 
HETATM    5  O   UNL     1      -8.213  16.582  66.476  1.00  0.00    -0.239 OA 
ENDROOT
BRANCH   3   6
HETATM    6  C   UNL     1      -9.668  15.880  68.219  1.00  0.00    -0.209 A  
HETATM    7  C   UNL     1     -10.246  14.708  67.752  1.00  0.00    -0.229 A  
HETATM    8  C   UNL     1     -11.455  14.312  68.308  1.00  0.00    -0.304 A  
HETATM    9  C   UNL     1     -12.072  15.121  69.257  1.00  0.00    -0.278 A  
HETATM   10  N   UNL     1     -10.232  16.684  69.162  1.00  0.00    -0.296 NA 
HETATM   11  C   UNL     1     -11.426  16.283  69.651  1.00  0.00    -0.213 A  
BRANCH   8  12
HETATM   12  O   UNL     1     -12.139  13.183  67.918  1.00  0.00    -0.321 OA 
BRANCH  12  13
HETATM   13  C   UNL     1     -11.511  11.957  67.965  1.00  0.00    -0.323 A  
HETATM   14  C   UNL     1     -11.102  11.520  69.226  1.00  0.00    -0.305 A  
HETATM   15  C   UNL     1     -10.413  10.317  69.347  1.00  0.00    -0.236 A  
HETATM   16  F   UNL     1     -10.010   9.909  70.560  1.00  0.00    -0.301 F  
HETATM   17  C   UNL     1     -10.072   9.567  68.219  1.00  0.00    -0.183 A  
HETATM   18  C   UNL     1     -11.195  11.200  66.830  1.00  0.00    -0.258 A  
HETATM   19  C   UNL     1     -10.483  10.002  66.957  1.00  0.00    -0.302 A  
BRANCH  17  20
HETATM   20  N   UNL     1      -9.302   8.392  68.379  1.00  0.00    -0.135 N  
HETATM   21  H   UNL     1      -8.458   8.412  68.952  1.00  0.00     0.000 HD 
BRANCH  20  22
HETATM   22  C   UNL     1      -9.690   7.212  67.759  1.00  0.00    -0.138 C  
HETATM   23  O   UNL     1      -9.168   6.748  66.748  1.00  0.00    -0.140 OA 
BRANCH  22  24
HETATM   24  N   UNL     1     -10.751   6.630  68.426  1.00  0.00    -0.240 N  
HETATM   25  H   UNL     1     -11.636   6.504  67.937  1.00  0.00     0.000 HD 
BRANCH  24  26
HETATM   26  C   UNL     1     -10.641   6.206  69.765  1.00  0.00    -0.280 A  
HETATM   27  C   UNL     1     -11.473   6.787  70.716  1.00  0.00    -0.392 A  
HETATM   28  C   UNL     1     -11.383   6.389  72.049  1.00  0.00    -0.338 A  
HETATM   29  C   UNL     1     -10.415   5.462  72.458  1.00  0.00    -0.214 A  
HETATM   30 CL   UNL     1     -10.397   5.079  74.140  1.00  0.00    -0.277 Cl 
HETATM   31  C   UNL     1      -9.532   4.905  71.526  1.00  0.00    -0.208 A  
HETATM   32  C   UNL     1      -9.685   5.264  70.165  1.00  0.00    -0.262 A  
HETATM   33  C   UNL     1      -8.399   3.975  71.883  1.00  0.00    -0.095 C  
HETATM   34  F   UNL     1      -8.516   2.760  71.278  1.00  0.00    -0.063 F  
HETATM   35  F   UNL     1      -7.196   4.474  71.467  1.00  0.00    -0.050 F  
HETATM   36  F   UNL     1      -8.229   3.709  73.205  1.00  0.00    -0.075 F  
ENDBRANCH  24  26
ENDBRANCH  22  24
ENDBRANCH  20  22
ENDBRANCH  17  20
ENDBRANCH  12  13
ENDBRANCH   8  12
ENDBRANCH   3   6
TORSDOF 7
ENDMDL
MODEL      218
REMARK 921   NORMALIZED FREE ENERGY PREDICTED BY IDOCK:   -4.82 KCAL/MOL
REMARK 922        TOTAL FREE ENERGY PREDICTED BY IDOCK:   -8.78 KCAL/MOL
REMARK 923 INTER-LIGAND FREE ENERGY PREDICTED BY IDOCK:   -8.62 KCAL/MOL
REMARK 924 INTRA-LIGAND FREE ENERGY PREDICTED BY IDOCK:   -0.15 KCAL/MOL
REMARK 927      BINDING AFFINITY PREDICTED BY RF-SCORE:    0.00 PKD
ROOT
HETATM    1  C   UNL     1      -8.780   8.122  65.588  1.00  0.00    -0.145 C  
HETATM    2  N   UNL     1      -9.688   9.233  65.510  1.00  0.00    -0.448 N  
HETATM    3  C   UNL     1      -9.623  10.135  64.469  1.00  0.00    -0.311 C  
HETATM    4  H   UNL     1     -10.393   9.357  66.237  1.00  0.00     0.000 HD 
HETATM    5  O   UNL     1      -8.842  10.032  63.529  1.00  0.00    -0.194 OA 
ENDROOT
BRANCH   3   6
HETATM    6  C   UNL     1     -10.582  11.282  64.560  1.00  0.00    -0.336 A  
HETATM    7  C   UNL     1     -10.626  12.021  65.734  1.00  0.00    -0.301 A  
HETATM    8  C   UNL     1     -11.491  13.106  65.787  1.00  0.00    -0.325 A  
HETATM    9  C   UNL     1     -12.319  13.377  64.703  1.00  0.00    -0.433 A  
HETATM   10  N   UNL     1     -11.362  11.532  63.472  1.00  0.00    -0.369 NA 
HETATM   11  C   UNL     1     -12.216  12.573  63.578  1.00  0.00    -0.558 A  
BRANCH   8  12
HETATM   12  O   UNL     1     -11.642  13.904  66.898  1.00  0.00    -0.339 OA 
BRANCH  12  13
HETATM   13  C   UNL     1     -10.533  14.262  67.635  1.00  0.00    -0.248 A  
HETATM   14  C   UNL     1      -9.346  13.595  67.327  1.00  0.00    -0.233 A  
HETATM   15  C   UNL     1      -8.196  13.863  68.064  1.00  0.00    -0.161 A  
HETATM   16  F   UNL     1      -7.062  13.209  67.773  1.00  0.00    -0.090 F  
HETATM   17  C   UNL     1      -8.225  14.746  69.146  1.00  0.00    -0.106 A  
HETATM   18  C   UNL     1     -10.566  15.167  68.702  1.00  0.00    -0.234 A  
HETATM   19  C   UNL     1      -9.412  15.415  69.453  1.00  0.00    -0.267 A  
BRANCH  17  20
HETATM   20  N   UNL     1      -7.055  14.929  69.918  1.00  0.00    -0.273 N  
HETATM   21  H   UNL     1      -6.862  14.308  70.704  1.00  0.00     0.000 HD 
BRANCH  20  22
HETATM   22  C   UNL     1      -6.166  15.951  69.611  1.00  0.00    -0.177 C  
HETATM   23  O   UNL     1      -5.692  16.736  70.428  1.00  0.00    -0.202 OA 
BRANCH  22  24
HETATM   24  N   UNL     1      -5.892  15.976  68.256  1.00  0.00    -0.105 N  
HETATM   25  H   UNL     1      -5.468  15.157  67.821  1.00  0.00     0.000 HD 
BRANCH  24  26
HETATM   26  C   UNL     1      -6.183  17.102  67.463  1.00  0.00    -0.145 A  
HETATM   27  C   UNL     1      -5.130  17.771  66.847  1.00  0.00    -0.160 A  
HETATM   28  C   UNL     1      -5.390  18.891  66.059  1.00  0.00    -0.180 A  
HETATM   29  C   UNL     1      -6.691  19.396  65.934  1.00  0.00    -0.246 A  
HETATM   30 CL   UNL     1      -6.866  20.802  64.950  1.00  0.00    -0.173 Cl 
HETATM   31  C   UNL     1      -7.757  18.770  66.588  1.00  0.00    -0.262 A  
HETATM   32  C   UNL     1      -7.489  17.591  67.325  1.00  0.00    -0.214 A  
HETATM   33  C   UNL     1      -9.173  19.292  66.593  1.00  0.00    -0.338 C  
HETATM   34  F   UNL     1     -10.053  18.406  66.048  1.00  0.00    -0.343 F  
HETATM   35  F   UNL     1      -9.619  19.510  67.867  1.00  0.00    -0.354 F  
HETATM   36  F   UNL     1      -9.387  20.465  65.942  1.00  0.00    -0.355 F  
ENDBRANCH  24  26
ENDBRANCH  22  24
ENDBRANCH  20  22
ENDBRANCH  17  20
ENDBRANCH  12  13
ENDBRANCH   8  12
ENDBRANCH   3   6
TORSDOF 7
ENDMDL
MODEL      219
REMARK 921   NORMALIZED FREE ENERGY PREDICTED BY IDOCK:   -4.82 KCAL/MOL
REMARK 922        TOTAL FREE ENERGY PREDICTED BY IDOCK:   -8.77 KCAL/MOL
REMARK 923 INTER-LIGAND FREE ENERGY PREDICTED BY IDOCK:   -7.34 KCAL/MOL
REMARK 924 INTRA-LIGAND FREE ENERGY PREDICTED BY IDOCK:   -1.43 KCAL/MOL
REMARK 927      BINDING AFFINITY PREDICTED BY RF-SCORE:    0.00 PKD
ROOT
HETATM    1  C   UNL     1     -10.146  14.661  66.014  1.00  0.00    -0.311 C  
HETATM    2  N   UNL     1      -9.699  13.528  65.252  1.00  0.00    -0.541 N  
HETATM    3  C   UNL     1     -10.489  12.408  65.110  1.00  0.00    -0.292 C  
HETATM    4  H   UNL     1      -8.781  13.553  64.808  1.00  0.00     0.000 HD 
HETATM    5  O   UNL     1     -11.624  12.315  65.567  1.00  0.00    -0.354 OA 
ENDROOT
BRANCH   3   6
HETATM    6  C   UNL     1      -9.862  11.278  64.353  1.00  0.00    -0.269 A  
HETATM    7  C   UNL     1      -9.089  10.359  65.049  1.00  0.00    -0.237 A  
HETATM    8  C   UNL     1      -8.548   9.294  64.339  1.00  0.00    -0.195 A  
HETATM    9  C   UNL     1      -8.743   9.217  62.964  1.00  0.00    -0.203 A  
HETATM   10  N   UNL     1     -10.091  11.221  63.012  1.00  0.00    -0.314 NA 
HETATM   11  C   UNL     1      -9.517  10.192  62.352  1.00  0.00    -0.210 A  
BRANCH   8  12
HETATM   12  O   UNL     1      -7.749   8.329  64.907  1.00  0.00    -0.101 OA 
BRANCH  12  13
HETATM   13  C   UNL     1      -8.228   7.586  65.965  1.00  0.00    -0.130 A  
HETATM   14  C   UNL     1      -9.617   7.506  66.085  1.00  0.00    -0.056 A  
HETATM   15  C   UNL     1     -10.175   6.818  67.158  1.00  0.00    -0.225 A  
HETATM   16  F   UNL     1     -11.510   6.757  67.277  1.00  0.00    -0.403 F  
HETATM   17  C   UNL     1      -9.369   6.255  68.150  1.00  0.00    -0.115 A  
HETATM   18  C   UNL     1      -7.410   7.004  66.941  1.00  0.00    -0.078 A  
HETATM   19  C   UNL     1      -7.980   6.333  68.029  1.00  0.00    -0.108 A  
BRANCH  17  20
HETATM   20  N   UNL     1      -9.978   5.635  69.265  1.00  0.00    -0.172 N  
HETATM   21  H   UNL     1      -9.889   4.627  69.397  1.00  0.00     0.000 HD 
BRANCH  20  22
HETATM   22  C   UNL     1     -10.697   6.390  70.181  1.00  0.00    -0.271 C  
HETATM   23  O   UNL     1     -11.899   6.265  70.402  1.00  0.00    -0.329 OA 
BRANCH  22  24
HETATM   24  N   UNL     1      -9.881   7.314  70.807  1.00  0.00    -0.179 N  
HETATM   25  H   UNL     1      -9.468   7.080  71.709  1.00  0.00     0.000 HD 
BRANCH  24  26
HETATM   26  C   UNL     1      -9.606   8.569  70.231  1.00  0.00    -0.167 A  
HETATM   27  C   UNL     1      -8.279   8.924  70.016  1.00  0.00    -0.122 A  
HETATM   28  C   UNL     1      -7.978  10.162  69.450  1.00  0.00    -0.155 A  
HETATM   29  C   UNL     1      -8.991  11.085  69.160  1.00  0.00     0.015 A  
HETATM   30 CL   UNL     1      -8.476  12.588  68.488  1.00  0.00    -0.112 Cl 
HETATM   31  C   UNL     1     -10.330  10.769  69.419  1.00  0.00    -0.207 A  
HETATM   32  C   UNL     1     -10.625   9.480  69.925  1.00  0.00    -0.269 A  
HETATM   33  C   UNL     1     -11.479  11.729  69.231  1.00  0.00    -0.306 C  
HETATM   34  F   UNL     1     -12.394  11.271  68.333  1.00  0.00    -0.300 F  
HETATM   35  F   UNL     1     -12.172  11.909  70.397  1.00  0.00    -0.377 F  
HETATM   36  F   UNL     1     -11.158  12.983  68.818  1.00  0.00    -0.247 F  
ENDBRANCH  24  26
ENDBRANCH  22  24
ENDBRANCH  20  22
ENDBRANCH  17  20
ENDBRANCH  12  13
ENDBRANCH   8  12
ENDBRANCH   3   6
TORSDOF 7
ENDMDL
MODEL      220
REMARK 921   NORMALIZED FREE ENERGY PREDICTED BY IDOCK:   -4.81 KCAL/MOL
REMARK 922        TOTAL FREE ENERGY PREDICTED BY IDOCK:   -8.77 KCAL/MOL
REMARK 923 INTER-LIGAND FREE ENERGY PREDICTED BY IDOCK:   -7.92 KCAL/MOL
REMARK 924 INTRA-LIGAND FREE ENERGY PREDICTED BY IDOCK:   -0.85 KCAL/MOL
REMARK 927      BINDING AFFINITY PREDICTED BY RF-SCORE:    0.00 PKD
ROOT
HETATM    1  C   UNL     1      -7.969   4.483  62.589  1.00  0.00    -0.069 C  
HETATM    2  N   UNL     1      -8.446   5.289  63.678  1.00  0.00    -0.219 N  
HETATM    3  C   UNL     1      -8.842   4.717  64.869  1.00  0.00    -0.153 C  
HETATM    4  H   UNL     1      -8.494   6.302  63.569  1.00  0.00     0.000 HD 
HETATM    5  O   UNL     1      -8.769   3.515  65.101  1.00  0.00    -0.112 OA 
ENDROOT
BRANCH   3   6
HETATM    6  C   UNL     1      -9.386   5.673  65.884  1.00  0.00    -0.103 A  
HETATM    7  C   UNL     1      -8.896   6.972  65.905  1.00  0.00    -0.126 A  
HETATM    8  C   UNL     1      -9.440   7.858  66.826  1.00  0.00    -0.201 A  
HETATM    9  C   UNL     1     -10.400   7.407  67.727  1.00  0.00    -0.273 A  
HETATM   10  N   UNL     1     -10.340   5.205  66.736  1.00  0.00    -0.253 NA 
HETATM   11  C   UNL     1     -10.816   6.087  67.641  1.00  0.00    -0.295 A  
BRANCH   8  12
HETATM   12  O   UNL     1      -9.028   9.163  66.961  1.00  0.00    -0.121 OA 
BRANCH  12  13
HETATM   13  C   UNL     1      -9.679  10.158  66.263  1.00  0.00    -0.218 A  
HETATM   14  C   UNL     1     -10.751  10.770  66.915  1.00  0.00    -0.309 A  
HETATM   15  C   UNL     1     -11.491  11.745  66.254  1.00  0.00    -0.227 A  
HETATM   16  F   UNL     1     -12.530  12.319  66.881  1.00  0.00    -0.128 F  
HETATM   17  C   UNL     1     -11.216  12.081  64.927  1.00  0.00    -0.320 A  
HETATM   18  C   UNL     1      -9.379  10.506  64.940  1.00  0.00    -0.278 A  
HETATM   19  C   UNL     1     -10.142  11.471  64.275  1.00  0.00    -0.338 A  
BRANCH  17  20
HETATM   20  N   UNL     1     -12.042  13.019  64.267  1.00  0.00    -0.392 N  
HETATM   21  H   UNL     1     -12.434  12.796  63.352  1.00  0.00     0.000 HD 
BRANCH  20  22
HETATM   22  C   UNL     1     -12.323  14.244  64.858  1.00  0.00    -0.425 C  
HETATM   23  O   UNL     1     -13.372  14.519  65.435  1.00  0.00    -0.458 OA 
BRANCH  22  24
HETATM   24  N   UNL     1     -11.266  15.120  64.703  1.00  0.00    -0.606 N  
HETATM   25  H   UNL     1     -11.115  15.561  63.796  1.00  0.00     0.000 HD 
BRANCH  24  26
HETATM   26  C   UNL     1     -10.390  15.419  65.765  1.00  0.00    -0.361 A  
HETATM   27  C   UNL     1     -10.104  16.754  66.034  1.00  0.00    -0.350 A  
HETATM   28  C   UNL     1      -9.238  17.078  67.078  1.00  0.00    -0.247 A  
HETATM   29  C   UNL     1      -8.595  16.076  67.815  1.00  0.00    -0.163 A  
HETATM   30 CL   UNL     1      -7.530  16.618  69.059  1.00  0.00    -0.233 Cl 
HETATM   31  C   UNL     1      -8.828  14.727  67.526  1.00  0.00    -0.197 A  
HETATM   32  C   UNL     1      -9.766  14.413  66.513  1.00  0.00    -0.305 A  
HETATM   33  C   UNL     1      -8.113  13.580  68.198  1.00  0.00    -0.154 C  
HETATM   34  F   UNL     1      -8.970  12.746  68.849  1.00  0.00    -0.041 F  
HETATM   35  F   UNL     1      -7.464  12.795  67.286  1.00  0.00    -0.135 F  
HETATM   36  F   UNL     1      -7.163  13.912  69.112  1.00  0.00    -0.108 F  
ENDBRANCH  24  26
ENDBRANCH  22  24
ENDBRANCH  20  22
ENDBRANCH  17  20
ENDBRANCH  12  13
ENDBRANCH   8  12
ENDBRANCH   3   6
TORSDOF 7
ENDMDL
MODEL      221
REMARK 921   NORMALIZED FREE ENERGY PREDICTED BY IDOCK:   -4.80 KCAL/MOL
REMARK 922        TOTAL FREE ENERGY PREDICTED BY IDOCK:   -8.75 KCAL/MOL
REMARK 923 INTER-LIGAND FREE ENERGY PREDICTED BY IDOCK:   -7.39 KCAL/MOL
REMARK 924 INTRA-LIGAND FREE ENERGY PREDICTED BY IDOCK:   -1.36 KCAL/MOL
REMARK 927      BINDING AFFINITY PREDICTED BY RF-SCORE:    0.00 PKD
ROOT
HETATM    1  C   UNL     1     -10.147  20.338  69.046  1.00  0.00    -0.005 C  
HETATM    2  N   UNL     1      -9.957  18.998  68.565  1.00  0.00    -0.402 N  
HETATM    3  C   UNL     1      -9.481  18.756  67.294  1.00  0.00    -0.301 C  
HETATM    4  H   UNL     1     -10.178  18.210  69.175  1.00  0.00     0.000 HD 
HETATM    5  O   UNL     1      -9.143  19.643  66.517  1.00  0.00    -0.337 OA 
ENDROOT
BRANCH   3   6
HETATM    6  C   UNL     1      -9.406  17.312  66.906  1.00  0.00    -0.255 A  
HETATM    7  C   UNL     1     -10.586  16.590  66.800  1.00  0.00    -0.224 A  
HETATM    8  C   UNL     1     -10.503  15.263  66.399  1.00  0.00    -0.303 A  
HETATM    9  C   UNL     1      -9.254  14.689  66.181  1.00  0.00    -0.210 A  
HETATM   10  N   UNL     1      -8.169  16.790  66.678  1.00  0.00    -0.232 NA 
HETATM   11  C   UNL     1      -8.129  15.486  66.327  1.00  0.00     0.293 A  
BRANCH   8  12
HETATM   12  O   UNL     1     -11.595  14.435  66.276  1.00  0.00    -0.354 OA 
BRANCH  12  13
HETATM   13  C   UNL     1     -11.631  13.248  66.975  1.00  0.00    -0.359 A  
HETATM   14  C   UNL     1     -11.850  13.347  68.351  1.00  0.00    -0.401 A  
HETATM   15  C   UNL     1     -11.845  12.196  69.132  1.00  0.00    -0.305 A  
HETATM   16  F   UNL     1     -12.041  12.299  70.456  1.00  0.00    -0.407 F  
HETATM   17  C   UNL     1     -11.568  10.947  68.573  1.00  0.00    -0.290 A  
HETATM   18  C   UNL     1     -11.376  11.997  66.400  1.00  0.00    -0.411 A  
HETATM   19  C   UNL     1     -11.352  10.846  67.196  1.00  0.00    -0.168 A  
BRANCH  17  20
HETATM   20  N   UNL     1     -11.494   9.814  69.415  1.00  0.00    -0.446 N  
HETATM   21  H   UNL     1     -12.348   9.325  69.683  1.00  0.00     0.000 HD 
BRANCH  20  22
HETATM   22  C   UNL     1     -10.265   9.364  69.878  1.00  0.00    -0.222 C  
HETATM   23  O   UNL     1      -9.354  10.091  70.265  1.00  0.00    -0.162 OA 
BRANCH  22  24
HETATM   24  N   UNL     1     -10.197   7.984  69.835  1.00  0.00    -0.199 N  
HETATM   25  H   UNL     1     -10.381   7.452  70.686  1.00  0.00     0.000 HD 
BRANCH  24  26
HETATM   26  C   UNL     1      -9.881   7.295  68.649  1.00  0.00    -0.161 A  
HETATM   27  C   UNL     1     -10.117   5.925  68.594  1.00  0.00    -0.213 A  
HETATM   28  C   UNL     1      -9.810   5.217  67.433  1.00  0.00    -0.183 A  
HETATM   29  C   UNL     1      -9.200   5.853  66.344  1.00  0.00    -0.150 A  
HETATM   30 CL   UNL     1      -8.851   4.853  64.982  1.00  0.00    -0.152 Cl 
HETATM   31  C   UNL     1      -8.905   7.220  66.399  1.00  0.00    -0.167 A  
HETATM   32  C   UNL     1      -9.290   7.940  67.556  1.00  0.00    -0.166 A  
HETATM   33  C   UNL     1      -8.165   7.971  65.320  1.00  0.00    -0.146 C  
HETATM   34  F   UNL     1      -8.907   8.985  64.793  1.00  0.00    -0.192 F  
HETATM   35  F   UNL     1      -7.035   8.565  65.811  1.00  0.00    -0.067 F  
HETATM   36  F   UNL     1      -7.740   7.240  64.256  1.00  0.00    -0.095 F  
ENDBRANCH  24  26
ENDBRANCH  22  24
ENDBRANCH  20  22
ENDBRANCH  17  20
ENDBRANCH  12  13
ENDBRANCH   8  12
ENDBRANCH   3   6
TORSDOF 7
ENDMDL
MODEL      222
REMARK 921   NORMALIZED FREE ENERGY PREDICTED BY IDOCK:   -4.79 KCAL/MOL
REMARK 922        TOTAL FREE ENERGY PREDICTED BY IDOCK:   -8.73 KCAL/MOL
REMARK 923 INTER-LIGAND FREE ENERGY PREDICTED BY IDOCK:   -7.61 KCAL/MOL
REMARK 924 INTRA-LIGAND FREE ENERGY PREDICTED BY IDOCK:   -1.12 KCAL/MOL
REMARK 927      BINDING AFFINITY PREDICTED BY RF-SCORE:    0.00 PKD
ROOT
HETATM    1  C   UNL     1      -7.017   8.186  72.257  1.00  0.00    -0.089 C  
HETATM    2  N   UNL     1      -7.951   8.080  71.171  1.00  0.00    -0.089 N  
HETATM    3  C   UNL     1      -8.235   6.863  70.590  1.00  0.00    -0.120 C  
HETATM    4  H   UNL     1      -8.414   8.921  70.823  1.00  0.00     0.000 HD 
HETATM    5  O   UNL     1      -7.764   5.799  70.979  1.00  0.00    -0.096 OA 
ENDROOT
BRANCH   3   6
HETATM    6  C   UNL     1      -9.169   6.917  69.421  1.00  0.00    -0.147 A  
HETATM    7  C   UNL     1      -9.109   8.013  68.572  1.00  0.00    -0.136 A  
HETATM    8  C   UNL     1      -9.953   8.029  67.469  1.00  0.00    -0.194 A  
HETATM    9  C   UNL     1     -10.864   6.993  67.287  1.00  0.00    -0.403 A  
HETATM   10  N   UNL     1     -10.032   5.875  69.261  1.00  0.00    -0.162 NA 
HETATM   11  C   UNL     1     -10.862   5.947  68.198  1.00  0.00    -0.236 A  
BRANCH   8  12
HETATM   12  O   UNL     1     -10.004   9.065  66.565  1.00  0.00    -0.246 OA 
BRANCH  12  13
HETATM   13  C   UNL     1     -10.486  10.294  66.965  1.00  0.00    -0.244 A  
HETATM   14  C   UNL     1      -9.924  11.409  66.341  1.00  0.00    -0.247 A  
HETATM   15  C   UNL     1     -10.320  12.686  66.730  1.00  0.00    -0.235 A  
HETATM   16  F   UNL     1      -9.767  13.754  66.137  1.00  0.00    -0.274 F  
HETATM   17  C   UNL     1     -11.227  12.871  67.775  1.00  0.00    -0.280 A  
HETATM   18  C   UNL     1     -11.414  10.468  67.998  1.00  0.00    -0.230 A  
HETATM   19  C   UNL     1     -11.791  11.755  68.398  1.00  0.00    -0.347 A  
BRANCH  17  20
HETATM   20  N   UNL     1     -11.542  14.184  68.192  1.00  0.00    -0.311 N  
HETATM   21  H   UNL     1     -12.066  14.802  67.572  1.00  0.00     0.000 HD 
BRANCH  20  22
HETATM   22  C   UNL     1     -11.141  14.637  69.442  1.00  0.00    -0.268 C  
HETATM   23  O   UNL     1     -11.818  14.564  70.464  1.00  0.00    -0.280 OA 
BRANCH  22  24
HETATM   24  N   UNL     1      -9.877  15.194  69.382  1.00  0.00    -0.309 N  
HETATM   25  H   UNL     1      -9.090  14.683  69.784  1.00  0.00     0.000 HD 
BRANCH  24  26
HETATM   26  C   UNL     1      -9.647  16.446  68.782  1.00  0.00    -0.249 A  
HETATM   27  C   UNL     1     -10.671  17.388  68.797  1.00  0.00    -0.197 A  
HETATM   28  C   UNL     1     -10.472  18.636  68.207  1.00  0.00    -0.315 A  
HETATM   29  C   UNL     1      -9.278  18.930  67.535  1.00  0.00    -0.290 A  
HETATM   30 CL   UNL     1      -9.176  20.500  66.828  1.00  0.00    -0.390 Cl 
HETATM   31  C   UNL     1      -8.256  17.977  67.461  1.00  0.00    -0.235 A  
HETATM   32  C   UNL     1      -8.444  16.743  68.129  1.00  0.00    -0.213 A  
HETATM   33  C   UNL     1      -6.978  18.165  66.681  1.00  0.00    -0.210 C  
HETATM   34  F   UNL     1      -5.872  18.096  67.474  1.00  0.00    -0.142 F  
HETATM   35  F   UNL     1      -6.817  17.180  65.746  1.00  0.00    -0.217 F  
HETATM   36  F   UNL     1      -6.857  19.327  65.988  1.00  0.00    -0.209 F  
ENDBRANCH  24  26
ENDBRANCH  22  24
ENDBRANCH  20  22
ENDBRANCH  17  20
ENDBRANCH  12  13
ENDBRANCH   8  12
ENDBRANCH   3   6
TORSDOF 7
ENDMDL
MODEL      223
REMARK 921   NORMALIZED FREE ENERGY PREDICTED BY IDOCK:   -4.78 KCAL/MOL
REMARK 922        TOTAL FREE ENERGY PREDICTED BY IDOCK:   -8.72 KCAL/MOL
REMARK 923 INTER-LIGAND FREE ENERGY PREDICTED BY IDOCK:   -7.19 KCAL/MOL
REMARK 924 INTRA-LIGAND FREE ENERGY PREDICTED BY IDOCK:   -1.53 KCAL/MOL
REMARK 927      BINDING AFFINITY PREDICTED BY RF-SCORE:    0.00 PKD
ROOT
HETATM    1  C   UNL     1      -5.140   9.540  72.878  1.00  0.00    -0.072 C  
HETATM    2  N   UNL     1      -6.246   9.049  72.102  1.00  0.00    -0.047 N  
HETATM    3  C   UNL     1      -6.438   9.456  70.799  1.00  0.00    -0.086 C  
HETATM    4  H   UNL     1      -6.899   8.389  72.523  1.00  0.00     0.000 HD 
HETATM    5  O   UNL     1      -5.672  10.205  70.202  1.00  0.00    -0.043 OA 
ENDROOT
BRANCH   3   6
HETATM    6  C   UNL     1      -7.672   8.920  70.141  1.00  0.00    -0.084 A  
HETATM    7  C   UNL     1      -7.663   8.731  68.766  1.00  0.00    -0.097 A  
HETATM    8  C   UNL     1      -8.801   8.195  68.176  1.00  0.00    -0.132 A  
HETATM    9  C   UNL     1      -9.919   7.928  68.960  1.00  0.00    -0.188 A  
HETATM   10  N   UNL     1      -8.740   8.649  70.942  1.00  0.00    -0.164 NA 
HETATM   11  C   UNL     1      -9.839   8.165  70.324  1.00  0.00    -0.184 A  
BRANCH   8  12
HETATM   12  O   UNL     1      -8.926   7.978  66.823  1.00  0.00    -0.131 OA 
BRANCH  12  13
HETATM   13  C   UNL     1      -9.352   9.004  66.007  1.00  0.00    -0.242 A  
HETATM   14  C   UNL     1      -8.665   9.160  64.801  1.00  0.00    -0.208 A  
HETATM   15  C   UNL     1      -9.003  10.207  63.949  1.00  0.00    -0.244 A  
HETATM   16  F   UNL     1      -8.329  10.360  62.798  1.00  0.00    -0.139 F  
HETATM   17  C   UNL     1      -9.977  11.141  64.306  1.00  0.00    -0.306 A  
HETATM   18  C   UNL     1     -10.348   9.921  66.363  1.00  0.00    -0.246 A  
HETATM   19  C   UNL     1     -10.666  10.984  65.511  1.00  0.00    -0.218 A  
BRANCH  17  20
HETATM   20  N   UNL     1     -10.233  12.234  63.447  1.00  0.00    -0.396 N  
HETATM   21  H   UNL     1      -9.622  12.407  62.649  1.00  0.00     0.000 HD 
BRANCH  20  22
HETATM   22  C   UNL     1     -11.312  13.074  63.686  1.00  0.00    -0.339 C  
HETATM   23  O   UNL     1     -12.490  12.770  63.511  1.00  0.00    -0.671 OA 
BRANCH  22  24
HETATM   24  N   UNL     1     -10.886  14.308  64.139  1.00  0.00    -0.487 N  
HETATM   25  H   UNL     1     -10.788  15.075  63.474  1.00  0.00     0.000 HD 
BRANCH  24  26
HETATM   26  C   UNL     1     -10.582  14.534  65.496  1.00  0.00    -0.351 A  
HETATM   27  C   UNL     1     -11.630  14.600  66.409  1.00  0.00    -0.343 A  
HETATM   28  C   UNL     1     -11.358  14.826  67.757  1.00  0.00    -0.344 A  
HETATM   29  C   UNL     1     -10.048  15.059  68.197  1.00  0.00    -0.220 A  
HETATM   30 CL   UNL     1      -9.858  15.351  69.886  1.00  0.00    -0.253 Cl 
HETATM   31  C   UNL     1      -8.985  15.050  67.287  1.00  0.00    -0.212 A  
HETATM   32  C   UNL     1      -9.269  14.746  65.933  1.00  0.00    -0.076 A  
HETATM   33  C   UNL     1      -7.559  15.383  67.646  1.00  0.00    -0.167 C  
HETATM   34  F   UNL     1      -6.707  14.348  67.401  1.00  0.00    -0.186 F  
HETATM   35  F   UNL     1      -7.087  16.427  66.899  1.00  0.00    -0.192 F  
HETATM   36  F   UNL     1      -7.329  15.746  68.936  1.00  0.00    -0.125 F  
ENDBRANCH  24  26
ENDBRANCH  22  24
ENDBRANCH  20  22
ENDBRANCH  17  20
ENDBRANCH  12  13
ENDBRANCH   8  12
ENDBRANCH   3   6
TORSDOF 7
ENDMDL
MODEL      224
REMARK 921   NORMALIZED FREE ENERGY PREDICTED BY IDOCK:   -4.77 KCAL/MOL
REMARK 922        TOTAL FREE ENERGY PREDICTED BY IDOCK:   -8.71 KCAL/MOL
REMARK 923 INTER-LIGAND FREE ENERGY PREDICTED BY IDOCK:   -7.97 KCAL/MOL
REMARK 924 INTRA-LIGAND FREE ENERGY PREDICTED BY IDOCK:   -0.74 KCAL/MOL
REMARK 927      BINDING AFFINITY PREDICTED BY RF-SCORE:    0.00 PKD
ROOT
HETATM    1  C   UNL     1     -10.666   7.613  72.688  1.00  0.00    -0.321 C  
HETATM    2  N   UNL     1      -9.904   7.897  71.503  1.00  0.00    -0.163 N  
HETATM    3  C   UNL     1      -8.527   7.847  71.512  1.00  0.00    -0.114 C  
HETATM    4  H   UNL     1     -10.391   8.140  70.641  1.00  0.00     0.000 HD 
HETATM    5  O   UNL     1      -7.866   7.514  72.490  1.00  0.00    -0.092 OA 
ENDROOT
BRANCH   3   6
HETATM    6  C   UNL     1      -7.867   8.240  70.226  1.00  0.00    -0.092 A  
HETATM    7  C   UNL     1      -8.614   8.200  69.057  1.00  0.00    -0.133 A  
HETATM    8  C   UNL     1      -8.000   8.606  67.879  1.00  0.00    -0.107 A  
HETATM    9  C   UNL     1      -6.658   8.975  67.896  1.00  0.00    -0.060 A  
HETATM   10  N   UNL     1      -6.560   8.616  70.284  1.00  0.00    -0.038 NA 
HETATM   11  C   UNL     1      -5.989   8.968  69.111  1.00  0.00    -0.042 A  
BRANCH   8  12
HETATM   12  O   UNL     1      -8.624   8.594  66.653  1.00  0.00    -0.113 OA 
BRANCH  12  13
HETATM   13  C   UNL     1      -9.025   9.783  66.082  1.00  0.00    -0.152 A  
HETATM   14  C   UNL     1      -8.703  10.945  66.786  1.00  0.00    -0.147 A  
HETATM   15  C   UNL     1      -9.122  12.180  66.300  1.00  0.00    -0.141 A  
HETATM   16  F   UNL     1      -8.822  13.293  66.988  1.00  0.00    -0.199 F  
HETATM   17  C   UNL     1      -9.911  12.273  65.152  1.00  0.00    -0.158 A  
HETATM   18  C   UNL     1      -9.795   9.867  64.916  1.00  0.00    -0.282 A  
HETATM   19  C   UNL     1     -10.232  11.110  64.446  1.00  0.00    -0.390 A  
BRANCH  17  20
HETATM   20  N   UNL     1     -10.382  13.539  64.738  1.00  0.00    -0.502 N  
HETATM   21  H   UNL     1      -9.726  14.231  64.375  1.00  0.00     0.000 HD 
BRANCH  20  22
HETATM   22  C   UNL     1     -11.734  13.846  64.822  1.00  0.00    -0.386 C  
HETATM   23  O   UNL     1     -12.390  14.372  63.927  1.00  0.00    -0.720 OA 
BRANCH  22  24
HETATM   24  N   UNL     1     -12.244  13.489  66.056  1.00  0.00    -0.436 N  
HETATM   25  H   UNL     1     -12.844  12.667  66.126  1.00  0.00     0.000 HD 
BRANCH  24  26
HETATM   26  C   UNL     1     -11.957  14.230  67.218  1.00  0.00    -0.405 A  
HETATM   27  C   UNL     1     -12.404  13.745  68.443  1.00  0.00     0.016 A  
HETATM   28  C   UNL     1     -12.136  14.461  69.609  1.00  0.00    -0.381 A  
HETATM   29  C   UNL     1     -11.485  15.701  69.558  1.00  0.00    -0.344 A  
HETATM   30 CL   UNL     1     -11.242  16.491  71.072  1.00  0.00    -0.169 Cl 
HETATM   31  C   UNL     1     -11.073  16.232  68.330  1.00  0.00    -0.362 A  
HETATM   32  C   UNL     1     -11.287  15.459  67.163  1.00  0.00    -0.203 A  
HETATM   33  C   UNL     1     -10.452  17.597  68.163  1.00  0.00    -0.385 C  
HETATM   34  F   UNL     1      -9.201  17.534  67.628  1.00  0.00    -0.235 F  
HETATM   35  F   UNL     1     -11.178  18.372  67.301  1.00  0.00    -0.341 F  
HETATM   36  F   UNL     1     -10.330  18.348  69.289  1.00  0.00    -0.371 F  
ENDBRANCH  24  26
ENDBRANCH  22  24
ENDBRANCH  20  22
ENDBRANCH  17  20
ENDBRANCH  12  13
ENDBRANCH   8  12
ENDBRANCH   3   6
TORSDOF 7
ENDMDL
MODEL      225
REMARK 921   NORMALIZED FREE ENERGY PREDICTED BY IDOCK:   -4.76 KCAL/MOL
REMARK 922        TOTAL FREE ENERGY PREDICTED BY IDOCK:   -8.69 KCAL/MOL
REMARK 923 INTER-LIGAND FREE ENERGY PREDICTED BY IDOCK:   -7.68 KCAL/MOL
REMARK 924 INTRA-LIGAND FREE ENERGY PREDICTED BY IDOCK:   -1.01 KCAL/MOL
REMARK 927      BINDING AFFINITY PREDICTED BY RF-SCORE:    0.00 PKD
ROOT
HETATM    1  C   UNL     1     -10.667   3.943  62.355  1.00  0.00    -0.178 C  
HETATM    2  N   UNL     1     -10.333   4.168  63.735  1.00  0.00    -0.405 N  
HETATM    3  C   UNL     1      -9.094   3.826  64.234  1.00  0.00    -0.128 C  
HETATM    4  H   UNL     1     -11.024   4.589  64.356  1.00  0.00     0.000 HD 
HETATM    5  O   UNL     1      -8.190   3.365  63.546  1.00  0.00    -0.087 OA 
ENDROOT
BRANCH   3   6
HETATM    6  C   UNL     1      -8.916   4.049  65.704  1.00  0.00    -0.131 A  
HETATM    7  C   UNL     1      -8.165   5.138  66.125  1.00  0.00    -0.109 A  
HETATM    8  C   UNL     1      -8.044   5.355  67.491  1.00  0.00    -0.101 A  
HETATM    9  C   UNL     1      -8.617   4.453  68.383  1.00  0.00    -0.106 A  
HETATM   10  N   UNL     1      -9.509   3.160  66.548  1.00  0.00    -0.104 NA 
HETATM   11  C   UNL     1      -9.336   3.385  67.868  1.00  0.00    -0.191 A  
BRANCH   8  12
HETATM   12  O   UNL     1      -7.312   6.385  68.036  1.00  0.00    -0.085 OA 
BRANCH  12  13
HETATM   13  C   UNL     1      -7.956   7.528  68.459  1.00  0.00    -0.123 A  
HETATM   14  C   UNL     1      -8.053   7.706  69.841  1.00  0.00    -0.124 A  
HETATM   15  C   UNL     1      -8.737   8.809  70.344  1.00  0.00    -0.166 A  
HETATM   16  F   UNL     1      -8.839   8.967  71.673  1.00  0.00    -0.262 F  
HETATM   17  C   UNL     1      -9.378   9.710  69.491  1.00  0.00    -0.200 A  
HETATM   18  C   UNL     1      -8.574   8.439  67.595  1.00  0.00    -0.130 A  
HETATM   19  C   UNL     1      -9.278   9.533  68.109  1.00  0.00    -0.134 A  
BRANCH  17  20
HETATM   20  N   UNL     1     -10.128  10.771  70.046  1.00  0.00    -0.341 N  
HETATM   21  H   UNL     1      -9.689  11.680  70.194  1.00  0.00     0.000 HD 
BRANCH  20  22
HETATM   22  C   UNL     1     -11.460  10.582  70.391  1.00  0.00    -0.341 C  
HETATM   23  O   UNL     1     -11.854   9.821  71.272  1.00  0.00    -0.340 OA 
BRANCH  22  24
HETATM   24  N   UNL     1     -12.288  11.359  69.603  1.00  0.00    -0.222 N  
HETATM   25  H   UNL     1     -13.291  11.358  69.787  1.00  0.00     0.000 HD 
BRANCH  24  26
HETATM   26  C   UNL     1     -11.783  12.150  68.553  1.00  0.00    -0.330 A  
HETATM   27  C   UNL     1     -11.232  13.389  68.861  1.00  0.00    -0.320 A  
HETATM   28  C   UNL     1     -10.727  14.194  67.841  1.00  0.00    -0.245 A  
HETATM   29  C   UNL     1     -10.831  13.803  66.500  1.00  0.00    -0.287 A  
HETATM   30 CL   UNL     1     -10.190  14.906  65.338  1.00  0.00    -0.389 Cl 
HETATM   31  C   UNL     1     -11.430  12.584  66.164  1.00  0.00    -0.426 A  
HETATM   32  C   UNL     1     -11.871  11.745  67.216  1.00  0.00    -0.186 A  
HETATM   33  C   UNL     1     -11.674  12.121  64.749  1.00  0.00    -0.327 C  
HETATM   34  F   UNL     1     -11.035  10.951  64.469  1.00  0.00    -0.382 F  
HETATM   35  F   UNL     1     -13.001  11.873  64.528  1.00  0.00    -0.386 F  
HETATM   36  F   UNL     1     -11.311  12.980  63.760  1.00  0.00    -0.395 F  
ENDBRANCH  24  26
ENDBRANCH  22  24
ENDBRANCH  20  22
ENDBRANCH  17  20
ENDBRANCH  12  13
ENDBRANCH   8  12
ENDBRANCH   3   6
TORSDOF 7
ENDMDL
MODEL      226
REMARK 921   NORMALIZED FREE ENERGY PREDICTED BY IDOCK:   -4.76 KCAL/MOL
REMARK 922        TOTAL FREE ENERGY PREDICTED BY IDOCK:   -8.69 KCAL/MOL
REMARK 923 INTER-LIGAND FREE ENERGY PREDICTED BY IDOCK:   -8.22 KCAL/MOL
REMARK 924 INTRA-LIGAND FREE ENERGY PREDICTED BY IDOCK:   -0.48 KCAL/MOL
REMARK 927      BINDING AFFINITY PREDICTED BY RF-SCORE:    0.00 PKD
ROOT
HETATM    1  C   UNL     1      -9.723  19.719  66.582  1.00  0.00    -0.407 C  
HETATM    2  N   UNL     1     -10.361  18.514  66.126  1.00  0.00    -0.431 N  
HETATM    3  C   UNL     1      -9.623  17.403  65.781  1.00  0.00     0.102 C  
HETATM    4  H   UNL     1     -11.378  18.481  66.056  1.00  0.00     0.000 HD 
HETATM    5  O   UNL     1      -8.402  17.340  65.885  1.00  0.00    -0.533 OA 
ENDROOT
BRANCH   3   6
HETATM    6  C   UNL     1     -10.418  16.249  65.253  1.00  0.00    -0.300 A  
HETATM    7  C   UNL     1      -9.965  14.961  65.501  1.00  0.00    -0.392 A  
HETATM    8  C   UNL     1     -10.735  13.901  65.040  1.00  0.00    -0.386 A  
HETATM    9  C   UNL     1     -11.886  14.159  64.301  1.00  0.00    -0.420 A  
HETATM   10  N   UNL     1     -11.549  16.538  64.553  1.00  0.00    -0.655 NA 
HETATM   11  C   UNL     1     -12.250  15.480  64.089  1.00  0.00    -0.004 A  
BRANCH   8  12
HETATM   12  O   UNL     1     -10.387  12.580  65.203  1.00  0.00    -0.280 OA 
BRANCH  12  13
HETATM   13  C   UNL     1     -10.726  11.926  66.369  1.00  0.00    -0.266 A  
HETATM   14  C   UNL     1     -11.479  12.656  67.290  1.00  0.00    -0.402 A  
HETATM   15  C   UNL     1     -11.813  12.082  68.513  1.00  0.00    -0.311 A  
HETATM   16  F   UNL     1     -12.524  12.794  69.400  1.00  0.00    -0.208 F  
HETATM   17  C   UNL     1     -11.358  10.808  68.859  1.00  0.00    -0.284 A  
HETATM   18  C   UNL     1     -10.285  10.638  66.696  1.00  0.00    -0.284 A  
HETATM   19  C   UNL     1     -10.607  10.076  67.936  1.00  0.00    -0.298 A  
BRANCH  17  20
HETATM   20  N   UNL     1     -11.653  10.294  70.142  1.00  0.00    -0.280 N  
HETATM   21  H   UNL     1     -12.517  10.567  70.612  1.00  0.00     0.000 HD 
BRANCH  20  22
HETATM   22  C   UNL     1     -10.773   9.420  70.766  1.00  0.00    -0.305 C  
HETATM   23  O   UNL     1      -9.678   9.737  71.223  1.00  0.00    -0.045 OA 
BRANCH  22  24
HETATM   24  N   UNL     1     -11.289   8.138  70.795  1.00  0.00    -0.273 N  
HETATM   25  H   UNL     1     -12.248   7.997  71.111  1.00  0.00     0.000 HD 
BRANCH  24  26
HETATM   26  C   UNL     1     -10.525   7.024  70.399  1.00  0.00    -0.206 A  
HETATM   27  C   UNL     1     -11.061   6.151  69.458  1.00  0.00    -0.490 A  
HETATM   28  C   UNL     1     -10.327   5.037  69.051  1.00  0.00    -0.155 A  
HETATM   29  C   UNL     1      -9.085   4.745  69.630  1.00  0.00    -0.113 A  
HETATM   30 CL   UNL     1      -8.298   3.323  69.052  1.00  0.00    -0.077 Cl 
HETATM   31  C   UNL     1      -8.551   5.581  70.617  1.00  0.00    -0.130 A  
HETATM   32  C   UNL     1      -9.274   6.747  70.966  1.00  0.00    -0.156 A  
HETATM   33  C   UNL     1      -7.272   5.299  71.365  1.00  0.00    -0.074 C  
HETATM   34  F   UNL     1      -6.341   6.277  71.186  1.00  0.00    -0.041 F  
HETATM   35  F   UNL     1      -7.486   5.243  72.714  1.00  0.00    -0.087 F  
HETATM   36  F   UNL     1      -6.639   4.135  71.064  1.00  0.00    -0.023 F  
ENDBRANCH  24  26
ENDBRANCH  22  24
ENDBRANCH  20  22
ENDBRANCH  17  20
ENDBRANCH  12  13
ENDBRANCH   8  12
ENDBRANCH   3   6
TORSDOF 7
ENDMDL
MODEL      227
REMARK 921   NORMALIZED FREE ENERGY PREDICTED BY IDOCK:   -4.74 KCAL/MOL
REMARK 922        TOTAL FREE ENERGY PREDICTED BY IDOCK:   -8.67 KCAL/MOL
REMARK 923 INTER-LIGAND FREE ENERGY PREDICTED BY IDOCK:   -7.73 KCAL/MOL
REMARK 924 INTRA-LIGAND FREE ENERGY PREDICTED BY IDOCK:   -0.93 KCAL/MOL
REMARK 927      BINDING AFFINITY PREDICTED BY RF-SCORE:    0.00 PKD
ROOT
HETATM    1  C   UNL     1      -6.996   4.785  63.031  1.00  0.00    -0.038 C  
HETATM    2  N   UNL     1      -6.842   5.669  64.154  1.00  0.00    -0.048 N  
HETATM    3  C   UNL     1      -6.840   5.187  65.445  1.00  0.00    -0.060 C  
HETATM    4  H   UNL     1      -6.732   6.670  63.993  1.00  0.00     0.000 HD 
HETATM    5  O   UNL     1      -6.914   3.995  65.725  1.00  0.00    -0.059 OA 
ENDROOT
BRANCH   3   6
HETATM    6  C   UNL     1      -6.746   6.231  66.514  1.00  0.00    -0.060 A  
HETATM    7  C   UNL     1      -6.963   7.558  66.169  1.00  0.00    -0.065 A  
HETATM    8  C   UNL     1      -6.914   8.510  67.179  1.00  0.00    -0.075 A  
HETATM    9  C   UNL     1      -6.591   8.118  68.475  1.00  0.00    -0.058 A  
HETATM   10  N   UNL     1      -6.450   5.810  67.775  1.00  0.00    -0.045 NA 
HETATM   11  C   UNL     1      -6.374   6.771  68.721  1.00  0.00    -0.031 A  
BRANCH   8  12
HETATM   12  O   UNL     1      -7.091   9.857  66.964  1.00  0.00    -0.087 OA 
BRANCH  12  13
HETATM   13  C   UNL     1      -8.086  10.285  66.111  1.00  0.00    -0.133 A  
HETATM   14  C   UNL     1      -9.353  10.452  66.675  1.00  0.00    -0.185 A  
HETATM   15  C   UNL     1     -10.420  10.829  65.866  1.00  0.00    -0.204 A  
HETATM   16  F   UNL     1     -11.638  10.974  66.410  1.00  0.00    -0.169 F  
HETATM   17  C   UNL     1     -10.258  10.987  64.488  1.00  0.00    -0.344 A  
HETATM   18  C   UNL     1      -7.908  10.464  64.735  1.00  0.00    -0.086 A  
HETATM   19  C   UNL     1      -8.991  10.822  63.924  1.00  0.00    -0.166 A  
BRANCH  17  20
HETATM   20  N   UNL     1     -11.385  11.293  63.691  1.00  0.00    -0.574 N  
HETATM   21  H   UNL     1     -11.601  10.719  62.875  1.00  0.00     0.000 HD 
BRANCH  20  22
HETATM   22  C   UNL     1     -12.199  12.370  64.013  1.00  0.00    -0.490 C  
HETATM   23  O   UNL     1     -13.378  12.283  64.345  1.00  0.00    -0.786 OA 
BRANCH  22  24
HETATM   24  N   UNL     1     -11.507  13.562  63.899  1.00  0.00    -0.604 N  
HETATM   25  H   UNL     1     -11.154  13.845  62.986  1.00  0.00     0.000 HD 
BRANCH  24  26
HETATM   26  C   UNL     1     -11.278  14.393  65.012  1.00  0.00    -0.375 A  
HETATM   27  C   UNL     1     -10.725  15.652  64.798  1.00  0.00    -0.301 A  
HETATM   28  C   UNL     1     -10.484  16.494  65.883  1.00  0.00    -0.335 A  
HETATM   29  C   UNL     1     -10.726  16.064  67.194  1.00  0.00    -0.283 A  
HETATM   30 CL   UNL     1     -10.359  17.198  68.441  1.00  0.00    -0.340 Cl 
HETATM   31  C   UNL     1     -11.233  14.782  67.435  1.00  0.00    -0.346 A  
HETATM   32  C   UNL     1     -11.541  13.966  66.320  1.00  0.00    -0.378 A  
HETATM   33  C   UNL     1     -11.435  14.196  68.810  1.00  0.00    -0.299 C  
HETATM   34  F   UNL     1     -12.736  13.867  69.047  1.00  0.00    -0.228 F  
HETATM   35  F   UNL     1     -10.732  13.033  68.964  1.00  0.00    -0.243 F  
HETATM   36  F   UNL     1     -11.059  14.972  69.860  1.00  0.00    -0.240 F  
ENDBRANCH  24  26
ENDBRANCH  22  24
ENDBRANCH  20  22
ENDBRANCH  17  20
ENDBRANCH  12  13
ENDBRANCH   8  12
ENDBRANCH   3   6
TORSDOF 7
ENDMDL
MODEL      228
REMARK 921   NORMALIZED FREE ENERGY PREDICTED BY IDOCK:   -4.73 KCAL/MOL
REMARK 922        TOTAL FREE ENERGY PREDICTED BY IDOCK:   -8.65 KCAL/MOL
REMARK 923 INTER-LIGAND FREE ENERGY PREDICTED BY IDOCK:   -7.50 KCAL/MOL
REMARK 924 INTRA-LIGAND FREE ENERGY PREDICTED BY IDOCK:   -1.15 KCAL/MOL
REMARK 927      BINDING AFFINITY PREDICTED BY RF-SCORE:    0.00 PKD
ROOT
HETATM    1  C   UNL     1     -10.271  19.843  66.136  1.00  0.00    -0.503 C  
HETATM    2  N   UNL     1     -10.389  18.436  65.866  1.00  0.00    -0.369 N  
HETATM    3  C   UNL     1     -10.484  17.519  66.890  1.00  0.00    -0.285 C  
HETATM    4  H   UNL     1     -10.402  18.111  64.899  1.00  0.00     0.000 HD 
HETATM    5  O   UNL     1     -10.528  17.828  68.076  1.00  0.00    -0.373 OA 
ENDROOT
BRANCH   3   6
HETATM    6  C   UNL     1     -10.526  16.085  66.459  1.00  0.00    -0.302 A  
HETATM    7  C   UNL     1     -10.502  15.097  67.433  1.00  0.00    -0.264 A  
HETATM    8  C   UNL     1     -10.583  13.774  67.019  1.00  0.00    -0.278 A  
HETATM    9  C   UNL     1     -10.620  13.481  65.659  1.00  0.00    -0.284 A  
HETATM   10  N   UNL     1     -10.584  15.836  65.121  1.00  0.00    -0.457 NA 
HETATM   11  C   UNL     1     -10.623  14.536  64.759  1.00  0.00    -0.377 A  
BRANCH   8  12
HETATM   12  O   UNL     1     -10.549  12.703  67.882  1.00  0.00    -0.211 OA 
BRANCH  12  13
HETATM   13  C   UNL     1      -9.958  11.524  67.481  1.00  0.00    -0.190 A  
HETATM   14  C   UNL     1     -10.807  10.425  67.337  1.00  0.00    -0.344 A  
HETATM   15  C   UNL     1     -10.274   9.187  66.988  1.00  0.00    -0.263 A  
HETATM   16  F   UNL     1     -11.093   8.131  66.864  1.00  0.00    -0.306 F  
HETATM   17  C   UNL     1      -8.897   9.013  66.836  1.00  0.00    -0.116 A  
HETATM   18  C   UNL     1      -8.578  11.365  67.307  1.00  0.00    -0.146 A  
HETATM   19  C   UNL     1      -8.048  10.112  66.978  1.00  0.00    -0.117 A  
BRANCH  17  20
HETATM   20  N   UNL     1      -8.392   7.722  66.559  1.00  0.00    -0.123 N  
HETATM   21  H   UNL     1      -8.326   7.398  65.594  1.00  0.00     0.000 HD 
BRANCH  20  22
HETATM   22  C   UNL     1      -7.983   6.893  67.595  1.00  0.00    -0.113 C  
HETATM   23  O   UNL     1      -6.834   6.821  68.023  1.00  0.00    -0.071 OA 
BRANCH  22  24
HETATM   24  N   UNL     1      -9.043   6.147  68.077  1.00  0.00    -0.116 N  
HETATM   25  H   UNL     1      -9.599   5.596  67.424  1.00  0.00     0.000 HD 
BRANCH  24  26
HETATM   26  C   UNL     1      -9.374   6.130  69.445  1.00  0.00    -0.139 A  
HETATM   27  C   UNL     1      -9.738   7.326  70.055  1.00  0.00    -0.175 A  
HETATM   28  C   UNL     1     -10.068   7.339  71.410  1.00  0.00    -0.196 A  
HETATM   29  C   UNL     1      -9.969   6.175  72.184  1.00  0.00    -0.167 A  
HETATM   30 CL   UNL     1     -10.382   6.338  73.851  1.00  0.00    -0.293 Cl 
HETATM   31  C   UNL     1      -9.554   4.972  71.602  1.00  0.00    -0.210 A  
HETATM   32  C   UNL     1      -9.294   4.960  70.210  1.00  0.00    -0.216 A  
HETATM   33  C   UNL     1      -9.326   3.693  72.369  1.00  0.00    -0.119 C  
HETATM   34  F   UNL     1     -10.128   2.680  71.937  1.00  0.00    -0.223 F  
HETATM   35  F   UNL     1      -8.047   3.238  72.209  1.00  0.00    -0.059 F  
HETATM   36  F   UNL     1      -9.510   3.754  73.714  1.00  0.00    -0.099 F  
ENDBRANCH  24  26
ENDBRANCH  22  24
ENDBRANCH  20  22
ENDBRANCH  17  20
ENDBRANCH  12  13
ENDBRANCH   8  12
ENDBRANCH   3   6
TORSDOF 7
ENDMDL
MODEL      229
REMARK 921   NORMALIZED FREE ENERGY PREDICTED BY IDOCK:   -4.72 KCAL/MOL
REMARK 922        TOTAL FREE ENERGY PREDICTED BY IDOCK:   -8.64 KCAL/MOL
REMARK 923 INTER-LIGAND FREE ENERGY PREDICTED BY IDOCK:   -7.78 KCAL/MOL
REMARK 924 INTRA-LIGAND FREE ENERGY PREDICTED BY IDOCK:   -0.86 KCAL/MOL
REMARK 927      BINDING AFFINITY PREDICTED BY RF-SCORE:    0.00 PKD
ROOT
HETATM    1  C   UNL     1      -6.741   1.982  69.647  1.00  0.00    -0.033 C  
HETATM    2  N   UNL     1      -7.525   3.069  69.128  1.00  0.00    -0.048 N  
HETATM    3  C   UNL     1      -8.237   3.899  69.968  1.00  0.00    -0.056 C  
HETATM    4  H   UNL     1      -7.556   3.229  68.121  1.00  0.00     0.000 HD 
HETATM    5  O   UNL     1      -8.214   3.809  71.190  1.00  0.00    -0.066 OA 
ENDROOT
BRANCH   3   6
HETATM    6  C   UNL     1      -9.066   4.939  69.281  1.00  0.00    -0.102 A  
HETATM    7  C   UNL     1      -8.498   5.665  68.244  1.00  0.00    -0.105 A  
HETATM    8  C   UNL     1      -9.293   6.598  67.590  1.00  0.00    -0.119 A  
HETATM    9  C   UNL     1     -10.595   6.817  68.029  1.00  0.00    -0.283 A  
HETATM   10  N   UNL     1     -10.343   5.112  69.722  1.00  0.00    -0.285 NA 
HETATM   11  C   UNL     1     -11.071   6.055  69.084  1.00  0.00    -0.335 A  
BRANCH   8  12
HETATM   12  O   UNL     1      -8.843   7.394  66.562  1.00  0.00    -0.135 OA 
BRANCH  12  13
HETATM   13  C   UNL     1      -8.969   8.763  66.657  1.00  0.00    -0.139 A  
HETATM   14  C   UNL     1      -9.719   9.385  65.657  1.00  0.00    -0.336 A  
HETATM   15  C   UNL     1      -9.847  10.771  65.655  1.00  0.00    -0.245 A  
HETATM   16  F   UNL     1     -10.557  11.364  64.683  1.00  0.00    -0.310 F  
HETATM   17  C   UNL     1      -9.188  11.556  66.603  1.00  0.00    -0.186 A  
HETATM   18  C   UNL     1      -8.324   9.540  67.627  1.00  0.00    -0.125 A  
HETATM   19  C   UNL     1      -8.439  10.934  67.605  1.00  0.00    -0.123 A  
BRANCH  17  20
HETATM   20  N   UNL     1      -9.279  12.964  66.517  1.00  0.00    -0.359 N  
HETATM   21  H   UNL     1      -8.653  13.476  65.895  1.00  0.00     0.000 HD 
BRANCH  20  22
HETATM   22  C   UNL     1     -10.216  13.653  67.276  1.00  0.00    -0.246 C  
HETATM   23  O   UNL     1     -11.379  13.296  67.445  1.00  0.00    -0.277 OA 
BRANCH  22  24
HETATM   24  N   UNL     1      -9.667  14.803  67.810  1.00  0.00    -0.212 N  
HETATM   25  H   UNL     1      -9.052  14.730  68.620  1.00  0.00     0.000 HD 
BRANCH  24  26
HETATM   26  C   UNL     1      -9.936  16.073  67.265  1.00  0.00    -0.242 A  
HETATM   27  C   UNL     1     -10.422  16.148  65.964  1.00  0.00    -0.349 A  
HETATM   28  C   UNL     1     -10.694  17.393  65.398  1.00  0.00    -0.040 A  
HETATM   29  C   UNL     1     -10.416  18.576  66.096  1.00  0.00    -0.413 A  
HETATM   30 CL   UNL     1     -10.776  20.046  65.268  1.00  0.00    -0.243 Cl 
HETATM   31  C   UNL     1      -9.877  18.524  67.387  1.00  0.00    -0.330 A  
HETATM   32  C   UNL     1      -9.676  17.252  67.976  1.00  0.00    -0.277 A  
HETATM   33  C   UNL     1      -9.457  19.737  68.179  1.00  0.00    -0.357 C  
HETATM   34  F   UNL     1     -10.141  19.853  69.351  1.00  0.00    -0.496 F  
HETATM   35  F   UNL     1      -8.138  19.668  68.533  1.00  0.00    -0.352 F  
HETATM   36  F   UNL     1      -9.590  20.940  67.560  1.00  0.00    -0.558 F  
ENDBRANCH  24  26
ENDBRANCH  22  24
ENDBRANCH  20  22
ENDBRANCH  17  20
ENDBRANCH  12  13
ENDBRANCH   8  12
ENDBRANCH   3   6
TORSDOF 7
ENDMDL
MODEL      230
REMARK 921   NORMALIZED FREE ENERGY PREDICTED BY IDOCK:   -4.72 KCAL/MOL
REMARK 922        TOTAL FREE ENERGY PREDICTED BY IDOCK:   -8.64 KCAL/MOL
REMARK 923 INTER-LIGAND FREE ENERGY PREDICTED BY IDOCK:   -6.70 KCAL/MOL
REMARK 924 INTRA-LIGAND FREE ENERGY PREDICTED BY IDOCK:   -1.94 KCAL/MOL
REMARK 927      BINDING AFFINITY PREDICTED BY RF-SCORE:    0.00 PKD
ROOT
HETATM    1  C   UNL     1      -6.929   8.749  71.887  1.00  0.00    -0.043 C  
HETATM    2  N   UNL     1      -6.984   9.494  70.660  1.00  0.00    -0.114 N  
HETATM    3  C   UNL     1      -6.718   8.893  69.448  1.00  0.00    -0.048 C  
HETATM    4  H   UNL     1      -7.224  10.485  70.685  1.00  0.00     0.000 HD 
HETATM    5  O   UNL     1      -6.473   7.698  69.323  1.00  0.00    -0.038 OA 
ENDROOT
BRANCH   3   6
HETATM    6  C   UNL     1      -6.740   9.810  68.264  1.00  0.00    -0.060 A  
HETATM    7  C   UNL     1      -6.479  11.158  68.463  1.00  0.00    -0.058 A  
HETATM    8  C   UNL     1      -6.463  11.988  67.349  1.00  0.00    -0.137 A  
HETATM    9  C   UNL     1      -6.765  11.463  66.097  1.00  0.00     0.140 A  
HETATM   10  N   UNL     1      -7.018   9.257  67.051  1.00  0.00    -0.084 NA 
HETATM   11  C   UNL     1      -7.029  10.105  65.999  1.00  0.00    -0.117 A  
BRANCH   8  12
HETATM   12  O   UNL     1      -6.238  13.344  67.414  1.00  0.00    -0.297 OA 
BRANCH  12  13
HETATM   13  C   UNL     1      -7.294  14.198  67.650  1.00  0.00    -0.176 A  
HETATM   14  C   UNL     1      -7.709  14.315  68.978  1.00  0.00    -0.065 A  
HETATM   15  C   UNL     1      -8.803  15.117  69.288  1.00  0.00    -0.207 A  
HETATM   16  F   UNL     1      -9.206  15.214  70.564  1.00  0.00     0.129 F  
HETATM   17  C   UNL     1      -9.531  15.761  68.285  1.00  0.00    -0.200 A  
HETATM   18  C   UNL     1      -8.002  14.859  66.639  1.00  0.00     0.235 A  
HETATM   19  C   UNL     1      -9.115  15.646  66.956  1.00  0.00    -0.239 A  
BRANCH  17  20
HETATM   20  N   UNL     1     -10.683  16.500  68.635  1.00  0.00    -0.314 N  
HETATM   21  H   UNL     1     -10.723  17.501  68.441  1.00  0.00     0.000 HD 
BRANCH  20  22
HETATM   22  C   UNL     1     -11.763  15.871  69.241  1.00  0.00    -0.353 C  
HETATM   23  O   UNL     1     -12.059  15.978  70.428  1.00  0.00    -0.328 OA 
BRANCH  22  24
HETATM   24  N   UNL     1     -12.456  15.096  68.330  1.00  0.00    -0.337 N  
HETATM   25  H   UNL     1     -13.300  15.473  67.899  1.00  0.00     0.000 HD 
BRANCH  24  26
HETATM   26  C   UNL     1     -12.028  13.800  67.983  1.00  0.00    -0.355 A  
HETATM   27  C   UNL     1     -11.711  12.910  69.004  1.00  0.00    -0.375 A  
HETATM   28  C   UNL     1     -11.282  11.622  68.689  1.00  0.00    -0.308 A  
HETATM   29  C   UNL     1     -11.095  11.233  67.356  1.00  0.00    -0.297 A  
HETATM   30 CL   UNL     1     -10.535   9.620  67.110  1.00  0.00    -0.319 Cl 
HETATM   31  C   UNL     1     -11.357  12.130  66.315  1.00  0.00    -0.411 A  
HETATM   32  C   UNL     1     -11.863  13.410  66.649  1.00  0.00    -0.443 A  
HETATM   33  C   UNL     1     -11.096  11.838  64.858  1.00  0.00    -0.285 C  
HETATM   34  F   UNL     1     -12.230  11.902  64.106  1.00  0.00    -0.441 F  
HETATM   35  F   UNL     1     -10.244  12.756  64.310  1.00  0.00    -0.335 F  
HETATM   36  F   UNL     1     -10.539  10.631  64.574  1.00  0.00    -0.420 F  
ENDBRANCH  24  26
ENDBRANCH  22  24
ENDBRANCH  20  22
ENDBRANCH  17  20
ENDBRANCH  12  13
ENDBRANCH   8  12
ENDBRANCH   3   6
TORSDOF 7
ENDMDL
MODEL      231
REMARK 921   NORMALIZED FREE ENERGY PREDICTED BY IDOCK:   -4.71 KCAL/MOL
REMARK 922        TOTAL FREE ENERGY PREDICTED BY IDOCK:   -8.63 KCAL/MOL
REMARK 923 INTER-LIGAND FREE ENERGY PREDICTED BY IDOCK:   -8.07 KCAL/MOL
REMARK 924 INTRA-LIGAND FREE ENERGY PREDICTED BY IDOCK:   -0.56 KCAL/MOL
REMARK 927      BINDING AFFINITY PREDICTED BY RF-SCORE:    0.00 PKD
ROOT
HETATM    1  C   UNL     1      -7.384   4.672  68.101  1.00  0.00    -0.066 C  
HETATM    2  N   UNL     1      -8.162   5.566  68.914  1.00  0.00    -0.098 N  
HETATM    3  C   UNL     1      -7.555   6.463  69.767  1.00  0.00    -0.093 C  
HETATM    4  H   UNL     1      -9.180   5.537  68.859  1.00  0.00     0.000 HD 
HETATM    5  O   UNL     1      -6.339   6.599  69.857  1.00  0.00    -0.036 OA 
ENDROOT
BRANCH   3   6
HETATM    6  C   UNL     1      -8.491   7.277  70.605  1.00  0.00    -0.140 A  
HETATM    7  C   UNL     1      -9.645   7.777  70.019  1.00  0.00    -0.161 A  
HETATM    8  C   UNL     1     -10.524   8.496  70.819  1.00  0.00    -0.200 A  
HETATM    9  C   UNL     1     -10.195   8.743  72.149  1.00  0.00    -0.371 A  
HETATM   10  N   UNL     1      -8.149   7.480  71.908  1.00  0.00    -0.093 NA 
HETATM   11  C   UNL     1      -9.011   8.216  72.643  1.00  0.00    -0.232 A  
BRANCH   8  12
HETATM   12  O   UNL     1     -11.689   9.060  70.354  1.00  0.00    -0.198 OA 
BRANCH  12  13
HETATM   13  C   UNL     1     -11.639  10.248  69.657  1.00  0.00    -0.201 A  
HETATM   14  C   UNL     1     -11.986  11.398  70.369  1.00  0.00    -0.465 A  
HETATM   15  C   UNL     1     -12.011  12.628  69.718  1.00  0.00    -0.295 A  
HETATM   16  F   UNL     1     -12.359  13.727  70.405  1.00  0.00    -0.355 F  
HETATM   17  C   UNL     1     -11.752  12.723  68.350  1.00  0.00    -0.339 A  
HETATM   18  C   UNL     1     -11.353  10.337  68.289  1.00  0.00    -0.245 A  
HETATM   19  C   UNL     1     -11.402  11.574  67.637  1.00  0.00    -0.358 A  
BRANCH  17  20
HETATM   20  N   UNL     1     -11.866  13.979  67.712  1.00  0.00    -0.369 N  
HETATM   21  H   UNL     1     -11.819  14.836  68.264  1.00  0.00     0.000 HD 
BRANCH  20  22
HETATM   22  C   UNL     1     -12.043  14.053  66.336  1.00  0.00    -0.455 C  
HETATM   23  O   UNL     1     -13.025  13.629  65.733  1.00  0.00    -0.435 OA 
BRANCH  22  24
HETATM   24  N   UNL     1     -10.958  14.659  65.732  1.00  0.00    -0.320 N  
HETATM   25  H   UNL     1     -10.687  14.369  64.792  1.00  0.00     0.000 HD 
BRANCH  24  26
HETATM   26  C   UNL     1     -10.217  15.666  66.380  1.00  0.00    -0.290 A  
HETATM   27  C   UNL     1     -10.309  16.970  65.903  1.00  0.00    -0.310 A  
HETATM   28  C   UNL     1      -9.584  17.986  66.523  1.00  0.00    -0.318 A  
HETATM   29  C   UNL     1      -8.706  17.701  67.577  1.00  0.00    -0.234 A  
HETATM   30 CL   UNL     1      -7.852  19.048  68.235  1.00  0.00    -0.334 Cl 
HETATM   31  C   UNL     1      -8.558  16.388  68.038  1.00  0.00    -0.185 A  
HETATM   32  C   UNL     1      -9.356  15.379  67.446  1.00  0.00    -0.205 A  
HETATM   33  C   UNL     1      -7.571  15.969  69.099  1.00  0.00    -0.225 C  
HETATM   34  F   UNL     1      -8.181  15.414  70.183  1.00  0.00    -0.124 F  
HETATM   35  F   UNL     1      -6.716  15.009  68.632  1.00  0.00    -0.088 F  
HETATM   36  F   UNL     1      -6.764  16.944  69.594  1.00  0.00    -0.233 F  
ENDBRANCH  24  26
ENDBRANCH  22  24
ENDBRANCH  20  22
ENDBRANCH  17  20
ENDBRANCH  12  13
ENDBRANCH   8  12
ENDBRANCH   3   6
TORSDOF 7
ENDMDL
MODEL      232
REMARK 921   NORMALIZED FREE ENERGY PREDICTED BY IDOCK:   -4.69 KCAL/MOL
REMARK 922        TOTAL FREE ENERGY PREDICTED BY IDOCK:   -8.60 KCAL/MOL
REMARK 923 INTER-LIGAND FREE ENERGY PREDICTED BY IDOCK:   -7.58 KCAL/MOL
REMARK 924 INTRA-LIGAND FREE ENERGY PREDICTED BY IDOCK:   -1.03 KCAL/MOL
REMARK 927      BINDING AFFINITY PREDICTED BY RF-SCORE:    0.00 PKD
ROOT
HETATM    1  C   UNL     1      -9.390   3.081  67.884  1.00  0.00    -0.204 C  
HETATM    2  N   UNL     1      -9.364   4.487  67.591  1.00  0.00    -0.138 N  
HETATM    3  C   UNL     1      -9.904   5.407  68.464  1.00  0.00    -0.146 C  
HETATM    4  H   UNL     1      -8.939   4.811  66.722  1.00  0.00     0.000 HD 
HETATM    5  O   UNL     1     -10.387   5.109  69.551  1.00  0.00    -0.251 OA 
ENDROOT
BRANCH   3   6
HETATM    6  C   UNL     1      -9.872   6.828  67.992  1.00  0.00    -0.136 A  
HETATM    7  C   UNL     1      -9.677   7.835  68.927  1.00  0.00    -0.160 A  
HETATM    8  C   UNL     1      -9.609   9.144  68.468  1.00  0.00    -0.148 A  
HETATM    9  C   UNL     1      -9.798   9.408  67.115  1.00  0.00    -0.242 A  
HETATM   10  N   UNL     1     -10.039   7.047  66.658  1.00  0.00    -0.182 NA 
HETATM   11  C   UNL     1     -10.004   8.337  66.258  1.00  0.00    -0.109 A  
BRANCH   8  12
HETATM   12  O   UNL     1      -9.439  10.232  69.293  1.00  0.00    -0.198 OA 
BRANCH  12  13
HETATM   13  C   UNL     1      -9.986  11.447  68.939  1.00  0.00    -0.131 A  
HETATM   14  C   UNL     1      -9.112  12.374  68.369  1.00  0.00    -0.141 A  
HETATM   15  C   UNL     1      -9.578  13.642  68.034  1.00  0.00    -0.216 A  
HETATM   16  F   UNL     1      -8.730  14.534  67.500  1.00  0.00    -0.155 F  
HETATM   17  C   UNL     1     -10.893  14.022  68.313  1.00  0.00    -0.255 A  
HETATM   18  C   UNL     1     -11.312  11.810  69.200  1.00  0.00    -0.340 A  
HETATM   19  C   UNL     1     -11.768  13.094  68.881  1.00  0.00    -0.368 A  
BRANCH  17  20
HETATM   20  N   UNL     1     -11.303  15.345  68.031  1.00  0.00    -0.339 N  
HETATM   21  H   UNL     1     -11.667  15.577  67.106  1.00  0.00     0.000 HD 
BRANCH  20  22
HETATM   22  C   UNL     1     -11.213  16.330  69.005  1.00  0.00    -0.326 C  
HETATM   23  O   UNL     1     -11.075  16.115  70.207  1.00  0.00    -0.348 OA 
BRANCH  22  24
HETATM   24  N   UNL     1     -11.311  17.589  68.444  1.00  0.00     0.092 N  
HETATM   25  H   UNL     1     -12.197  18.090  68.501  1.00  0.00     0.000 HD 
BRANCH  24  26
HETATM   26  C   UNL     1     -10.219  18.197  67.796  1.00  0.00    -0.383 A  
HETATM   27  C   UNL     1     -10.476  19.135  66.801  1.00  0.00    -0.524 A  
HETATM   28  C   UNL     1      -9.413  19.751  66.141  1.00  0.00    -0.464 A  
HETATM   29  C   UNL     1      -8.088  19.385  66.415  1.00  0.00    -0.318 A  
HETATM   30 CL   UNL     1      -6.874  20.206  65.506  1.00  0.00    -0.311 Cl 
HETATM   31  C   UNL     1      -7.810  18.405  67.375  1.00  0.00    -0.237 A  
HETATM   32  C   UNL     1      -8.896  17.843  68.089  1.00  0.00    -0.265 A  
HETATM   33  C   UNL     1      -6.428  17.878  67.671  1.00  0.00    -0.179 C  
HETATM   34  F   UNL     1      -6.060  18.089  68.965  1.00  0.00    -0.189 F  
HETATM   35  F   UNL     1      -6.363  16.524  67.490  1.00  0.00    -0.124 F  
HETATM   36  F   UNL     1      -5.415  18.380  66.917  1.00  0.00    -0.138 F  
ENDBRANCH  24  26
ENDBRANCH  22  24
ENDBRANCH  20  22
ENDBRANCH  17  20
ENDBRANCH  12  13
ENDBRANCH   8  12
ENDBRANCH   3   6
TORSDOF 7
ENDMDL
MODEL      233
REMARK 921   NORMALIZED FREE ENERGY PREDICTED BY IDOCK:   -4.68 KCAL/MOL
REMARK 922        TOTAL FREE ENERGY PREDICTED BY IDOCK:   -8.58 KCAL/MOL
REMARK 923 INTER-LIGAND FREE ENERGY PREDICTED BY IDOCK:   -7.62 KCAL/MOL
REMARK 924 INTRA-LIGAND FREE ENERGY PREDICTED BY IDOCK:   -0.96 KCAL/MOL
REMARK 927      BINDING AFFINITY PREDICTED BY RF-SCORE:    0.00 PKD
ROOT
HETATM    1  C   UNL     1     -10.704  19.382  65.803  1.00  0.00    -0.365 C  
HETATM    2  N   UNL     1      -9.854  18.591  66.649  1.00  0.00    -0.335 N  
HETATM    3  C   UNL     1      -8.485  18.595  66.487  1.00  0.00    -0.291 C  
HETATM    4  H   UNL     1     -10.270  18.017  67.382  1.00  0.00     0.000 HD 
HETATM    5  O   UNL     1      -7.900  19.294  65.666  1.00  0.00    -0.445 OA 
ENDROOT
BRANCH   3   6
HETATM    6  C   UNL     1      -7.735  17.666  67.391  1.00  0.00    -0.200 A  
HETATM    7  C   UNL     1      -7.365  16.419  66.905  1.00  0.00    -0.269 A  
HETATM    8  C   UNL     1      -6.635  15.585  67.741  1.00  0.00    -0.159 A  
HETATM    9  C   UNL     1      -6.354  15.993  69.042  1.00  0.00    -0.140 A  
HETATM   10  N   UNL     1      -7.458  18.106  68.650  1.00  0.00    -0.285 NA 
HETATM   11  C   UNL     1      -6.779  17.250  69.444  1.00  0.00    -0.193 A  
BRANCH   8  12
HETATM   12  O   UNL     1      -6.226  14.320  67.386  1.00  0.00    -0.335 OA 
BRANCH  12  13
HETATM   13  C   UNL     1      -6.937  13.226  67.832  1.00  0.00    -0.137 A  
HETATM   14  C   UNL     1      -8.303  13.219  67.543  1.00  0.00    -0.186 A  
HETATM   15  C   UNL     1      -9.097  12.174  68.007  1.00  0.00    -0.190 A  
HETATM   16  F   UNL     1     -10.412  12.179  67.739  1.00  0.00    -0.194 F  
HETATM   17  C   UNL     1      -8.561  11.162  68.807  1.00  0.00    -0.132 A  
HETATM   18  C   UNL     1      -6.385  12.204  68.612  1.00  0.00    -0.063 A  
HETATM   19  C   UNL     1      -7.194  11.168  69.094  1.00  0.00    -0.123 A  
BRANCH  17  20
HETATM   20  N   UNL     1      -9.418  10.164  69.323  1.00  0.00    -0.208 N  
HETATM   21  H   UNL     1      -9.824  10.274  70.252  1.00  0.00     0.000 HD 
BRANCH  20  22
HETATM   22  C   UNL     1      -9.709   9.033  68.571  1.00  0.00    -0.159 C  
HETATM   23  O   UNL     1      -8.987   8.573  67.690  1.00  0.00    -0.135 OA 
BRANCH  22  24
HETATM   24  N   UNL     1     -10.929   8.498  68.938  1.00  0.00    -0.429 N  
HETATM   25  H   UNL     1     -11.770   8.793  68.443  1.00  0.00     0.000 HD 
BRANCH  24  26
HETATM   26  C   UNL     1     -11.041   7.556  69.979  1.00  0.00    -0.204 A  
HETATM   27  C   UNL     1     -11.815   7.880  71.089  1.00  0.00    -0.307 A  
HETATM   28  C   UNL     1     -11.939   6.967  72.135  1.00  0.00    -0.299 A  
HETATM   29  C   UNL     1     -11.238   5.755  72.118  1.00  0.00    -0.269 A  
HETATM   30 CL   UNL     1     -11.463   4.731  73.488  1.00  0.00    -0.351 Cl 
HETATM   31  C   UNL     1     -10.412   5.432  71.035  1.00  0.00    -0.302 A  
HETATM   32  C   UNL     1     -10.354   6.336  69.947  1.00  0.00    -0.249 A  
HETATM   33  C   UNL     1      -9.546   4.198  70.969  1.00  0.00    -0.183 C  
HETATM   34  F   UNL     1      -9.864   3.398  69.914  1.00  0.00    -0.248 F  
HETATM   35  F   UNL     1      -8.229   4.524  70.795  1.00  0.00    -0.073 F  
HETATM   36  F   UNL     1      -9.563   3.387  72.060  1.00  0.00    -0.161 F  
ENDBRANCH  24  26
ENDBRANCH  22  24
ENDBRANCH  20  22
ENDBRANCH  17  20
ENDBRANCH  12  13
ENDBRANCH   8  12
ENDBRANCH   3   6
TORSDOF 7
ENDMDL
MODEL      234
REMARK 921   NORMALIZED FREE ENERGY PREDICTED BY IDOCK:   -4.67 KCAL/MOL
REMARK 922        TOTAL FREE ENERGY PREDICTED BY IDOCK:   -8.57 KCAL/MOL
REMARK 923 INTER-LIGAND FREE ENERGY PREDICTED BY IDOCK:   -7.69 KCAL/MOL
REMARK 924 INTRA-LIGAND FREE ENERGY PREDICTED BY IDOCK:   -0.88 KCAL/MOL
REMARK 927      BINDING AFFINITY PREDICTED BY RF-SCORE:    0.00 PKD
ROOT
HETATM    1  C   UNL     1      -6.800   1.790  68.427  1.00  0.00    -0.032 C  
HETATM    2  N   UNL     1      -6.904   2.982  67.632  1.00  0.00    -0.048 N  
HETATM    3  C   UNL     1      -6.934   4.230  68.218  1.00  0.00    -0.052 C  
HETATM    4  H   UNL     1      -6.956   2.905  66.616  1.00  0.00     0.000 HD 
HETATM    5  O   UNL     1      -6.824   4.415  69.425  1.00  0.00    -0.044 OA 
ENDROOT
BRANCH   3   6
HETATM    6  C   UNL     1      -7.120   5.374  67.270  1.00  0.00    -0.070 A  
HETATM    7  C   UNL     1      -8.351   6.014  67.233  1.00  0.00    -0.105 A  
HETATM    8  C   UNL     1      -8.495   7.099  66.379  1.00  0.00    -0.130 A  
HETATM    9  C   UNL     1      -7.438   7.467  65.553  1.00  0.00    -0.084 A  
HETATM   10  N   UNL     1      -6.057   5.721  66.493  1.00  0.00    -0.025 NA 
HETATM   11  C   UNL     1      -6.250   6.758  65.648  1.00  0.00    -0.039 A  
BRANCH   8  12
HETATM   12  O   UNL     1      -9.668   7.803  66.235  1.00  0.00    -0.176 OA 
BRANCH  12  13
HETATM   13  C   UNL     1      -9.679   9.162  66.471  1.00  0.00    -0.241 A  
HETATM   14  C   UNL     1      -9.992   9.976  65.381  1.00  0.00    -0.364 A  
HETATM   15  C   UNL     1      -9.970  11.360  65.529  1.00  0.00    -0.239 A  
HETATM   16  F   UNL     1     -10.257  12.137  64.474  1.00  0.00    -0.277 F  
HETATM   17  C   UNL     1      -9.584  11.949  66.734  1.00  0.00    -0.204 A  
HETATM   18  C   UNL     1      -9.314   9.743  67.692  1.00  0.00    -0.157 A  
HETATM   19  C   UNL     1      -9.273  11.135  67.826  1.00  0.00    -0.153 A  
BRANCH  17  20
HETATM   20  N   UNL     1      -9.498  13.358  66.818  1.00  0.00    -0.255 N  
HETATM   21  H   UNL     1      -8.623  13.797  67.103  1.00  0.00     0.000 HD 
BRANCH  20  22
HETATM   22  C   UNL     1     -10.600  14.146  66.513  1.00  0.00    -0.282 C  
HETATM   23  O   UNL     1     -10.642  14.969  65.602  1.00  0.00    -0.303 OA 
BRANCH  22  24
HETATM   24  N   UNL     1     -11.645  13.888  67.380  1.00  0.00    -0.347 N  
HETATM   25  H   UNL     1     -12.397  13.268  67.081  1.00  0.00     0.000 HD 
BRANCH  24  26
HETATM   26  C   UNL     1     -11.697  14.459  68.667  1.00  0.00    -0.332 A  
HETATM   27  C   UNL     1     -10.979  15.627  68.904  1.00  0.00    -0.266 A  
HETATM   28  C   UNL     1     -11.011  16.212  70.170  1.00  0.00    -0.359 A  
HETATM   29  C   UNL     1     -11.699  15.601  71.227  1.00  0.00    -0.422 A  
HETATM   30 CL   UNL     1     -11.633  16.418  72.744  1.00  0.00    -0.339 Cl 
HETATM   31  C   UNL     1     -12.383  14.398  71.022  1.00  0.00    -0.427 A  
HETATM   32  C   UNL     1     -12.403  13.855  69.714  1.00  0.00    -0.330 A  
HETATM   33  C   UNL     1     -13.070  13.617  72.115  1.00  0.00    -0.396 C  
HETATM   34  F   UNL     1     -14.405  13.470  71.887  1.00  0.00    -0.426 F  
HETATM   35  F   UNL     1     -12.574  12.346  72.206  1.00  0.00    -0.192 F  
HETATM   36  F   UNL     1     -12.970  14.122  73.374  1.00  0.00    -0.579 F  
ENDBRANCH  24  26
ENDBRANCH  22  24
ENDBRANCH  20  22
ENDBRANCH  17  20
ENDBRANCH  12  13
ENDBRANCH   8  12
ENDBRANCH   3   6
TORSDOF 7
ENDMDL
MODEL      235
REMARK 921   NORMALIZED FREE ENERGY PREDICTED BY IDOCK:   -4.66 KCAL/MOL
REMARK 922        TOTAL FREE ENERGY PREDICTED BY IDOCK:   -8.55 KCAL/MOL
REMARK 923 INTER-LIGAND FREE ENERGY PREDICTED BY IDOCK:   -7.61 KCAL/MOL
REMARK 924 INTRA-LIGAND FREE ENERGY PREDICTED BY IDOCK:   -0.94 KCAL/MOL
REMARK 927      BINDING AFFINITY PREDICTED BY RF-SCORE:    0.00 PKD
ROOT
HETATM    1  C   UNL     1      -6.876   3.645  67.140  1.00  0.00    -0.050 C  
HETATM    2  N   UNL     1      -6.687   4.808  66.317  1.00  0.00    -0.049 N  
HETATM    3  C   UNL     1      -7.431   5.951  66.516  1.00  0.00    -0.087 C  
HETATM    4  H   UNL     1      -5.989   4.787  65.573  1.00  0.00     0.000 HD 
HETATM    5  O   UNL     1      -8.251   6.078  67.419  1.00  0.00    -0.106 OA 
ENDROOT
BRANCH   3   6
HETATM    6  C   UNL     1      -7.177   7.055  65.536  1.00  0.00    -0.070 A  
HETATM    7  C   UNL     1      -8.264   7.690  64.954  1.00  0.00    -0.098 A  
HETATM    8  C   UNL     1      -8.013   8.739  64.079  1.00  0.00    -0.156 A  
HETATM    9  C   UNL     1      -6.698   9.074  63.769  1.00  0.00    -0.089 A  
HETATM   10  N   UNL     1      -5.878   7.370  65.273  1.00  0.00    -0.037 NA 
HETATM   11  C   UNL     1      -5.676   8.370  64.388  1.00  0.00    -0.060 A  
BRANCH   8  12
HETATM   12  O   UNL     1      -9.001   9.436  63.422  1.00  0.00    -0.223 OA 
BRANCH  12  13
HETATM   13  C   UNL     1      -9.554  10.552  64.013  1.00  0.00    -0.311 A  
HETATM   14  C   UNL     1     -10.482  11.260  63.248  1.00  0.00    -0.370 A  
HETATM   15  C   UNL     1     -11.043  12.428  63.756  1.00  0.00    -0.445 A  
HETATM   16  F   UNL     1     -11.924  13.112  63.010  1.00  0.00    -0.595 F  
HETATM   17  C   UNL     1     -10.648  12.937  64.995  1.00  0.00    -0.315 A  
HETATM   18  C   UNL     1      -9.169  11.040  65.268  1.00  0.00    -0.229 A  
HETATM   19  C   UNL     1      -9.721  12.228  65.762  1.00  0.00    -0.228 A  
BRANCH  17  20
HETATM   20  N   UNL     1     -11.183  14.168  65.438  1.00  0.00    -0.315 N  
HETATM   21  H   UNL     1     -10.696  15.039  65.224  1.00  0.00     0.000 HD 
BRANCH  20  22
HETATM   22  C   UNL     1     -12.367  14.197  66.162  1.00  0.00    -0.436 C  
HETATM   23  O   UNL     1     -13.482  13.990  65.689  1.00  0.00    -0.604 OA 
BRANCH  22  24
HETATM   24  N   UNL     1     -12.127  14.502  67.488  1.00  0.00    -0.591 N  
HETATM   25  H   UNL     1     -12.734  14.108  68.206  1.00  0.00     0.000 HD 
BRANCH  24  26
HETATM   26  C   UNL     1     -11.065  15.343  67.874  1.00  0.00    -0.323 A  
HETATM   27  C   UNL     1     -11.309  16.707  67.995  1.00  0.00    -0.052 A  
HETATM   28  C   UNL     1     -10.275  17.563  68.371  1.00  0.00    -0.372 A  
HETATM   29  C   UNL     1      -8.974  17.079  68.561  1.00  0.00    -0.263 A  
HETATM   30 CL   UNL     1      -7.786  18.251  68.999  1.00  0.00    -0.194 Cl 
HETATM   31  C   UNL     1      -8.696  15.718  68.392  1.00  0.00    -0.177 A  
HETATM   32  C   UNL     1      -9.771  14.850  68.082  1.00  0.00    -0.214 A  
HETATM   33  C   UNL     1      -7.314  15.118  68.480  1.00  0.00    -0.119 C  
HETATM   34  F   UNL     1      -7.218  14.180  69.463  1.00  0.00    -0.125 F  
HETATM   35  F   UNL     1      -6.979  14.469  67.324  1.00  0.00    -0.200 F  
HETATM   36  F   UNL     1      -6.291  15.985  68.703  1.00  0.00    -0.109 F  
ENDBRANCH  24  26
ENDBRANCH  22  24
ENDBRANCH  20  22
ENDBRANCH  17  20
ENDBRANCH  12  13
ENDBRANCH   8  12
ENDBRANCH   3   6
TORSDOF 7
ENDMDL
MODEL      236
REMARK 921   NORMALIZED FREE ENERGY PREDICTED BY IDOCK:   -4.62 KCAL/MOL
REMARK 922        TOTAL FREE ENERGY PREDICTED BY IDOCK:   -8.49 KCAL/MOL
REMARK 923 INTER-LIGAND FREE ENERGY PREDICTED BY IDOCK:   -7.51 KCAL/MOL
REMARK 924 INTRA-LIGAND FREE ENERGY PREDICTED BY IDOCK:   -0.98 KCAL/MOL
REMARK 927      BINDING AFFINITY PREDICTED BY RF-SCORE:    0.00 PKD
ROOT
HETATM    1  C   UNL     1     -13.185   8.422  71.593  1.00  0.00    -0.339 C  
HETATM    2  N   UNL     1     -11.923   7.856  71.202  1.00  0.00    -0.308 N  
HETATM    3  C   UNL     1     -10.931   7.617  72.130  1.00  0.00    -0.257 C  
HETATM    4  H   UNL     1     -11.758   7.627  70.222  1.00  0.00     0.000 HD 
HETATM    5  O   UNL     1     -11.066   7.814  73.333  1.00  0.00    -0.316 OA 
ENDROOT
BRANCH   3   6
HETATM    6  C   UNL     1      -9.645   7.096  71.567  1.00  0.00    -0.157 A  
HETATM    7  C   UNL     1      -9.478   7.087  70.189  1.00  0.00    -0.162 A  
HETATM    8  C   UNL     1      -8.264   6.639  69.684  1.00  0.00    -0.127 A  
HETATM    9  C   UNL     1      -7.292   6.162  70.558  1.00  0.00    -0.085 A  
HETATM   10  N   UNL     1      -8.708   6.657  72.452  1.00  0.00    -0.129 NA 
HETATM   11  C   UNL     1      -7.556   6.194  71.918  1.00  0.00    -0.096 A  
BRANCH   8  12
HETATM   12  O   UNL     1      -7.981   6.563  68.340  1.00  0.00    -0.107 OA 
BRANCH  12  13
HETATM   13  C   UNL     1      -8.249   7.642  67.526  1.00  0.00    -0.121 A  
HETATM   14  C   UNL     1      -8.130   7.424  66.152  1.00  0.00    -0.117 A  
HETATM   15  C   UNL     1      -8.332   8.480  65.268  1.00  0.00    -0.159 A  
HETATM   16  F   UNL     1      -8.202   8.268  63.950  1.00  0.00    -0.152 F  
HETATM   17  C   UNL     1      -8.593   9.770  65.736  1.00  0.00    -0.135 A  
HETATM   18  C   UNL     1      -8.535   8.927  68.004  1.00  0.00    -0.126 A  
HETATM   19  C   UNL     1      -8.714   9.988  67.110  1.00  0.00    -0.132 A  
BRANCH  17  20
HETATM   20  N   UNL     1      -8.712  10.830  64.808  1.00  0.00    -0.297 N  
HETATM   21  H   UNL     1      -7.970  11.526  64.734  1.00  0.00     0.000 HD 
BRANCH  20  22
HETATM   22  C   UNL     1      -9.835  10.928  63.997  1.00  0.00    -0.322 C  
HETATM   23  O   UNL     1      -9.861  10.653  62.800  1.00  0.00    -0.303 OA 
BRANCH  22  24
HETATM   24  N   UNL     1     -10.923  11.388  64.715  1.00  0.00    -0.272 N  
HETATM   25  H   UNL     1     -11.749  10.796  64.798  1.00  0.00     0.000 HD 
BRANCH  24  26
HETATM   26  C   UNL     1     -10.920  12.653  65.334  1.00  0.00    -0.286 A  
HETATM   27  C   UNL     1     -10.485  13.751  64.599  1.00  0.00    -0.433 A  
HETATM   28  C   UNL     1     -10.468  15.015  65.188  1.00  0.00    -0.438 A  
HETATM   29  C   UNL     1     -10.816  15.184  66.535  1.00  0.00    -0.317 A  
HETATM   30 CL   UNL     1     -10.725  16.796  67.143  1.00  0.00    -0.246 Cl 
HETATM   31  C   UNL     1     -11.205  14.084  67.307  1.00  0.00    -0.328 A  
HETATM   32  C   UNL     1     -11.288  12.820  66.675  1.00  0.00    -0.364 A  
HETATM   33  C   UNL     1     -11.505  14.149  68.785  1.00  0.00    -0.299 C  
HETATM   34  F   UNL     1     -12.781  13.769  69.072  1.00  0.00    -0.206 F  
HETATM   35  F   UNL     1     -10.703  13.298  69.493  1.00  0.00    -0.132 F  
HETATM   36  F   UNL     1     -11.343  15.360  69.381  1.00  0.00    -0.239 F  
ENDBRANCH  24  26
ENDBRANCH  22  24
ENDBRANCH  20  22
ENDBRANCH  17  20
ENDBRANCH  12  13
ENDBRANCH   8  12
ENDBRANCH   3   6
TORSDOF 7
ENDMDL
MODEL      237
REMARK 921   NORMALIZED FREE ENERGY PREDICTED BY IDOCK:   -4.60 KCAL/MOL
REMARK 922        TOTAL FREE ENERGY PREDICTED BY IDOCK:   -8.47 KCAL/MOL
REMARK 923 INTER-LIGAND FREE ENERGY PREDICTED BY IDOCK:   -7.59 KCAL/MOL
REMARK 924 INTRA-LIGAND FREE ENERGY PREDICTED BY IDOCK:   -0.88 KCAL/MOL
REMARK 927      BINDING AFFINITY PREDICTED BY RF-SCORE:    0.00 PKD
ROOT
HETATM    1  C   UNL     1     -11.845  15.367  68.087  1.00  0.00    -0.160 C  
HETATM    2  N   UNL     1     -11.705  14.582  66.891  1.00  0.00    -0.385 N  
HETATM    3  C   UNL     1     -11.886  13.216  66.910  1.00  0.00    -0.386 C  
HETATM    4  H   UNL     1     -11.467  15.044  66.014  1.00  0.00     0.000 HD 
HETATM    5  O   UNL     1     -12.223  12.590  67.910  1.00  0.00    -0.352 OA 
ENDROOT
BRANCH   3   6
HETATM    6  C   UNL     1     -11.634  12.522  65.607  1.00  0.00    -0.389 A  
HETATM    7  C   UNL     1     -10.568  11.638  65.520  1.00  0.00    -0.329 A  
HETATM    8  C   UNL     1     -10.372  10.971  64.318  1.00  0.00    -0.364 A  
HETATM    9  C   UNL     1     -11.198  11.253  63.234  1.00  0.00    -0.015 A  
HETATM   10  N   UNL     1     -12.476  12.805  64.575  1.00  0.00    -0.588 NA 
HETATM   11  C   UNL     1     -12.228  12.165  63.412  1.00  0.00    -0.530 A  
BRANCH   8  12
HETATM   12  O   UNL     1      -9.341  10.087  64.097  1.00  0.00    -0.262 OA 
BRANCH  12  13
HETATM   13  C   UNL     1      -8.861   9.328  65.143  1.00  0.00    -0.198 A  
HETATM   14  C   UNL     1      -9.819   8.692  65.936  1.00  0.00    -0.073 A  
HETATM   15  C   UNL     1      -9.413   7.952  67.042  1.00  0.00    -0.174 A  
HETATM   16  F   UNL     1     -10.339   7.356  67.809  1.00  0.00    -0.198 F  
HETATM   17  C   UNL     1      -8.068   7.883  67.408  1.00  0.00    -0.123 A  
HETATM   18  C   UNL     1      -7.506   9.244  65.487  1.00  0.00    -0.090 A  
HETATM   19  C   UNL     1      -7.109   8.516  66.614  1.00  0.00    -0.077 A  
BRANCH  17  20
HETATM   20  N   UNL     1      -7.707   7.187  68.584  1.00  0.00    -0.117 N  
HETATM   21  H   UNL     1      -8.077   6.251  68.754  1.00  0.00     0.000 HD 
BRANCH  20  22
HETATM   22  C   UNL     1      -6.851   7.770  69.509  1.00  0.00    -0.047 C  
HETATM   23  O   UNL     1      -5.635   7.877  69.367  1.00  0.00    -0.026 OA 
BRANCH  22  24
HETATM   24  N   UNL     1      -7.548   8.207  70.619  1.00  0.00    -0.071 N  
HETATM   25  H   UNL     1      -7.392   9.154  70.962  1.00  0.00     0.000 HD 
BRANCH  24  26
HETATM   26  C   UNL     1      -8.468   7.377  71.288  1.00  0.00    -0.114 A  
HETATM   27  C   UNL     1      -7.997   6.219  71.899  1.00  0.00    -0.102 A  
HETATM   28  C   UNL     1      -8.887   5.378  72.566  1.00  0.00    -0.130 A  
HETATM   29  C   UNL     1     -10.262   5.645  72.569  1.00  0.00    -0.190 A  
HETATM   30 CL   UNL     1     -11.252   4.509  73.409  1.00  0.00    -0.399 Cl 
HETATM   31  C   UNL     1     -10.764   6.776  71.915  1.00  0.00    -0.250 A  
HETATM   32  C   UNL     1      -9.840   7.660  71.306  1.00  0.00    -0.187 A  
HETATM   33  C   UNL     1     -12.232   7.097  71.782  1.00  0.00    -0.344 C  
HETATM   34  F   UNL     1     -12.556   8.290  72.354  1.00  0.00    -0.347 F  
HETATM   35  F   UNL     1     -12.599   7.211  70.469  1.00  0.00    -0.289 F  
HETATM   36  F   UNL     1     -13.099   6.193  72.309  1.00  0.00    -0.284 F  
ENDBRANCH  24  26
ENDBRANCH  22  24
ENDBRANCH  20  22
ENDBRANCH  17  20
ENDBRANCH  12  13
ENDBRANCH   8  12
ENDBRANCH   3   6
TORSDOF 7
ENDMDL
MODEL      238
REMARK 921   NORMALIZED FREE ENERGY PREDICTED BY IDOCK:   -4.60 KCAL/MOL
REMARK 922        TOTAL FREE ENERGY PREDICTED BY IDOCK:   -8.47 KCAL/MOL
REMARK 923 INTER-LIGAND FREE ENERGY PREDICTED BY IDOCK:   -7.18 KCAL/MOL
REMARK 924 INTRA-LIGAND FREE ENERGY PREDICTED BY IDOCK:   -1.29 KCAL/MOL
REMARK 927      BINDING AFFINITY PREDICTED BY RF-SCORE:    0.00 PKD
ROOT
HETATM    1  C   UNL     1     -13.008   7.942  71.811  1.00  0.00    -0.325 C  
HETATM    2  N   UNL     1     -11.601   8.014  71.531  1.00  0.00    -0.266 N  
HETATM    3  C   UNL     1     -10.676   7.439  72.376  1.00  0.00    -0.253 C  
HETATM    4  H   UNL     1     -11.280   8.500  70.694  1.00  0.00     0.000 HD 
HETATM    5  O   UNL     1     -10.977   6.794  73.375  1.00  0.00    -0.266 OA 
ENDROOT
BRANCH   3   6
HETATM    6  C   UNL     1      -9.244   7.660  71.997  1.00  0.00    -0.138 A  
HETATM    7  C   UNL     1      -8.703   6.900  70.969  1.00  0.00    -0.136 A  
HETATM    8  C   UNL     1      -7.386   7.145  70.602  1.00  0.00    -0.075 A  
HETATM    9  C   UNL     1      -6.641   8.086  71.307  1.00  0.00    -0.042 A  
HETATM   10  N   UNL     1      -8.551   8.604  72.693  1.00  0.00    -0.407 NA 
HETATM   11  C   UNL     1      -7.263   8.785  72.331  1.00  0.00     0.101 A  
BRANCH   8  12
HETATM   12  O   UNL     1      -6.729   6.448  69.615  1.00  0.00    -0.049 OA 
BRANCH  12  13
HETATM   13  C   UNL     1      -6.846   6.854  68.303  1.00  0.00    -0.074 A  
HETATM   14  C   UNL     1      -7.922   6.326  67.586  1.00  0.00    -0.113 A  
HETATM   15  C   UNL     1      -8.074   6.647  66.240  1.00  0.00    -0.115 A  
HETATM   16  F   UNL     1      -9.102   6.125  65.553  1.00  0.00    -0.155 F  
HETATM   17  C   UNL     1      -7.136   7.442  65.579  1.00  0.00    -0.061 A  
HETATM   18  C   UNL     1      -5.913   7.673  67.655  1.00  0.00    -0.040 A  
HETATM   19  C   UNL     1      -6.062   7.973  66.296  1.00  0.00    -0.045 A  
BRANCH  17  20
HETATM   20  N   UNL     1      -7.286   7.679  64.194  1.00  0.00    -0.087 N  
HETATM   21  H   UNL     1      -7.271   6.895  63.540  1.00  0.00     0.000 HD 
BRANCH  20  22
HETATM   22  C   UNL     1      -7.453   8.973  63.718  1.00  0.00    -0.107 C  
HETATM   23  O   UNL     1      -6.542   9.778  63.543  1.00  0.00    -0.106 OA 
BRANCH  22  24
HETATM   24  N   UNL     1      -8.787   9.240  63.476  1.00  0.00    -0.389 N  
HETATM   25  H   UNL     1      -9.241   8.812  62.670  1.00  0.00     0.000 HD 
BRANCH  24  26
HETATM   26  C   UNL     1      -9.536  10.089  64.315  1.00  0.00    -0.273 A  
HETATM   27  C   UNL     1      -9.326  10.018  65.688  1.00  0.00    -0.257 A  
HETATM   28  C   UNL     1     -10.056  10.844  66.542  1.00  0.00    -0.269 A  
HETATM   29  C   UNL     1     -11.050  11.695  66.042  1.00  0.00    -0.270 A  
HETATM   30 CL   UNL     1     -11.894  12.642  67.211  1.00  0.00    -0.428 Cl 
HETATM   31  C   UNL     1     -11.314  11.743  64.668  1.00  0.00    -0.320 A  
HETATM   32  C   UNL     1     -10.514  10.952  63.807  1.00  0.00    -0.329 A  
HETATM   33  C   UNL     1     -12.424  12.553  64.046  1.00  0.00    -0.435 C  
HETATM   34  F   UNL     1     -11.958  13.476  63.160  1.00  0.00    -0.500 F  
HETATM   35  F   UNL     1     -13.278  11.759  63.329  1.00  0.00    -0.614 F  
HETATM   36  F   UNL     1     -13.224  13.241  64.902  1.00  0.00    -0.331 F  
ENDBRANCH  24  26
ENDBRANCH  22  24
ENDBRANCH  20  22
ENDBRANCH  17  20
ENDBRANCH  12  13
ENDBRANCH   8  12
ENDBRANCH   3   6
TORSDOF 7
ENDMDL
MODEL      239
REMARK 921   NORMALIZED FREE ENERGY PREDICTED BY IDOCK:   -4.60 KCAL/MOL
REMARK 922        TOTAL FREE ENERGY PREDICTED BY IDOCK:   -8.46 KCAL/MOL
REMARK 923 INTER-LIGAND FREE ENERGY PREDICTED BY IDOCK:   -7.15 KCAL/MOL
REMARK 924 INTRA-LIGAND FREE ENERGY PREDICTED BY IDOCK:   -1.31 KCAL/MOL
REMARK 927      BINDING AFFINITY PREDICTED BY RF-SCORE:    0.00 PKD
ROOT
HETATM    1  C   UNL     1     -12.480  16.029  72.119  1.00  0.00    -0.454 C  
HETATM    2  N   UNL     1     -12.281  15.032  71.104  1.00  0.00    -0.295 N  
HETATM    3  C   UNL     1     -11.581  15.318  69.951  1.00  0.00    -0.311 C  
HETATM    4  H   UNL     1     -12.664  14.097  71.238  1.00  0.00     0.000 HD 
HETATM    5  O   UNL     1     -11.044  16.399  69.734  1.00  0.00    -0.338 OA 
ENDROOT
BRANCH   3   6
HETATM    6  C   UNL     1     -11.519  14.205  68.951  1.00  0.00    -0.293 A  
HETATM    7  C   UNL     1     -11.762  12.909  69.383  1.00  0.00    -0.382 A  
HETATM    8  C   UNL     1     -11.741  11.893  68.436  1.00  0.00    -0.326 A  
HETATM    9  C   UNL     1     -11.420  12.192  67.116  1.00  0.00    -0.413 A  
HETATM   10  N   UNL     1     -11.224  14.537  67.664  1.00  0.00    -0.308 NA 
HETATM   11  C   UNL     1     -11.176  13.516  66.781  1.00  0.00    -0.310 A  
BRANCH   8  12
HETATM   12  O   UNL     1     -11.945  10.567  68.739  1.00  0.00    -0.302 OA 
BRANCH  12  13
HETATM   13  C   UNL     1     -11.194   9.972  69.730  1.00  0.00    -0.258 A  
HETATM   14  C   UNL     1      -9.840   9.779  69.447  1.00  0.00    -0.217 A  
HETATM   15  C   UNL     1      -9.029   9.136  70.377  1.00  0.00    -0.229 A  
HETATM   16  F   UNL     1      -7.732   8.940  70.093  1.00  0.00    -0.062 F  
HETATM   17  C   UNL     1      -9.559   8.626  71.564  1.00  0.00    -0.257 A  
HETATM   18  C   UNL     1     -11.730   9.486  70.929  1.00  0.00    -0.391 A  
HETATM   19  C   UNL     1     -10.912   8.821  71.849  1.00  0.00    -0.435 A  
BRANCH  17  20
HETATM   20  N   UNL     1      -8.716   7.910  72.444  1.00  0.00    -0.137 N  
HETATM   21  H   UNL     1      -8.430   8.330  73.329  1.00  0.00     0.000 HD 
BRANCH  20  22
HETATM   22  C   UNL     1      -8.277   6.635  72.111  1.00  0.00    -0.105 C  
HETATM   23  O   UNL     1      -7.124   6.234  72.249  1.00  0.00    -0.080 OA 
BRANCH  22  24
HETATM   24  N   UNL     1      -9.309   5.878  71.590  1.00  0.00    -0.149 N  
HETATM   25  H   UNL     1      -9.988   5.461  72.227  1.00  0.00     0.000 HD 
BRANCH  24  26
HETATM   26  C   UNL     1      -9.447   5.668  70.205  1.00  0.00    -0.159 A  
HETATM   27  C   UNL     1     -10.725   5.492  69.684  1.00  0.00    -0.349 A  
HETATM   28  C   UNL     1     -10.890   5.278  68.316  1.00  0.00     0.187 A  
HETATM   29  C   UNL     1      -9.781   5.166  67.467  1.00  0.00    -0.151 A  
HETATM   30 CL   UNL     1     -10.128   4.876  65.803  1.00  0.00    -0.208 Cl 
HETATM   31  C   UNL     1      -8.484   5.287  67.980  1.00  0.00    -0.097 A  
HETATM   32  C   UNL     1      -8.336   5.577  69.358  1.00  0.00    -0.101 A  
HETATM   33  C   UNL     1      -7.230   5.087  67.166  1.00  0.00    -0.077 C  
HETATM   34  F   UNL     1      -6.446   6.200  67.141  1.00  0.00    -0.041 F  
HETATM   35  F   UNL     1      -6.444   4.101  67.696  1.00  0.00    -0.034 F  
HETATM   36  F   UNL     1      -7.402   4.734  65.865  1.00  0.00    -0.071 F  
ENDBRANCH  24  26
ENDBRANCH  22  24
ENDBRANCH  20  22
ENDBRANCH  17  20
ENDBRANCH  12  13
ENDBRANCH   8  12
ENDBRANCH   3   6
TORSDOF 7
ENDMDL
MODEL      240
REMARK 921   NORMALIZED FREE ENERGY PREDICTED BY IDOCK:   -4.60 KCAL/MOL
REMARK 922        TOTAL FREE ENERGY PREDICTED BY IDOCK:   -8.46 KCAL/MOL
REMARK 923 INTER-LIGAND FREE ENERGY PREDICTED BY IDOCK:   -7.96 KCAL/MOL
REMARK 924 INTRA-LIGAND FREE ENERGY PREDICTED BY IDOCK:   -0.50 KCAL/MOL
REMARK 927      BINDING AFFINITY PREDICTED BY RF-SCORE:    0.00 PKD
ROOT
HETATM    1  C   UNL     1      -6.298  18.154  68.606  1.00  0.00    -0.209 C  
HETATM    2  N   UNL     1      -7.517  17.444  68.882  1.00  0.00    -0.254 N  
HETATM    3  C   UNL     1      -8.498  17.312  67.923  1.00  0.00    -0.218 C  
HETATM    4  H   UNL     1      -7.659  17.030  69.803  1.00  0.00     0.000 HD 
HETATM    5  O   UNL     1      -8.387  17.734  66.776  1.00  0.00    -0.229 OA 
ENDROOT
BRANCH   3   6
HETATM    6  C   UNL     1      -9.742  16.613  68.376  1.00  0.00    -0.243 A  
HETATM    7  C   UNL     1     -10.311  15.660  67.543  1.00  0.00    -0.277 A  
HETATM    8  C   UNL     1     -11.441  14.991  67.996  1.00  0.00    -0.342 A  
HETATM    9  C   UNL     1     -11.996  15.336  69.224  1.00  0.00    -0.327 A  
HETATM   10  N   UNL     1     -10.246  16.960  69.593  1.00  0.00    -0.128 NA 
HETATM   11  C   UNL     1     -11.367  16.314  69.980  1.00  0.00    -0.269 A  
BRANCH   8  12
HETATM   12  O   UNL     1     -12.109  14.041  67.258  1.00  0.00    -0.409 OA 
BRANCH  12  13
HETATM   13  C   UNL     1     -11.652  12.741  67.251  1.00  0.00    -0.360 A  
HETATM   14  C   UNL     1     -11.518  12.126  68.497  1.00  0.00    -0.349 A  
HETATM   15  C   UNL     1     -11.011  10.832  68.574  1.00  0.00    -0.243 A  
HETATM   16  F   UNL     1     -10.871  10.252  69.776  1.00  0.00    -0.231 F  
HETATM   17  C   UNL     1     -10.578  10.159  67.429  1.00  0.00    -0.272 A  
HETATM   18  C   UNL     1     -11.244  12.065  66.094  1.00  0.00    -0.394 A  
HETATM   19  C   UNL     1     -10.714  10.773  66.182  1.00  0.00    -0.187 A  
BRANCH  17  20
HETATM   20  N   UNL     1      -9.996   8.878  67.560  1.00  0.00    -0.188 N  
HETATM   21  H   UNL     1     -10.253   8.281  68.347  1.00  0.00     0.000 HD 
BRANCH  20  22
HETATM   22  C   UNL     1      -9.074   8.428  66.624  1.00  0.00    -0.164 C  
HETATM   23  O   UNL     1      -7.996   8.967  66.388  1.00  0.00    -0.101 OA 
BRANCH  22  24
HETATM   24  N   UNL     1      -9.538   7.296  65.981  1.00  0.00    -0.408 N  
HETATM   25  H   UNL     1      -9.914   7.380  65.037  1.00  0.00     0.000 HD 
BRANCH  24  26
HETATM   26  C   UNL     1      -9.503   6.030  66.597  1.00  0.00    -0.149 A  
HETATM   27  C   UNL     1      -9.517   4.898  65.788  1.00  0.00    -0.172 A  
HETATM   28  C   UNL     1      -9.487   3.631  66.371  1.00  0.00    -0.184 A  
HETATM   29  C   UNL     1      -9.515   3.481  67.764  1.00  0.00    -0.178 A  
HETATM   30 CL   UNL     1      -9.501   1.859  68.350  1.00  0.00    -0.248 Cl 
HETATM   31  C   UNL     1      -9.555   4.606  68.595  1.00  0.00    -0.226 A  
HETATM   32  C   UNL     1      -9.510   5.885  67.990  1.00  0.00    -0.111 A  
HETATM   33  C   UNL     1      -9.683   4.546  70.097  1.00  0.00    -0.217 C  
HETATM   34  F   UNL     1      -8.626   5.126  70.731  1.00  0.00    -0.113 F  
HETATM   35  F   UNL     1     -10.786   5.228  70.531  1.00  0.00    -0.325 F  
HETATM   36  F   UNL     1      -9.801   3.307  70.645  1.00  0.00    -0.242 F  
ENDBRANCH  24  26
ENDBRANCH  22  24
ENDBRANCH  20  22
ENDBRANCH  17  20
ENDBRANCH  12  13
ENDBRANCH   8  12
ENDBRANCH   3   6
TORSDOF 7
ENDMDL
MODEL      241
REMARK 921   NORMALIZED FREE ENERGY PREDICTED BY IDOCK:   -4.59 KCAL/MOL
REMARK 922        TOTAL FREE ENERGY PREDICTED BY IDOCK:   -8.46 KCAL/MOL
REMARK 923 INTER-LIGAND FREE ENERGY PREDICTED BY IDOCK:   -7.70 KCAL/MOL
REMARK 924 INTRA-LIGAND FREE ENERGY PREDICTED BY IDOCK:   -0.76 KCAL/MOL
REMARK 927      BINDING AFFINITY PREDICTED BY RF-SCORE:    0.00 PKD
ROOT
HETATM    1  C   UNL     1     -10.630   3.919  64.187  1.00  0.00    -0.229 C  
HETATM    2  N   UNL     1     -10.791   4.672  65.400  1.00  0.00    -0.773 N  
HETATM    3  C   UNL     1      -9.839   4.630  66.396  1.00  0.00    -0.225 C  
HETATM    4  H   UNL     1     -11.624   5.247  65.527  1.00  0.00     0.000 HD 
HETATM    5  O   UNL     1      -8.787   4.007  66.304  1.00  0.00    -0.114 OA 
ENDROOT
BRANCH   3   6
HETATM    6  C   UNL     1     -10.177   5.404  67.633  1.00  0.00    -0.186 A  
HETATM    7  C   UNL     1     -10.454   6.759  67.514  1.00  0.00    -0.302 A  
HETATM    8  C   UNL     1     -10.806   7.455  68.663  1.00  0.00    -0.034 A  
HETATM    9  C   UNL     1     -10.808   6.797  69.889  1.00  0.00    -0.310 A  
HETATM   10  N   UNL     1     -10.191   4.724  68.812  1.00  0.00    -0.067 NA 
HETATM   11  C   UNL     1     -10.501   5.445  69.912  1.00  0.00    -0.308 A  
BRANCH   8  12
HETATM   12  O   UNL     1     -11.084   8.802  68.682  1.00  0.00     0.066 OA 
BRANCH  12  13
HETATM   13  C   UNL     1     -10.046   9.710  68.689  1.00  0.00    -0.179 A  
HETATM   14  C   UNL     1      -9.056   9.509  69.652  1.00  0.00    -0.207 A  
HETATM   15  C   UNL     1      -8.005  10.415  69.756  1.00  0.00    -0.067 A  
HETATM   16  F   UNL     1      -7.063  10.225  70.693  1.00  0.00    -0.142 F  
HETATM   17  C   UNL     1      -7.956  11.556  68.952  1.00  0.00    -0.057 A  
HETATM   18  C   UNL     1      -9.993  10.838  67.861  1.00  0.00    -0.196 A  
HETATM   19  C   UNL     1      -8.945  11.756  67.987  1.00  0.00    -0.176 A  
BRANCH  17  20
HETATM   20  N   UNL     1      -6.914  12.492  69.145  1.00  0.00    -0.249 N  
HETATM   21  H   UNL     1      -6.094  12.234  69.694  1.00  0.00     0.000 HD 
BRANCH  20  22
HETATM   22  C   UNL     1      -7.001  13.762  68.589  1.00  0.00    -0.102 C  
HETATM   23  O   UNL     1      -6.651  14.052  67.448  1.00  0.00    -0.278 OA 
BRANCH  22  24
HETATM   24  N   UNL     1      -7.528  14.661  69.497  1.00  0.00    -0.328 N  
HETATM   25  H   UNL     1      -7.354  14.522  70.492  1.00  0.00     0.000 HD 
BRANCH  24  26
HETATM   26  C   UNL     1      -8.298  15.765  69.082  1.00  0.00    -0.249 A  
HETATM   27  C   UNL     1      -9.681  15.624  69.020  1.00  0.00    -0.241 A  
HETATM   28  C   UNL     1     -10.467  16.700  68.610  1.00  0.00    -0.323 A  
HETATM   29  C   UNL     1      -9.880  17.901  68.191  1.00  0.00    -0.334 A  
HETATM   30 CL   UNL     1     -10.969  19.139  67.684  1.00  0.00    -0.455 Cl 
HETATM   31  C   UNL     1      -8.488  18.045  68.195  1.00  0.00    -0.273 A  
HETATM   32  C   UNL     1      -7.707  16.970  68.684  1.00  0.00    -0.251 A  
HETATM   33  C   UNL     1      -7.761  19.260  67.675  1.00  0.00    -0.257 C  
HETATM   34  F   UNL     1      -7.010  19.866  68.636  1.00  0.00    -0.326 F  
HETATM   35  F   UNL     1      -6.881  18.927  66.683  1.00  0.00    -0.190 F  
HETATM   36  F   UNL     1      -8.532  20.244  67.141  1.00  0.00    -0.342 F  
ENDBRANCH  24  26
ENDBRANCH  22  24
ENDBRANCH  20  22
ENDBRANCH  17  20
ENDBRANCH  12  13
ENDBRANCH   8  12
ENDBRANCH   3   6
TORSDOF 7
ENDMDL
MODEL      242
REMARK 921   NORMALIZED FREE ENERGY PREDICTED BY IDOCK:   -4.59 KCAL/MOL
REMARK 922        TOTAL FREE ENERGY PREDICTED BY IDOCK:   -8.46 KCAL/MOL
REMARK 923 INTER-LIGAND FREE ENERGY PREDICTED BY IDOCK:   -7.02 KCAL/MOL
REMARK 924 INTRA-LIGAND FREE ENERGY PREDICTED BY IDOCK:   -1.43 KCAL/MOL
REMARK 927      BINDING AFFINITY PREDICTED BY RF-SCORE:    0.00 PKD
ROOT
HETATM    1  C   UNL     1      -6.242   3.492  74.311  1.00  0.00    -0.024 C  
HETATM    2  N   UNL     1      -7.212   4.028  73.397  1.00  0.00    -0.067 N  
HETATM    3  C   UNL     1      -6.868   4.997  72.479  1.00  0.00    -0.070 C  
HETATM    4  H   UNL     1      -8.173   3.686  73.428  1.00  0.00     0.000 HD 
HETATM    5  O   UNL     1      -5.727   5.426  72.340  1.00  0.00    -0.017 OA 
ENDROOT
BRANCH   3   6
HETATM    6  C   UNL     1      -7.999   5.514  71.644  1.00  0.00    -0.117 A  
HETATM    7  C   UNL     1      -7.823   5.607  70.271  1.00  0.00    -0.098 A  
HETATM    8  C   UNL     1      -8.895   6.048  69.506  1.00  0.00    -0.125 A  
HETATM    9  C   UNL     1     -10.073   6.439  70.136  1.00  0.00    -0.209 A  
HETATM   10  N   UNL     1      -9.144   5.866  72.292  1.00  0.00    -0.142 NA 
HETATM   11  C   UNL     1     -10.149   6.327  71.516  1.00  0.00    -0.190 A  
BRANCH   8  12
HETATM   12  O   UNL     1      -8.842   6.203  68.140  1.00  0.00    -0.114 OA 
BRANCH  12  13
HETATM   13  C   UNL     1      -8.856   7.471  67.598  1.00  0.00    -0.128 A  
HETATM   14  C   UNL     1      -7.741   8.269  67.866  1.00  0.00    -0.103 A  
HETATM   15  C   UNL     1      -7.706   9.579  67.398  1.00  0.00    -0.095 A  
HETATM   16  F   UNL     1      -6.639  10.346  67.671  1.00  0.00    -0.063 F  
HETATM   17  C   UNL     1      -8.793  10.129  66.716  1.00  0.00    -0.132 A  
HETATM   18  C   UNL     1      -9.940   8.006  66.893  1.00  0.00    -0.338 A  
HETATM   19  C   UNL     1      -9.907   9.331  66.445  1.00  0.00    -0.347 A  
BRANCH  17  20
HETATM   20  N   UNL     1      -8.749  11.488  66.328  1.00  0.00    -0.244 N  
HETATM   21  H   UNL     1      -8.537  11.733  65.361  1.00  0.00     0.000 HD 
BRANCH  20  22
HETATM   22  C   UNL     1      -8.992  12.490  67.258  1.00  0.00    -0.192 C  
HETATM   23  O   UNL     1      -8.126  13.061  67.916  1.00  0.00    -0.132 OA 
BRANCH  22  24
HETATM   24  N   UNL     1     -10.345  12.754  67.354  1.00  0.00    -0.221 N  
HETATM   25  H   UNL     1     -10.857  13.035  66.518  1.00  0.00     0.000 HD 
BRANCH  24  26
HETATM   26  C   UNL     1     -11.036  12.646  68.577  1.00  0.00    -0.261 A  
HETATM   27  C   UNL     1     -11.445  11.385  68.999  1.00  0.00    -0.366 A  
HETATM   28  C   UNL     1     -12.133  11.250  70.204  1.00  0.00    -0.448 A  
HETATM   29  C   UNL     1     -12.482  12.375  70.963  1.00  0.00    -0.256 A  
HETATM   30 CL   UNL     1     -13.355  12.065  72.417  1.00  0.00    -0.327 Cl 
HETATM   31  C   UNL     1     -12.126  13.657  70.529  1.00  0.00    -0.411 A  
HETATM   32  C   UNL     1     -11.364  13.773  69.341  1.00  0.00    -0.306 A  
HETATM   33  C   UNL     1     -12.537  14.931  71.225  1.00  0.00    -0.331 C  
HETATM   34  F   UNL     1     -11.467  15.662  71.642  1.00  0.00    -0.368 F  
HETATM   35  F   UNL     1     -13.235  15.754  70.384  1.00  0.00    -0.431 F  
HETATM   36  F   UNL     1     -13.333  14.794  72.318  1.00  0.00    -0.354 F  
ENDBRANCH  24  26
ENDBRANCH  22  24
ENDBRANCH  20  22
ENDBRANCH  17  20
ENDBRANCH  12  13
ENDBRANCH   8  12
ENDBRANCH   3   6
TORSDOF 7
ENDMDL
MODEL      243
REMARK 921   NORMALIZED FREE ENERGY PREDICTED BY IDOCK:   -4.56 KCAL/MOL
REMARK 922        TOTAL FREE ENERGY PREDICTED BY IDOCK:   -8.41 KCAL/MOL
REMARK 923 INTER-LIGAND FREE ENERGY PREDICTED BY IDOCK:   -7.55 KCAL/MOL
REMARK 924 INTRA-LIGAND FREE ENERGY PREDICTED BY IDOCK:   -0.86 KCAL/MOL
REMARK 927      BINDING AFFINITY PREDICTED BY RF-SCORE:    0.00 PKD
ROOT
HETATM    1  C   UNL     1      -5.167  21.084  69.229  1.00  0.00    -0.339 C  
HETATM    2  N   UNL     1      -6.286  20.358  68.694  1.00  0.00    -0.309 N  
HETATM    3  C   UNL     1      -6.738  20.589  67.412  1.00  0.00    -0.285 C  
HETATM    4  H   UNL     1      -6.753  19.660  69.272  1.00  0.00     0.000 HD 
HETATM    5  O   UNL     1      -6.202  21.371  66.634  1.00  0.00    -0.338 OA 
ENDROOT
BRANCH   3   6
HETATM    6  C   UNL     1      -7.957  19.814  67.018  1.00  0.00    -0.289 A  
HETATM    7  C   UNL     1      -7.791  18.570  66.426  1.00  0.00    -0.296 A  
HETATM    8  C   UNL     1      -8.931  17.845  66.103  1.00  0.00    -0.095 A  
HETATM    9  C   UNL     1     -10.185  18.407  66.323  1.00  0.00    -0.427 A  
HETATM   10  N   UNL     1      -9.168  20.384  67.267  1.00  0.00    -0.391 NA 
HETATM   11  C   UNL     1     -10.251  19.664  66.904  1.00  0.00    -0.442 A  
BRANCH   8  12
HETATM   12  O   UNL     1      -8.902  16.611  65.495  1.00  0.00    -0.343 OA 
BRANCH  12  13
HETATM   13  C   UNL     1      -9.260  15.491  66.214  1.00  0.00    -0.329 A  
HETATM   14  C   UNL     1      -8.637  15.326  67.452  1.00  0.00    -0.197 A  
HETATM   15  C   UNL     1      -8.906  14.191  68.211  1.00  0.00    -0.187 A  
HETATM   16  F   UNL     1      -8.293  14.030  69.394  1.00  0.00     0.074 F  
HETATM   17  C   UNL     1      -9.746  13.185  67.729  1.00  0.00    -0.218 A  
HETATM   18  C   UNL     1     -10.123  14.499  65.732  1.00  0.00    -0.365 A  
HETATM   19  C   UNL     1     -10.372  13.351  66.491  1.00  0.00    -0.284 A  
BRANCH  17  20
HETATM   20  N   UNL     1      -9.930  12.012  68.497  1.00  0.00    -0.273 N  
HETATM   21  H   UNL     1      -9.127  11.558  68.931  1.00  0.00     0.000 HD 
BRANCH  20  22
HETATM   22  C   UNL     1     -11.200  11.476  68.662  1.00  0.00    -0.248 C  
HETATM   23  O   UNL     1     -12.134  12.045  69.223  1.00  0.00    -0.271 OA 
BRANCH  22  24
HETATM   24  N   UNL     1     -11.274  10.207  68.119  1.00  0.00    -0.482 N  
HETATM   25  H   UNL     1     -11.374  10.104  67.110  1.00  0.00     0.000 HD 
BRANCH  24  26
HETATM   26  C   UNL     1     -11.214   9.053  68.924  1.00  0.00     0.295 A  
HETATM   27  C   UNL     1     -11.297   7.808  68.308  1.00  0.00     0.710 A  
HETATM   28  C   UNL     1     -11.243   6.649  69.082  1.00  0.00    -0.305 A  
HETATM   29  C   UNL     1     -11.179   6.721  70.480  1.00  0.00    -0.320 A  
HETATM   30 CL   UNL     1     -11.145   5.212  71.314  1.00  0.00     0.015 Cl 
HETATM   31  C   UNL     1     -11.148   7.964  71.123  1.00  0.00    -0.278 A  
HETATM   32  C   UNL     1     -11.128   9.130  70.320  1.00  0.00    -0.272 A  
HETATM   33  C   UNL     1     -11.175   8.144  72.620  1.00  0.00    -0.378 C  
HETATM   34  F   UNL     1     -10.070   8.792  73.084  1.00  0.00    -0.129 F  
HETATM   35  F   UNL     1     -12.238   8.911  73.010  1.00  0.00    -0.269 F  
HETATM   36  F   UNL     1     -11.271   7.010  73.364  1.00  0.00    -0.287 F  
ENDBRANCH  24  26
ENDBRANCH  22  24
ENDBRANCH  20  22
ENDBRANCH  17  20
ENDBRANCH  12  13
ENDBRANCH   8  12
ENDBRANCH   3   6
TORSDOF 7
ENDMDL
MODEL      244
REMARK 921   NORMALIZED FREE ENERGY PREDICTED BY IDOCK:   -4.56 KCAL/MOL
REMARK 922        TOTAL FREE ENERGY PREDICTED BY IDOCK:   -8.41 KCAL/MOL
REMARK 923 INTER-LIGAND FREE ENERGY PREDICTED BY IDOCK:   -7.09 KCAL/MOL
REMARK 924 INTRA-LIGAND FREE ENERGY PREDICTED BY IDOCK:   -1.32 KCAL/MOL
REMARK 927      BINDING AFFINITY PREDICTED BY RF-SCORE:    0.00 PKD
ROOT
HETATM    1  C   UNL     1      -5.653   6.497  67.293  1.00  0.00    -0.013 C  
HETATM    2  N   UNL     1      -6.136   7.850  67.253  1.00  0.00    -0.052 N  
HETATM    3  C   UNL     1      -6.704   8.437  68.364  1.00  0.00    -0.064 C  
HETATM    4  H   UNL     1      -6.059   8.385  66.388  1.00  0.00     0.000 HD 
HETATM    5  O   UNL     1      -6.789   7.884  69.455  1.00  0.00    -0.045 OA 
ENDROOT
BRANCH   3   6
HETATM    6  C   UNL     1      -7.230   9.823  68.152  1.00  0.00    -0.079 A  
HETATM    7  C   UNL     1      -6.373  10.897  68.349  1.00  0.00    -0.053 A  
HETATM    8  C   UNL     1      -6.864  12.174  68.108  1.00  0.00    -0.075 A  
HETATM    9  C   UNL     1      -8.197  12.339  67.745  1.00  0.00    -0.161 A  
HETATM   10  N   UNL     1      -8.533   9.946  67.775  1.00  0.00    -0.118 NA 
HETATM   11  C   UNL     1      -8.982  11.206  67.588  1.00  0.00    -0.140 A  
BRANCH   8  12
HETATM   12  O   UNL     1      -6.124  13.319  68.285  1.00  0.00    -0.074 OA 
BRANCH  12  13
HETATM   13  C   UNL     1      -6.760  14.542  68.320  1.00  0.00    -0.116 A  
HETATM   14  C   UNL     1      -6.810  15.247  67.116  1.00  0.00     0.025 A  
HETATM   15  C   UNL     1      -7.388  16.512  67.084  1.00  0.00    -0.185 A  
HETATM   16  F   UNL     1      -7.421  17.191  65.926  1.00  0.00    -0.320 F  
HETATM   17  C   UNL     1      -7.867  17.114  68.249  1.00  0.00    -0.227 A  
HETATM   18  C   UNL     1      -7.260  15.127  69.490  1.00  0.00    -0.204 A  
HETATM   19  C   UNL     1      -7.820  16.409  69.454  1.00  0.00    -0.047 A  
BRANCH  17  20
HETATM   20  N   UNL     1      -8.374  18.432  68.186  1.00  0.00    -0.277 N  
HETATM   21  H   UNL     1      -7.749  19.207  67.965  1.00  0.00     0.000 HD 
BRANCH  20  22
HETATM   22  C   UNL     1      -9.720  18.677  68.426  1.00  0.00    -0.367 C  
HETATM   23  O   UNL     1     -10.151  19.439  69.288  1.00  0.00    -0.378 OA 
BRANCH  22  24
HETATM   24  N   UNL     1     -10.515  17.941  67.568  1.00  0.00    -0.383 N  
HETATM   25  H   UNL     1     -10.835  18.367  66.699  1.00  0.00     0.000 HD 
BRANCH  24  26
HETATM   26  C   UNL     1     -10.894  16.617  67.864  1.00  0.00    -0.321 A  
HETATM   27  C   UNL     1     -10.790  15.657  66.863  1.00  0.00    -0.282 A  
HETATM   28  C   UNL     1     -11.161  14.339  67.127  1.00  0.00    -0.333 A  
HETATM   29  C   UNL     1     -11.707  13.982  68.367  1.00  0.00    -0.354 A  
HETATM   30 CL   UNL     1     -12.148  12.324  68.551  1.00  0.00    -0.251 Cl 
HETATM   31  C   UNL     1     -11.870  14.944  69.371  1.00  0.00    -0.356 A  
HETATM   32  C   UNL     1     -11.420  16.261  69.112  1.00  0.00    -0.257 A  
HETATM   33  C   UNL     1     -12.533  14.678  70.700  1.00  0.00    -0.344 C  
HETATM   34  F   UNL     1     -11.697  14.906  71.751  1.00  0.00    -0.373 F  
HETATM   35  F   UNL     1     -13.602  15.508  70.898  1.00  0.00    -0.511 F  
HETATM   36  F   UNL     1     -13.024  13.425  70.891  1.00  0.00    -0.359 F  
ENDBRANCH  24  26
ENDBRANCH  22  24
ENDBRANCH  20  22
ENDBRANCH  17  20
ENDBRANCH  12  13
ENDBRANCH   8  12
ENDBRANCH   3   6
TORSDOF 7
ENDMDL
MODEL      245
REMARK 921   NORMALIZED FREE ENERGY PREDICTED BY IDOCK:   -4.54 KCAL/MOL
REMARK 922        TOTAL FREE ENERGY PREDICTED BY IDOCK:   -8.38 KCAL/MOL
REMARK 923 INTER-LIGAND FREE ENERGY PREDICTED BY IDOCK:   -7.72 KCAL/MOL
REMARK 924 INTRA-LIGAND FREE ENERGY PREDICTED BY IDOCK:   -0.66 KCAL/MOL
REMARK 927      BINDING AFFINITY PREDICTED BY RF-SCORE:    0.00 PKD
ROOT
HETATM    1  C   UNL     1      -7.262  20.874  67.307  1.00  0.00    -0.350 C  
HETATM    2  N   UNL     1      -7.544  19.468  67.210  1.00  0.00    -0.241 N  
HETATM    3  C   UNL     1      -8.508  18.992  66.347  1.00  0.00    -0.306 C  
HETATM    4  H   UNL     1      -7.022  18.811  67.789  1.00  0.00     0.000 HD 
HETATM    5  O   UNL     1      -9.144  19.707  65.580  1.00  0.00    -0.322 OA 
ENDROOT
BRANCH   3   6
HETATM    6  C   UNL     1      -8.744  17.515  66.409  1.00  0.00    -0.242 A  
HETATM    7  C   UNL     1      -7.845  16.726  67.113  1.00  0.00    -0.208 A  
HETATM    8  C   UNL     1      -8.100  15.364  67.195  1.00  0.00    -0.217 A  
HETATM    9  C   UNL     1      -9.198  14.830  66.527  1.00  0.00    -0.304 A  
HETATM   10  N   UNL     1      -9.840  17.030  65.762  1.00  0.00    -0.559 NA 
HETATM   11  C   UNL     1     -10.032  15.694  65.835  1.00  0.00    -0.351 A  
BRANCH   8  12
HETATM   12  O   UNL     1      -7.276  14.473  67.844  1.00  0.00    -0.123 OA 
BRANCH  12  13
HETATM   13  C   UNL     1      -7.566  13.126  67.806  1.00  0.00    -0.155 A  
HETATM   14  C   UNL     1      -6.776  12.348  66.958  1.00  0.00    -0.005 A  
HETATM   15  C   UNL     1      -7.044  10.989  66.825  1.00  0.00    -0.135 A  
HETATM   16  F   UNL     1      -6.291  10.249  65.997  1.00  0.00    -0.073 F  
HETATM   17  C   UNL     1      -8.127  10.401  67.481  1.00  0.00    -0.107 A  
HETATM   18  C   UNL     1      -8.640  12.541  68.488  1.00  0.00    -0.054 A  
HETATM   19  C   UNL     1      -8.916  11.178  68.332  1.00  0.00    -0.165 A  
BRANCH  17  20
HETATM   20  N   UNL     1      -8.412   9.035  67.256  1.00  0.00    -0.114 N  
HETATM   21  H   UNL     1      -7.716   8.326  67.488  1.00  0.00     0.000 HD 
BRANCH  20  22
HETATM   22  C   UNL     1      -9.634   8.653  66.720  1.00  0.00    -0.207 C  
HETATM   23  O   UNL     1     -10.338   9.362  66.004  1.00  0.00    -0.218 OA 
BRANCH  22  24
HETATM   24  N   UNL     1      -9.963   7.368  67.108  1.00  0.00    -0.193 N  
HETATM   25  H   UNL     1      -9.963   6.623  66.410  1.00  0.00     0.000 HD 
BRANCH  24  26
HETATM   26  C   UNL     1     -10.298   7.060  68.440  1.00  0.00    -0.193 A  
HETATM   27  C   UNL     1     -10.096   5.760  68.893  1.00  0.00    -0.242 A  
HETATM   28  C   UNL     1     -10.422   5.426  70.207  1.00  0.00    -0.355 A  
HETATM   29  C   UNL     1     -11.018   6.365  71.059  1.00  0.00    -0.274 A  
HETATM   30 CL   UNL     1     -11.394   5.812  72.649  1.00  0.00    -0.342 Cl 
HETATM   31  C   UNL     1     -11.279   7.664  70.607  1.00  0.00    -0.280 A  
HETATM   32  C   UNL     1     -10.875   8.008  69.294  1.00  0.00    -0.072 A  
HETATM   33  C   UNL     1     -12.002   8.713  71.416  1.00  0.00    -0.304 C  
HETATM   34  F   UNL     1     -11.236   9.818  71.632  1.00  0.00    -0.433 F  
HETATM   35  F   UNL     1     -13.115   9.164  70.763  1.00  0.00    -0.193 F  
HETATM   36  F   UNL     1     -12.446   8.332  72.642  1.00  0.00    -0.380 F  
ENDBRANCH  24  26
ENDBRANCH  22  24
ENDBRANCH  20  22
ENDBRANCH  17  20
ENDBRANCH  12  13
ENDBRANCH   8  12
ENDBRANCH   3   6
TORSDOF 7
ENDMDL
MODEL      246
REMARK 921   NORMALIZED FREE ENERGY PREDICTED BY IDOCK:   -4.54 KCAL/MOL
REMARK 922        TOTAL FREE ENERGY PREDICTED BY IDOCK:   -8.38 KCAL/MOL
REMARK 923 INTER-LIGAND FREE ENERGY PREDICTED BY IDOCK:   -7.23 KCAL/MOL
REMARK 924 INTRA-LIGAND FREE ENERGY PREDICTED BY IDOCK:   -1.15 KCAL/MOL
REMARK 927      BINDING AFFINITY PREDICTED BY RF-SCORE:    0.00 PKD
ROOT
HETATM    1  C   UNL     1      -9.448   2.156  68.295  1.00  0.00    -0.174 C  
HETATM    2  N   UNL     1      -9.037   3.444  67.809  1.00  0.00    -0.147 N  
HETATM    3  C   UNL     1      -9.583   4.604  68.314  1.00  0.00    -0.149 C  
HETATM    4  H   UNL     1      -8.328   3.501  67.078  1.00  0.00     0.000 HD 
HETATM    5  O   UNL     1     -10.401   4.628  69.228  1.00  0.00    -0.102 OA 
ENDROOT
BRANCH   3   6
HETATM    6  C   UNL     1      -9.113   5.867  67.660  1.00  0.00    -0.106 A  
HETATM    7  C   UNL     1      -9.253   7.064  68.347  1.00  0.00    -0.129 A  
HETATM    8  C   UNL     1      -8.775   8.220  67.745  1.00  0.00    -0.134 A  
HETATM    9  C   UNL     1      -8.235   8.153  66.464  1.00  0.00    -0.107 A  
HETATM   10  N   UNL     1      -8.570   5.761  66.416  1.00  0.00    -0.122 NA 
HETATM   11  C   UNL     1      -8.151   6.914  65.849  1.00  0.00    -0.119 A  
BRANCH   8  12
HETATM   12  O   UNL     1      -8.872   9.470  68.312  1.00  0.00    -0.124 OA 
BRANCH  12  13
HETATM   13  C   UNL     1      -9.310  10.531  67.548  1.00  0.00    -0.149 A  
HETATM   14  C   UNL     1      -8.501  11.669  67.550  1.00  0.00    -0.150 A  
HETATM   15  C   UNL     1      -8.904  12.800  66.846  1.00  0.00    -0.194 A  
HETATM   16  F   UNL     1      -8.130  13.895  66.863  1.00  0.00    -0.171 F  
HETATM   17  C   UNL     1     -10.134  12.836  66.186  1.00  0.00    -0.266 A  
HETATM   18  C   UNL     1     -10.534  10.549  66.869  1.00  0.00    -0.303 A  
HETATM   19  C   UNL     1     -10.943  11.697  66.182  1.00  0.00    -0.339 A  
BRANCH  17  20
HETATM   20  N   UNL     1     -10.542  14.031  65.551  1.00  0.00    -0.303 N  
HETATM   21  H   UNL     1     -10.368  14.161  64.554  1.00  0.00     0.000 HD 
BRANCH  20  22
HETATM   22  C   UNL     1     -11.176  15.030  66.278  1.00  0.00    -0.309 C  
HETATM   23  O   UNL     1     -11.988  14.832  67.179  1.00  0.00    -0.351 OA 
BRANCH  22  24
HETATM   24  N   UNL     1     -10.781  16.282  65.845  1.00  0.00    -0.273 N  
HETATM   25  H   UNL     1     -11.160  16.647  64.971  1.00  0.00     0.000 HD 
BRANCH  24  26
HETATM   26  C   UNL     1      -9.870  17.065  66.579  1.00  0.00    -0.294 A  
HETATM   27  C   UNL     1     -10.361  17.878  67.595  1.00  0.00    -0.387 A  
HETATM   28  C   UNL     1      -9.481  18.667  68.335  1.00  0.00    -0.377 A  
HETATM   29  C   UNL     1      -8.115  18.706  68.023  1.00  0.00    -0.275 A  
HETATM   30 CL   UNL     1      -7.145  19.744  69.001  1.00  0.00    -0.378 Cl 
HETATM   31  C   UNL     1      -7.609  17.936  66.970  1.00  0.00    -0.224 A  
HETATM   32  C   UNL     1      -8.503  17.084  66.276  1.00  0.00    -0.304 A  
HETATM   33  C   UNL     1      -6.177  17.983  66.498  1.00  0.00    -0.184 C  
HETATM   34  F   UNL     1      -5.558  16.774  66.600  1.00  0.00    -0.189 F  
HETATM   35  F   UNL     1      -6.099  18.321  65.175  1.00  0.00    -0.254 F  
HETATM   36  F   UNL     1      -5.359  18.865  67.132  1.00  0.00    -0.143 F  
ENDBRANCH  24  26
ENDBRANCH  22  24
ENDBRANCH  20  22
ENDBRANCH  17  20
ENDBRANCH  12  13
ENDBRANCH   8  12
ENDBRANCH   3   6
TORSDOF 7
ENDMDL
MODEL      247
REMARK 921   NORMALIZED FREE ENERGY PREDICTED BY IDOCK:   -4.52 KCAL/MOL
REMARK 922        TOTAL FREE ENERGY PREDICTED BY IDOCK:   -8.36 KCAL/MOL
REMARK 923 INTER-LIGAND FREE ENERGY PREDICTED BY IDOCK:   -7.40 KCAL/MOL
REMARK 924 INTRA-LIGAND FREE ENERGY PREDICTED BY IDOCK:   -0.96 KCAL/MOL
REMARK 927      BINDING AFFINITY PREDICTED BY RF-SCORE:    0.00 PKD
ROOT
HETATM    1  C   UNL     1     -12.897  15.875  72.017  1.00  0.00    -0.403 C  
HETATM    2  N   UNL     1     -12.412  15.544  70.705  1.00  0.00    -0.417 N  
HETATM    3  C   UNL     1     -12.303  14.233  70.295  1.00  0.00    -0.354 C  
HETATM    4  H   UNL     1     -12.144  16.293  70.067  1.00  0.00     0.000 HD 
HETATM    5  O   UNL     1     -12.651  13.276  70.979  1.00  0.00    -0.356 OA 
ENDROOT
BRANCH   3   6
HETATM    6  C   UNL     1     -11.713  14.040  68.932  1.00  0.00    -0.340 A  
HETATM    7  C   UNL     1     -10.652  13.157  68.787  1.00  0.00    -0.225 A  
HETATM    8  C   UNL     1     -10.142  12.957  67.510  1.00  0.00    -0.214 A  
HETATM    9  C   UNL     1     -10.660  13.684  66.443  1.00  0.00    -0.284 A  
HETATM   10  N   UNL     1     -12.259  14.751  67.908  1.00  0.00    -0.114 NA 
HETATM   11  C   UNL     1     -11.710  14.557  66.689  1.00  0.00    -0.371 A  
BRANCH   8  12
HETATM   12  O   UNL     1      -9.081  12.126  67.236  1.00  0.00    -0.170 OA 
BRANCH  12  13
HETATM   13  C   UNL     1      -9.283  10.764  67.171  1.00  0.00    -0.147 A  
HETATM   14  C   UNL     1      -9.462  10.107  68.390  1.00  0.00    -0.147 A  
HETATM   15  C   UNL     1      -9.618   8.724  68.409  1.00  0.00    -0.147 A  
HETATM   16  F   UNL     1      -9.776   8.097  69.584  1.00  0.00    -0.165 F  
HETATM   17  C   UNL     1      -9.539   7.975  67.233  1.00  0.00    -0.162 A  
HETATM   18  C   UNL     1      -9.227  10.024  65.984  1.00  0.00    -0.204 A  
HETATM   19  C   UNL     1      -9.362   8.631  66.013  1.00  0.00    -0.284 A  
BRANCH  17  20
HETATM   20  N   UNL     1      -9.623   6.566  67.306  1.00  0.00    -0.123 N  
HETATM   21  H   UNL     1     -10.488   6.094  67.042  1.00  0.00     0.000 HD 
BRANCH  20  22
HETATM   22  C   UNL     1      -8.533   5.820  67.736  1.00  0.00    -0.103 C  
HETATM   23  O   UNL     1      -7.378   6.236  67.790  1.00  0.00    -0.081 OA 
BRANCH  22  24
HETATM   24  N   UNL     1      -8.918   4.540  68.086  1.00  0.00    -0.111 N  
HETATM   25  H   UNL     1      -8.949   3.817  67.368  1.00  0.00     0.000 HD 
BRANCH  24  26
HETATM   26  C   UNL     1      -9.270   4.209  69.409  1.00  0.00    -0.143 A  
HETATM   27  C   UNL     1      -9.220   2.874  69.796  1.00  0.00    -0.213 A  
HETATM   28  C   UNL     1      -9.566   2.518  71.098  1.00  0.00    -0.218 A  
HETATM   29  C   UNL     1     -10.034   3.478  72.005  1.00  0.00    -0.157 A  
HETATM   30 CL   UNL     1     -10.452   2.896  73.574  1.00  0.00    -0.219 Cl 
HETATM   31  C   UNL     1     -10.143   4.819  71.620  1.00  0.00    -0.264 A  
HETATM   32  C   UNL     1      -9.718   5.177  70.318  1.00  0.00    -0.272 A  
HETATM   33  C   UNL     1     -10.724   5.906  72.491  1.00  0.00    -0.234 C  
HETATM   34  F   UNL     1      -9.828   6.900  72.745  1.00  0.00    -0.167 F  
HETATM   35  F   UNL     1     -11.784   6.518  71.882  1.00  0.00    -0.300 F  
HETATM   36  F   UNL     1     -11.195   5.520  73.706  1.00  0.00    -0.296 F  
ENDBRANCH  24  26
ENDBRANCH  22  24
ENDBRANCH  20  22
ENDBRANCH  17  20
ENDBRANCH  12  13
ENDBRANCH   8  12
ENDBRANCH   3   6
TORSDOF 7
ENDMDL
MODEL      248
REMARK 921   NORMALIZED FREE ENERGY PREDICTED BY IDOCK:   -4.51 KCAL/MOL
REMARK 922        TOTAL FREE ENERGY PREDICTED BY IDOCK:   -8.34 KCAL/MOL
REMARK 923 INTER-LIGAND FREE ENERGY PREDICTED BY IDOCK:   -8.41 KCAL/MOL
REMARK 924 INTRA-LIGAND FREE ENERGY PREDICTED BY IDOCK:    0.07 KCAL/MOL
REMARK 927      BINDING AFFINITY PREDICTED BY RF-SCORE:    0.00 PKD
ROOT
HETATM    1  C   UNL     1     -10.309  19.941  68.719  1.00  0.00    -0.240 C  
HETATM    2  N   UNL     1     -10.086  18.552  68.425  1.00  0.00    -0.376 N  
HETATM    3  C   UNL     1      -9.630  18.149  67.188  1.00  0.00    -0.277 C  
HETATM    4  H   UNL     1     -10.267  17.852  69.144  1.00  0.00     0.000 HD 
HETATM    5  O   UNL     1      -9.338  18.927  66.286  1.00  0.00    -0.346 OA 
ENDROOT
BRANCH   3   6
HETATM    6  C   UNL     1      -9.516  16.668  67.003  1.00  0.00    -0.230 A  
HETATM    7  C   UNL     1     -10.678  15.911  66.963  1.00  0.00    -0.292 A  
HETATM    8  C   UNL     1     -10.558  14.544  66.749  1.00  0.00    -0.276 A  
HETATM    9  C   UNL     1      -9.292  13.974  66.647  1.00  0.00    -0.292 A  
HETATM   10  N   UNL     1      -8.263  16.147  66.885  1.00  0.00    -0.211 NA 
HETATM   11  C   UNL     1      -8.187  14.809  66.716  1.00  0.00    -0.004 A  
BRANCH   8  12
HETATM   12  O   UNL     1     -11.630  13.682  66.709  1.00  0.00    -0.330 OA 
BRANCH  12  13
HETATM   13  C   UNL     1     -11.596  12.520  67.449  1.00  0.00    -0.370 A  
HETATM   14  C   UNL     1     -12.016  12.620  68.777  1.00  0.00    -0.279 A  
HETATM   15  C   UNL     1     -11.960  11.501  69.602  1.00  0.00    -0.339 A  
HETATM   16  F   UNL     1     -12.351  11.608  70.881  1.00  0.00    -0.419 F  
HETATM   17  C   UNL     1     -11.435  10.292  69.140  1.00  0.00    -0.147 A  
HETATM   18  C   UNL     1     -11.091  11.305  66.969  1.00  0.00    -0.356 A  
HETATM   19  C   UNL     1     -11.017  10.190  67.811  1.00  0.00    -0.338 A  
BRANCH  17  20
HETATM   20  N   UNL     1     -11.322   9.203  70.034  1.00  0.00    -0.421 N  
HETATM   21  H   UNL     1     -12.162   8.735  70.373  1.00  0.00     0.000 HD 
BRANCH  20  22
HETATM   22  C   UNL     1     -10.072   8.767  70.452  1.00  0.00    -0.192 C  
HETATM   23  O   UNL     1      -9.138   9.505  70.756  1.00  0.00    -0.231 OA 
BRANCH  22  24
HETATM   24  N   UNL     1     -10.012   7.386  70.472  1.00  0.00    -0.184 N  
HETATM   25  H   UNL     1      -9.958   6.905  71.369  1.00  0.00     0.000 HD 
BRANCH  24  26
HETATM   26  C   UNL     1     -10.025   6.628  69.286  1.00  0.00    -0.158 A  
HETATM   27  C   UNL     1     -10.660   7.156  68.167  1.00  0.00    -0.241 A  
HETATM   28  C   UNL     1     -10.691   6.424  66.980  1.00  0.00    -0.434 A  
HETATM   29  C   UNL     1     -10.152   5.133  66.918  1.00  0.00    -0.226 A  
HETATM   30 CL   UNL     1     -10.281   4.331  65.396  1.00  0.00    -0.249 Cl 
HETATM   31  C   UNL     1      -9.555   4.561  68.048  1.00  0.00    -0.209 A  
HETATM   32  C   UNL     1      -9.467   5.345  69.224  1.00  0.00    -0.179 A  
HETATM   33  C   UNL     1      -9.035   3.146  68.107  1.00  0.00    -0.142 C  
HETATM   34  F   UNL     1      -7.702   3.096  68.385  1.00  0.00    -0.057 F  
HETATM   35  F   UNL     1      -9.641   2.434  69.104  1.00  0.00    -0.210 F  
HETATM   36  F   UNL     1      -9.202   2.393  66.988  1.00  0.00    -0.156 F  
ENDBRANCH  24  26
ENDBRANCH  22  24
ENDBRANCH  20  22
ENDBRANCH  17  20
ENDBRANCH  12  13
ENDBRANCH   8  12
ENDBRANCH   3   6
TORSDOF 7
ENDMDL
MODEL      249
REMARK 921   NORMALIZED FREE ENERGY PREDICTED BY IDOCK:   -4.51 KCAL/MOL
REMARK 922        TOTAL FREE ENERGY PREDICTED BY IDOCK:   -8.34 KCAL/MOL
REMARK 923 INTER-LIGAND FREE ENERGY PREDICTED BY IDOCK:   -7.63 KCAL/MOL
REMARK 924 INTRA-LIGAND FREE ENERGY PREDICTED BY IDOCK:   -0.71 KCAL/MOL
REMARK 927      BINDING AFFINITY PREDICTED BY RF-SCORE:    0.00 PKD
ROOT
HETATM    1  C   UNL     1      -8.585  19.207  66.730  1.00  0.00    -0.309 C  
HETATM    2  N   UNL     1      -8.528  17.847  67.190  1.00  0.00    -0.228 N  
HETATM    3  C   UNL     1      -9.341  16.876  66.647  1.00  0.00    -0.258 C  
HETATM    4  H   UNL     1      -7.875  17.596  67.932  1.00  0.00     0.000 HD 
HETATM    5  O   UNL     1     -10.116  17.081  65.718  1.00  0.00    -0.516 OA 
ENDROOT
BRANCH   3   6
HETATM    6  C   UNL     1      -9.225  15.522  67.277  1.00  0.00    -0.209 A  
HETATM    7  C   UNL     1     -10.249  14.606  67.078  1.00  0.00    -0.261 A  
HETATM    8  C   UNL     1     -10.107  13.342  67.634  1.00  0.00    -0.229 A  
HETATM    9  C   UNL     1      -8.990  13.057  68.415  1.00  0.00    -0.126 A  
HETATM   10  N   UNL     1      -8.109  15.270  68.015  1.00  0.00    -0.134 NA 
HETATM   11  C   UNL     1      -8.027  14.042  68.571  1.00  0.00    -0.141 A  
BRANCH   8  12
HETATM   12  O   UNL     1     -11.057  12.353  67.528  1.00  0.00    -0.240 OA 
BRANCH  12  13
HETATM   13  C   UNL     1     -11.250  11.479  68.576  1.00  0.00    -0.258 A  
HETATM   14  C   UNL     1     -12.231  11.835  69.504  1.00  0.00    -0.232 A  
HETATM   15  C   UNL     1     -12.445  11.030  70.619  1.00  0.00    -0.373 A  
HETATM   16  F   UNL     1     -13.379  11.384  71.515  1.00  0.00    -0.457 F  
HETATM   17  C   UNL     1     -11.656   9.902  70.856  1.00  0.00    -0.373 A  
HETATM   18  C   UNL     1     -10.470  10.336  68.792  1.00  0.00    -0.222 A  
HETATM   19  C   UNL     1     -10.677   9.545  69.927  1.00  0.00    -0.268 A  
BRANCH  17  20
HETATM   20  N   UNL     1     -11.855   9.157  72.041  1.00  0.00    -0.360 N  
HETATM   21  H   UNL     1     -11.886   9.635  72.942  1.00  0.00     0.000 HD 
BRANCH  20  22
HETATM   22  C   UNL     1     -12.007   7.778  71.984  1.00  0.00    -0.308 C  
HETATM   23  O   UNL     1     -12.504   7.167  71.042  1.00  0.00    -0.357 OA 
BRANCH  22  24
HETATM   24  N   UNL     1     -11.532   7.182  73.137  1.00  0.00    -0.551 N  
HETATM   25  H   UNL     1     -12.022   7.344  74.017  1.00  0.00     0.000 HD 
BRANCH  24  26
HETATM   26  C   UNL     1     -10.390   6.359  73.129  1.00  0.00    -0.226 A  
HETATM   27  C   UNL     1     -10.361   5.254  73.975  1.00  0.00    -0.301 A  
HETATM   28  C   UNL     1      -9.242   4.424  73.989  1.00  0.00    -0.113 A  
HETATM   29  C   UNL     1      -8.113   4.726  73.215  1.00  0.00    -0.100 A  
HETATM   30 CL   UNL     1      -6.789   3.629  73.348  1.00  0.00    -0.039 Cl 
HETATM   31  C   UNL     1      -8.101   5.862  72.397  1.00  0.00    -0.110 A  
HETATM   32  C   UNL     1      -9.273   6.654  72.338  1.00  0.00    -0.140 A  
HETATM   33  C   UNL     1      -6.903   6.321  71.603  1.00  0.00    -0.064 C  
HETATM   34  F   UNL     1      -7.154   6.362  70.265  1.00  0.00    -0.067 F  
HETATM   35  F   UNL     1      -6.539   7.594  71.944  1.00  0.00    -0.042 F  
HETATM   36  F   UNL     1      -5.769   5.585  71.739  1.00  0.00    -0.017 F  
ENDBRANCH  24  26
ENDBRANCH  22  24
ENDBRANCH  20  22
ENDBRANCH  17  20
ENDBRANCH  12  13
ENDBRANCH   8  12
ENDBRANCH   3   6
TORSDOF 7
ENDMDL
MODEL      250
REMARK 921   NORMALIZED FREE ENERGY PREDICTED BY IDOCK:   -4.51 KCAL/MOL
REMARK 922        TOTAL FREE ENERGY PREDICTED BY IDOCK:   -8.34 KCAL/MOL
REMARK 923 INTER-LIGAND FREE ENERGY PREDICTED BY IDOCK:   -6.99 KCAL/MOL
REMARK 924 INTRA-LIGAND FREE ENERGY PREDICTED BY IDOCK:   -1.35 KCAL/MOL
REMARK 927      BINDING AFFINITY PREDICTED BY RF-SCORE:    0.00 PKD
ROOT
HETATM    1  C   UNL     1      -7.054   3.071  68.266  1.00  0.00    -0.049 C  
HETATM    2  N   UNL     1      -6.804   4.147  67.348  1.00  0.00    -0.051 N  
HETATM    3  C   UNL     1      -7.406   5.377  67.510  1.00  0.00    -0.076 C  
HETATM    4  H   UNL     1      -6.169   4.000  66.563  1.00  0.00     0.000 HD 
HETATM    5  O   UNL     1      -8.140   5.654  68.453  1.00  0.00    -0.101 OA 
ENDROOT
BRANCH   3   6
HETATM    6  C   UNL     1      -7.110   6.377  66.436  1.00  0.00    -0.068 A  
HETATM    7  C   UNL     1      -8.122   7.235  66.028  1.00  0.00    -0.121 A  
HETATM    8  C   UNL     1      -7.821   8.184  65.061  1.00  0.00    -0.128 A  
HETATM    9  C   UNL     1      -6.551   8.205  64.492  1.00  0.00    -0.064 A  
HETATM   10  N   UNL     1      -5.851   6.383  65.918  1.00  0.00    -0.024 NA 
HETATM   11  C   UNL     1      -5.609   7.297  64.952  1.00  0.00    -0.033 A  
BRANCH   8  12
HETATM   12  O   UNL     1      -8.739   9.077  64.558  1.00  0.00    -0.177 OA 
BRANCH  12  13
HETATM   13  C   UNL     1      -9.115  10.165  65.317  1.00  0.00    -0.195 A  
HETATM   14  C   UNL     1     -10.043  11.031  64.736  1.00  0.00    -0.367 A  
HETATM   15  C   UNL     1     -10.431  12.180  65.419  1.00  0.00    -0.270 A  
HETATM   16  F   UNL     1     -11.312  13.017  64.850  1.00  0.00    -0.306 F  
HETATM   17  C   UNL     1      -9.863  12.512  66.651  1.00  0.00    -0.241 A  
HETATM   18  C   UNL     1      -8.558  10.475  66.563  1.00  0.00    -0.140 A  
HETATM   19  C   UNL     1      -8.937  11.644  67.234  1.00  0.00    -0.169 A  
BRANCH  17  20
HETATM   20  N   UNL     1     -10.226  13.728  67.274  1.00  0.00    -0.251 N  
HETATM   21  H   UNL     1      -9.593  14.527  67.234  1.00  0.00     0.000 HD 
BRANCH  20  22
HETATM   22  C   UNL     1     -11.439  13.840  67.939  1.00  0.00    -0.314 C  
HETATM   23  O   UNL     1     -12.524  14.020  67.391  1.00  0.00    -0.217 OA 
BRANCH  22  24
HETATM   24  N   UNL     1     -11.264  13.731  69.305  1.00  0.00    -0.310 N  
HETATM   25  H   UNL     1     -10.850  14.511  69.816  1.00  0.00     0.000 HD 
BRANCH  24  26
HETATM   26  C   UNL     1     -11.642  12.573  70.010  1.00  0.00    -0.130 A  
HETATM   27  C   UNL     1     -12.564  12.696  71.045  1.00  0.00    -0.354 A  
HETATM   28  C   UNL     1     -12.953  11.565  71.762  1.00  0.00    -0.500 A  
HETATM   29  C   UNL     1     -12.375  10.315  71.502  1.00  0.00    -0.390 A  
HETATM   30 CL   UNL     1     -12.930   9.007  72.481  1.00  0.00    -0.470 Cl 
HETATM   31  C   UNL     1     -11.407  10.179  70.501  1.00  0.00    -0.416 A  
HETATM   32  C   UNL     1     -11.076  11.322  69.732  1.00  0.00    -0.238 A  
HETATM   33  C   UNL     1     -10.661   8.900  70.211  1.00  0.00    -0.221 C  
HETATM   34  F   UNL     1     -10.864   8.458  68.939  1.00  0.00    -0.214 F  
HETATM   35  F   UNL     1      -9.310   9.076  70.324  1.00  0.00    -0.156 F  
HETATM   36  F   UNL     1     -10.943   7.840  71.014  1.00  0.00    -0.232 F  
ENDBRANCH  24  26
ENDBRANCH  22  24
ENDBRANCH  20  22
ENDBRANCH  17  20
ENDBRANCH  12  13
ENDBRANCH   8  12
ENDBRANCH   3   6
TORSDOF 7
ENDMDL
MODEL      251
REMARK 921   NORMALIZED FREE ENERGY PREDICTED BY IDOCK:   -4.49 KCAL/MOL
REMARK 922        TOTAL FREE ENERGY PREDICTED BY IDOCK:   -8.31 KCAL/MOL
REMARK 923 INTER-LIGAND FREE ENERGY PREDICTED BY IDOCK:   -6.86 KCAL/MOL
REMARK 924 INTRA-LIGAND FREE ENERGY PREDICTED BY IDOCK:   -1.45 KCAL/MOL
REMARK 927      BINDING AFFINITY PREDICTED BY RF-SCORE:    0.00 PKD
ROOT
HETATM    1  C   UNL     1      -5.718   5.859  67.873  1.00  0.00    -0.012 C  
HETATM    2  N   UNL     1      -6.241   7.190  68.011  1.00  0.00    -0.034 N  
HETATM    3  C   UNL     1      -7.161   7.497  68.990  1.00  0.00    -0.085 C  
HETATM    4  H   UNL     1      -5.925   7.921  67.373  1.00  0.00     0.000 HD 
HETATM    5  O   UNL     1      -7.554   6.692  69.828  1.00  0.00    -0.099 OA 
ENDROOT
BRANCH   3   6
HETATM    6  C   UNL     1      -7.672   8.904  68.965  1.00  0.00    -0.090 A  
HETATM    7  C   UNL     1      -6.772   9.934  68.734  1.00  0.00    -0.050 A  
HETATM    8  C   UNL     1      -7.268  11.230  68.673  1.00  0.00    -0.098 A  
HETATM    9  C   UNL     1      -8.621  11.459  68.904  1.00  0.00    -0.020 A  
HETATM   10  N   UNL     1      -9.005   9.089  69.173  1.00  0.00    -0.138 NA 
HETATM   11  C   UNL     1      -9.441  10.367  69.143  1.00  0.00    -0.208 A  
BRANCH   8  12
HETATM   12  O   UNL     1      -6.478  12.338  68.471  1.00  0.00    -0.056 OA 
BRANCH  12  13
HETATM   13  C   UNL     1      -7.055  13.590  68.447  1.00  0.00    -0.107 A  
HETATM   14  C   UNL     1      -7.516  14.034  67.206  1.00  0.00    -0.054 A  
HETATM   15  C   UNL     1      -8.062  15.309  67.092  1.00  0.00    -0.216 A  
HETATM   16  F   UNL     1      -8.490  15.736  65.894  1.00  0.00    -0.325 F  
HETATM   17  C   UNL     1      -8.103  16.175  68.186  1.00  0.00    -0.149 A  
HETATM   18  C   UNL     1      -7.114  14.442  69.556  1.00  0.00    -0.092 A  
HETATM   19  C   UNL     1      -7.644  15.731  69.429  1.00  0.00    -0.214 A  
BRANCH  17  20
HETATM   20  N   UNL     1      -8.592  17.489  68.009  1.00  0.00    -0.243 N  
HETATM   21  H   UNL     1      -8.008  18.192  67.555  1.00  0.00     0.000 HD 
BRANCH  20  22
HETATM   22  C   UNL     1      -9.865  17.829  68.449  1.00  0.00    -0.347 C  
HETATM   23  O   UNL     1     -10.105  18.653  69.328  1.00  0.00    -0.288 OA 
BRANCH  22  24
HETATM   24  N   UNL     1     -10.829  17.105  67.774  1.00  0.00    -0.320 N  
HETATM   25  H   UNL     1     -11.259  17.508  66.941  1.00  0.00     0.000 HD 
BRANCH  24  26
HETATM   26  C   UNL     1     -11.234  15.828  68.206  1.00  0.00    -0.356 A  
HETATM   27  C   UNL     1     -11.533  15.646  69.552  1.00  0.00    -0.349 A  
HETATM   28  C   UNL     1     -11.933  14.390  70.008  1.00  0.00    -0.394 A  
HETATM   29  C   UNL     1     -11.971  13.290  69.141  1.00  0.00    -0.296 A  
HETATM   30 CL   UNL     1     -12.458  11.791  69.842  1.00  0.00    -0.152 Cl 
HETATM   31  C   UNL     1     -11.623  13.440  67.794  1.00  0.00    -0.375 A  
HETATM   32  C   UNL     1     -11.290  14.736  67.330  1.00  0.00    -0.361 A  
HETATM   33  C   UNL     1     -11.541  12.300  66.808  1.00  0.00    -0.369 C  
HETATM   34  F   UNL     1     -12.397  12.459  65.761  1.00  0.00    -0.477 F  
HETATM   35  F   UNL     1     -10.295  12.214  66.250  1.00  0.00    -0.227 F  
HETATM   36  F   UNL     1     -11.791  11.057  67.298  1.00  0.00    -0.264 F  
ENDBRANCH  24  26
ENDBRANCH  22  24
ENDBRANCH  20  22
ENDBRANCH  17  20
ENDBRANCH  12  13
ENDBRANCH   8  12
ENDBRANCH   3   6
TORSDOF 7
ENDMDL
MODEL      252
REMARK 921   NORMALIZED FREE ENERGY PREDICTED BY IDOCK:   -4.47 KCAL/MOL
REMARK 922        TOTAL FREE ENERGY PREDICTED BY IDOCK:   -8.29 KCAL/MOL
REMARK 923 INTER-LIGAND FREE ENERGY PREDICTED BY IDOCK:   -8.06 KCAL/MOL
REMARK 924 INTRA-LIGAND FREE ENERGY PREDICTED BY IDOCK:   -0.23 KCAL/MOL
REMARK 927      BINDING AFFINITY PREDICTED BY RF-SCORE:    0.00 PKD
ROOT
HETATM    1  C   UNL     1      -7.843   6.773  64.408  1.00  0.00    -0.113 C  
HETATM    2  N   UNL     1      -8.087   6.033  65.616  1.00  0.00    -0.119 N  
HETATM    3  C   UNL     1      -8.479   4.712  65.575  1.00  0.00    -0.123 C  
HETATM    4  H   UNL     1      -7.969   6.493  66.518  1.00  0.00     0.000 HD 
HETATM    5  O   UNL     1      -8.595   4.070  64.537  1.00  0.00    -0.105 OA 
ENDROOT
BRANCH   3   6
HETATM    6  C   UNL     1      -8.769   4.093  66.908  1.00  0.00    -0.114 A  
HETATM    7  C   UNL     1      -9.479   4.832  67.844  1.00  0.00    -0.181 A  
HETATM    8  C   UNL     1      -9.776   4.230  69.060  1.00  0.00    -0.139 A  
HETATM    9  C   UNL     1      -9.306   2.946  69.322  1.00  0.00    -0.207 A  
HETATM   10  N   UNL     1      -8.313   2.828  67.122  1.00  0.00    -0.088 NA 
HETATM   11  C   UNL     1      -8.590   2.292  68.331  1.00  0.00    -0.079 A  
BRANCH   8  12
HETATM   12  O   UNL     1     -10.454   4.861  70.076  1.00  0.00    -0.244 OA 
BRANCH  12  13
HETATM   13  C   UNL     1     -10.412   6.236  70.170  1.00  0.00    -0.222 A  
HETATM   14  C   UNL     1     -10.697   6.944  69.001  1.00  0.00    -0.259 A  
HETATM   15  C   UNL     1     -10.622   8.333  69.003  1.00  0.00    -0.150 A  
HETATM   16  F   UNL     1     -10.882   9.007  67.873  1.00  0.00    -0.280 F  
HETATM   17  C   UNL     1     -10.209   9.030  70.141  1.00  0.00    -0.197 A  
HETATM   18  C   UNL     1     -10.021   6.927  71.324  1.00  0.00    -0.189 A  
HETATM   19  C   UNL     1      -9.927   8.323  71.312  1.00  0.00    -0.243 A  
BRANCH  17  20
HETATM   20  N   UNL     1     -10.070  10.435  70.077  1.00  0.00    -0.436 N  
HETATM   21  H   UNL     1      -9.190  10.871  70.354  1.00  0.00     0.000 HD 
BRANCH  20  22
HETATM   22  C   UNL     1     -11.125  11.225  69.639  1.00  0.00    -0.206 C  
HETATM   23  O   UNL     1     -12.304  11.041  69.929  1.00  0.00    -0.322 OA 
BRANCH  22  24
HETATM   24  N   UNL     1     -10.672  12.243  68.822  1.00  0.00    -0.278 N  
HETATM   25  H   UNL     1     -10.473  13.156  69.230  1.00  0.00     0.000 HD 
BRANCH  24  26
HETATM   26  C   UNL     1     -10.479  12.052  67.440  1.00  0.00    -0.216 A  
HETATM   27  C   UNL     1      -9.259  11.545  67.004  1.00  0.00    -0.180 A  
HETATM   28  C   UNL     1      -9.039  11.349  65.641  1.00  0.00    -0.173 A  
HETATM   29  C   UNL     1     -10.005  11.723  64.697  1.00  0.00    -0.243 A  
HETATM   30 CL   UNL     1      -9.592  11.449  63.044  1.00  0.00    -0.392 Cl 
HETATM   31  C   UNL     1     -11.218  12.284  65.111  1.00  0.00    -0.369 A  
HETATM   32  C   UNL     1     -11.456  12.408  66.502  1.00  0.00    -0.427 A  
HETATM   33  C   UNL     1     -12.276  12.804  64.170  1.00  0.00    -0.429 C  
HETATM   34  F   UNL     1     -13.465  12.154  64.317  1.00  0.00    -0.412 F  
HETATM   35  F   UNL     1     -12.550  14.122  64.409  1.00  0.00    -0.409 F  
HETATM   36  F   UNL     1     -11.989  12.742  62.843  1.00  0.00    -0.515 F  
ENDBRANCH  24  26
ENDBRANCH  22  24
ENDBRANCH  20  22
ENDBRANCH  17  20
ENDBRANCH  12  13
ENDBRANCH   8  12
ENDBRANCH   3   6
TORSDOF 7
ENDMDL
MODEL      253
REMARK 921   NORMALIZED FREE ENERGY PREDICTED BY IDOCK:   -4.47 KCAL/MOL
REMARK 922        TOTAL FREE ENERGY PREDICTED BY IDOCK:   -8.28 KCAL/MOL
REMARK 923 INTER-LIGAND FREE ENERGY PREDICTED BY IDOCK:   -8.02 KCAL/MOL
REMARK 924 INTRA-LIGAND FREE ENERGY PREDICTED BY IDOCK:   -0.26 KCAL/MOL
REMARK 927      BINDING AFFINITY PREDICTED BY RF-SCORE:    0.00 PKD
ROOT
HETATM    1  C   UNL     1      -9.162  16.491  68.496  1.00  0.00    -0.230 C  
HETATM    2  N   UNL     1      -9.925  15.802  69.499  1.00  0.00    -0.270 N  
HETATM    3  C   UNL     1     -11.291  15.658  69.383  1.00  0.00    -0.330 C  
HETATM    4  H   UNL     1      -9.448  15.412  70.312  1.00  0.00     0.000 HD 
HETATM    5  O   UNL     1     -11.934  16.050  68.415  1.00  0.00    -0.220 OA 
ENDROOT
BRANCH   3   6
HETATM    6  C   UNL     1     -11.961  14.984  70.540  1.00  0.00    -0.308 A  
HETATM    7  C   UNL     1     -12.351  13.659  70.404  1.00  0.00    -0.415 A  
HETATM    8  C   UNL     1     -12.934  13.036  71.499  1.00  0.00    -0.305 A  
HETATM    9  C   UNL     1     -13.164  13.766  72.662  1.00  0.00    -0.571 A  
HETATM   10  N   UNL     1     -12.150  15.722  71.669  1.00  0.00    -0.410 NA 
HETATM   11  C   UNL     1     -12.755  15.091  72.699  1.00  0.00    -0.376 A  
BRANCH   8  12
HETATM   12  O   UNL     1     -13.381  11.735  71.486  1.00  0.00    -0.268 OA 
BRANCH  12  13
HETATM   13  C   UNL     1     -12.473  10.705  71.371  1.00  0.00    -0.390 A  
HETATM   14  C   UNL     1     -12.610   9.656  72.283  1.00  0.00    -0.314 A  
HETATM   15  C   UNL     1     -11.697   8.606  72.264  1.00  0.00    -0.358 A  
HETATM   16  F   UNL     1     -11.825   7.608  73.152  1.00  0.00    -0.266 F  
HETATM   17  C   UNL     1     -10.610   8.612  71.387  1.00  0.00    -0.264 A  
HETATM   18  C   UNL     1     -11.400  10.708  70.471  1.00  0.00    -0.355 A  
HETATM   19  C   UNL     1     -10.474   9.660  70.473  1.00  0.00    -0.367 A  
BRANCH  17  20
HETATM   20  N   UNL     1      -9.662   7.566  71.455  1.00  0.00    -0.166 N  
HETATM   21  H   UNL     1      -8.907   7.609  72.140  1.00  0.00     0.000 HD 
BRANCH  20  22
HETATM   22  C   UNL     1      -9.753   6.481  70.594  1.00  0.00    -0.179 C  
HETATM   23  O   UNL     1     -10.693   5.690  70.561  1.00  0.00    -0.278 OA 
BRANCH  22  24
HETATM   24  N   UNL     1      -8.637   6.400  69.783  1.00  0.00    -0.136 N  
HETATM   25  H   UNL     1      -7.721   6.613  70.176  1.00  0.00     0.000 HD 
BRANCH  24  26
HETATM   26  C   UNL     1      -8.733   6.030  68.427  1.00  0.00    -0.113 A  
HETATM   27  C   UNL     1      -9.463   4.892  68.099  1.00  0.00    -0.178 A  
HETATM   28  C   UNL     1      -9.571   4.502  66.765  1.00  0.00    -0.206 A  
HETATM   29  C   UNL     1      -8.895   5.199  65.755  1.00  0.00    -0.143 A  
HETATM   30 CL   UNL     1      -9.094   4.593  64.153  1.00  0.00    -0.134 Cl 
HETATM   31  C   UNL     1      -8.112   6.316  66.070  1.00  0.00    -0.119 A  
HETATM   32  C   UNL     1      -8.072   6.744  67.420  1.00  0.00    -0.118 A  
HETATM   33  C   UNL     1      -7.273   7.072  65.070  1.00  0.00    -0.078 C  
HETATM   34  F   UNL     1      -7.642   8.379  64.967  1.00  0.00    -0.080 F  
HETATM   35  F   UNL     1      -5.957   7.094  65.440  1.00  0.00    -0.033 F  
HETATM   36  F   UNL     1      -7.270   6.593  63.798  1.00  0.00    -0.049 F  
ENDBRANCH  24  26
ENDBRANCH  22  24
ENDBRANCH  20  22
ENDBRANCH  17  20
ENDBRANCH  12  13
ENDBRANCH   8  12
ENDBRANCH   3   6
TORSDOF 7
ENDMDL
MODEL      254
REMARK 921   NORMALIZED FREE ENERGY PREDICTED BY IDOCK:   -4.46 KCAL/MOL
REMARK 922        TOTAL FREE ENERGY PREDICTED BY IDOCK:   -8.28 KCAL/MOL
REMARK 923 INTER-LIGAND FREE ENERGY PREDICTED BY IDOCK:   -7.00 KCAL/MOL
REMARK 924 INTRA-LIGAND FREE ENERGY PREDICTED BY IDOCK:   -1.28 KCAL/MOL
REMARK 927      BINDING AFFINITY PREDICTED BY RF-SCORE:    0.00 PKD
ROOT
HETATM    1  C   UNL     1     -10.764  17.232  67.662  1.00  0.00    -0.307 C  
HETATM    2  N   UNL     1     -10.302  15.877  67.782  1.00  0.00    -0.271 N  
HETATM    3  C   UNL     1      -9.341  15.374  66.931  1.00  0.00    -0.236 C  
HETATM    4  H   UNL     1     -10.691  15.277  68.509  1.00  0.00     0.000 HD 
HETATM    5  O   UNL     1      -8.785  16.041  66.065  1.00  0.00    -0.331 OA 
ENDROOT
BRANCH   3   6
HETATM    6  C   UNL     1      -9.013  13.926  67.126  1.00  0.00    -0.235 A  
HETATM    7  C   UNL     1     -10.044  12.998  67.079  1.00  0.00    -0.243 A  
HETATM    8  C   UNL     1      -9.719  11.655  67.221  1.00  0.00    -0.180 A  
HETATM    9  C   UNL     1      -8.398  11.292  67.466  1.00  0.00    -0.131 A  
HETATM   10  N   UNL     1      -7.708  13.604  67.342  1.00  0.00    -0.167 NA 
HETATM   11  C   UNL     1      -7.438  12.291  67.513  1.00  0.00    -0.149 A  
BRANCH   8  12
HETATM   12  O   UNL     1     -10.649  10.642  67.213  1.00  0.00    -0.230 OA 
BRANCH  12  13
HETATM   13  C   UNL     1     -10.954   9.989  68.389  1.00  0.00    -0.217 A  
HETATM   14  C   UNL     1     -11.745  10.694  69.299  1.00  0.00    -0.336 A  
HETATM   15  C   UNL     1     -12.050  10.122  70.530  1.00  0.00    -0.291 A  
HETATM   16  F   UNL     1     -12.798  10.810  71.407  1.00  0.00    -0.419 F  
HETATM   17  C   UNL     1     -11.530   8.879  70.895  1.00  0.00    -0.288 A  
HETATM   18  C   UNL     1     -10.448   8.731  68.735  1.00  0.00    -0.214 A  
HETATM   19  C   UNL     1     -10.741   8.173  69.985  1.00  0.00    -0.243 A  
BRANCH  17  20
HETATM   20  N   UNL     1     -11.799   8.371  72.187  1.00  0.00    -0.350 N  
HETATM   21  H   UNL     1     -12.731   8.472  72.588  1.00  0.00     0.000 HD 
BRANCH  20  22
HETATM   22  C   UNL     1     -10.800   7.734  72.911  1.00  0.00    -0.392 C  
HETATM   23  O   UNL     1      -9.793   8.284  73.350  1.00  0.00    -0.155 OA 
BRANCH  22  24
HETATM   24  N   UNL     1     -11.083   6.390  73.064  1.00  0.00    -0.393 N  
HETATM   25  H   UNL     1     -12.005   6.112  73.402  1.00  0.00     0.000 HD 
BRANCH  24  26
HETATM   26  C   UNL     1     -10.133   5.394  72.767  1.00  0.00    -0.181 A  
HETATM   27  C   UNL     1      -9.275   4.972  73.778  1.00  0.00    -0.121 A  
HETATM   28  C   UNL     1      -8.322   3.990  73.510  1.00  0.00    -0.089 A  
HETATM   29  C   UNL     1      -8.168   3.472  72.217  1.00  0.00    -0.079 A  
HETATM   30 CL   UNL     1      -6.934   2.283  72.021  1.00  0.00    -0.025 Cl 
HETATM   31  C   UNL     1      -8.984   3.922  71.174  1.00  0.00    -0.160 A  
HETATM   32  C   UNL     1      -9.996   4.865  71.478  1.00  0.00    -0.260 A  
HETATM   33  C   UNL     1      -8.832   3.497  69.735  1.00  0.00    -0.090 C  
HETATM   34  F   UNL     1      -9.949   2.883  69.254  1.00  0.00    -0.090 F  
HETATM   35  F   UNL     1      -8.628   4.574  68.917  1.00  0.00    -0.082 F  
HETATM   36  F   UNL     1      -7.804   2.650  69.460  1.00  0.00    -0.044 F  
ENDBRANCH  24  26
ENDBRANCH  22  24
ENDBRANCH  20  22
ENDBRANCH  17  20
ENDBRANCH  12  13
ENDBRANCH   8  12
ENDBRANCH   3   6
TORSDOF 7
ENDMDL
MODEL      255
REMARK 921   NORMALIZED FREE ENERGY PREDICTED BY IDOCK:   -4.45 KCAL/MOL
REMARK 922        TOTAL FREE ENERGY PREDICTED BY IDOCK:   -8.26 KCAL/MOL
REMARK 923 INTER-LIGAND FREE ENERGY PREDICTED BY IDOCK:   -6.70 KCAL/MOL
REMARK 924 INTRA-LIGAND FREE ENERGY PREDICTED BY IDOCK:   -1.56 KCAL/MOL
REMARK 927      BINDING AFFINITY PREDICTED BY RF-SCORE:    0.00 PKD
ROOT
HETATM    1  C   UNL     1     -13.807   8.904  71.983  1.00  0.00    -0.456 C  
HETATM    2  N   UNL     1     -12.997   9.594  71.017  1.00  0.00    -0.511 N  
HETATM    3  C   UNL     1     -11.672   9.263  70.832  1.00  0.00    -0.296 C  
HETATM    4  H   UNL     1     -13.409  10.341  70.458  1.00  0.00     0.000 HD 
HETATM    5  O   UNL     1     -11.112   8.346  71.424  1.00  0.00    -0.236 OA 
ENDROOT
BRANCH   3   6
HETATM    6  C   UNL     1     -10.934  10.116  69.847  1.00  0.00    -0.293 A  
HETATM    7  C   UNL     1      -9.551  10.189  69.934  1.00  0.00    -0.172 A  
HETATM    8  C   UNL     1      -8.879  10.951  68.987  1.00  0.00    -0.096 A  
HETATM    9  C   UNL     1      -9.605  11.658  68.034  1.00  0.00    -0.184 A  
HETATM   10  N   UNL     1     -11.675  10.776  68.914  1.00  0.00    -0.299 NA 
HETATM   11  C   UNL     1     -10.986  11.537  68.035  1.00  0.00    -0.231 A  
BRANCH   8  12
HETATM   12  O   UNL     1      -7.513  11.120  68.977  1.00  0.00    -0.116 OA 
BRANCH  12  13
HETATM   13  C   UNL     1      -6.984  12.362  68.701  1.00  0.00    -0.091 A  
HETATM   14  C   UNL     1      -6.686  13.165  69.805  1.00  0.00     0.149 A  
HETATM   15  C   UNL     1      -6.199  14.453  69.605  1.00  0.00    -0.126 A  
HETATM   16  F   UNL     1      -5.929  15.225  70.669  1.00  0.00    -0.140 F  
HETATM   17  C   UNL     1      -6.058  14.979  68.319  1.00  0.00    -0.120 A  
HETATM   18  C   UNL     1      -6.822  12.871  67.407  1.00  0.00    -0.133 A  
HETATM   19  C   UNL     1      -6.353  14.175  67.215  1.00  0.00     0.383 A  
BRANCH  17  20
HETATM   20  N   UNL     1      -5.636  16.319  68.163  1.00  0.00    -0.100 N  
HETATM   21  H   UNL     1      -4.776  16.524  67.655  1.00  0.00     0.000 HD 
BRANCH  20  22
HETATM   22  C   UNL     1      -6.387  17.356  68.698  1.00  0.00    -0.179 C  
HETATM   23  O   UNL     1      -6.129  17.939  69.749  1.00  0.00    -0.245 OA 
BRANCH  22  24
HETATM   24  N   UNL     1      -7.476  17.642  67.896  1.00  0.00    -0.199 N  
HETATM   25  H   UNL     1      -7.420  18.424  67.244  1.00  0.00     0.000 HD 
BRANCH  24  26
HETATM   26  C   UNL     1      -8.659  16.880  67.954  1.00  0.00    -0.208 A  
HETATM   27  C   UNL     1      -9.261  16.683  69.193  1.00  0.00    -0.167 A  
HETATM   28  C   UNL     1     -10.432  15.931  69.280  1.00  0.00    -0.253 A  
HETATM   29  C   UNL     1     -10.972  15.308  68.147  1.00  0.00    -0.292 A  
HETATM   30 CL   UNL     1     -12.407  14.386  68.402  1.00  0.00    -0.154 Cl 
HETATM   31  C   UNL     1     -10.351  15.449  66.900  1.00  0.00    -0.277 A  
HETATM   32  C   UNL     1      -9.206  16.277  66.815  1.00  0.00    -0.253 A  
HETATM   33  C   UNL     1     -10.801  14.743  65.645  1.00  0.00    -0.339 C  
HETATM   34  F   UNL     1     -11.150  15.614  64.658  1.00  0.00    -0.405 F  
HETATM   35  F   UNL     1      -9.798  13.978  65.118  1.00  0.00    -0.335 F  
HETATM   36  F   UNL     1     -11.856  13.895  65.773  1.00  0.00    -0.328 F  
ENDBRANCH  24  26
ENDBRANCH  22  24
ENDBRANCH  20  22
ENDBRANCH  17  20
ENDBRANCH  12  13
ENDBRANCH   8  12
ENDBRANCH   3   6
TORSDOF 7
ENDMDL
MODEL      256
REMARK 921   NORMALIZED FREE ENERGY PREDICTED BY IDOCK:   -4.45 KCAL/MOL
REMARK 922        TOTAL FREE ENERGY PREDICTED BY IDOCK:   -8.25 KCAL/MOL
REMARK 923 INTER-LIGAND FREE ENERGY PREDICTED BY IDOCK:   -6.88 KCAL/MOL
REMARK 924 INTRA-LIGAND FREE ENERGY PREDICTED BY IDOCK:   -1.37 KCAL/MOL
REMARK 927      BINDING AFFINITY PREDICTED BY RF-SCORE:    0.00 PKD
ROOT
HETATM    1  C   UNL     1     -12.559  11.996  63.484  1.00  0.00    -0.507 C  
HETATM    2  N   UNL     1     -11.636  11.739  64.556  1.00  0.00    -0.267 N  
HETATM    3  C   UNL     1     -10.276  11.706  64.333  1.00  0.00    -0.300 C  
HETATM    4  H   UNL     1     -11.994  11.578  65.497  1.00  0.00     0.000 HD 
HETATM    5  O   UNL     1      -9.761  11.940  63.245  1.00  0.00    -0.377 OA 
ENDROOT
BRANCH   3   6
HETATM    6  C   UNL     1      -9.445  11.353  65.527  1.00  0.00    -0.227 A  
HETATM    7  C   UNL     1      -8.487  12.258  65.962  1.00  0.00     0.427 A  
HETATM    8  C   UNL     1      -7.752  11.934  67.095  1.00  0.00    -0.163 A  
HETATM    9  C   UNL     1      -7.951  10.704  67.713  1.00  0.00    -0.110 A  
HETATM   10  N   UNL     1      -9.682  10.150  66.121  1.00  0.00    -0.204 NA 
HETATM   11  C   UNL     1      -8.920   9.856  67.197  1.00  0.00    -0.138 A  
BRANCH   8  12
HETATM   12  O   UNL     1      -6.761  12.735  67.614  1.00  0.00    -0.116 OA 
BRANCH  12  13
HETATM   13  C   UNL     1      -7.017  14.070  67.846  1.00  0.00    -0.161 A  
HETATM   14  C   UNL     1      -7.801  14.364  68.963  1.00  0.00    -0.077 A  
HETATM   15  C   UNL     1      -8.147  15.685  69.231  1.00  0.00    -0.244 A  
HETATM   16  F   UNL     1      -8.913  15.960  70.299  1.00  0.00     0.166 F  
HETATM   17  C   UNL     1      -7.773  16.717  68.368  1.00  0.00    -0.200 A  
HETATM   18  C   UNL     1      -6.616  15.100  66.987  1.00  0.00     0.469 A  
HETATM   19  C   UNL     1      -6.987  16.424  67.251  1.00  0.00    -0.218 A  
BRANCH  17  20
HETATM   20  N   UNL     1      -8.213  18.033  68.634  1.00  0.00    -0.300 N  
HETATM   21  H   UNL     1      -7.975  18.479  69.521  1.00  0.00     0.000 HD 
BRANCH  20  22
HETATM   22  C   UNL     1      -8.967  18.724  67.694  1.00  0.00    -0.279 C  
HETATM   23  O   UNL     1      -8.512  19.532  66.889  1.00  0.00    -0.275 OA 
BRANCH  22  24
HETATM   24  N   UNL     1     -10.304  18.387  67.791  1.00  0.00    -0.387 N  
HETATM   25  H   UNL     1     -10.998  19.131  67.861  1.00  0.00     0.000 HD 
BRANCH  24  26
HETATM   26  C   UNL     1     -10.731  17.046  67.798  1.00  0.00    -0.318 A  
HETATM   27  C   UNL     1     -10.667  16.323  66.611  1.00  0.00    -0.197 A  
HETATM   28  C   UNL     1     -11.086  14.993  66.588  1.00  0.00    -0.326 A  
HETATM   29  C   UNL     1     -11.640  14.395  67.727  1.00  0.00    -0.356 A  
HETATM   30 CL   UNL     1     -12.142  12.754  67.552  1.00  0.00    -0.319 Cl 
HETATM   31  C   UNL     1     -11.762  15.121  68.917  1.00  0.00    -0.357 A  
HETATM   32  C   UNL     1     -11.264  16.446  68.945  1.00  0.00    -0.304 A  
HETATM   33  C   UNL     1     -12.430  14.596  70.165  1.00  0.00    -0.317 C  
HETATM   34  F   UNL     1     -11.581  14.561  71.230  1.00  0.00    -0.354 F  
HETATM   35  F   UNL     1     -13.465  15.401  70.551  1.00  0.00    -0.393 F  
HETATM   36  F   UNL     1     -12.967  13.350  70.086  1.00  0.00    -0.155 F  
ENDBRANCH  24  26
ENDBRANCH  22  24
ENDBRANCH  20  22
ENDBRANCH  17  20
ENDBRANCH  12  13
ENDBRANCH   8  12
ENDBRANCH   3   6
TORSDOF 7
ENDMDL
MODEL      257
REMARK 921   NORMALIZED FREE ENERGY PREDICTED BY IDOCK:   -4.45 KCAL/MOL
REMARK 922        TOTAL FREE ENERGY PREDICTED BY IDOCK:   -8.25 KCAL/MOL
REMARK 923 INTER-LIGAND FREE ENERGY PREDICTED BY IDOCK:   -7.11 KCAL/MOL
REMARK 924 INTRA-LIGAND FREE ENERGY PREDICTED BY IDOCK:   -1.14 KCAL/MOL
REMARK 927      BINDING AFFINITY PREDICTED BY RF-SCORE:    0.00 PKD
ROOT
HETATM    1  C   UNL     1      -6.525  19.200  65.524  1.00  0.00    -0.268 C  
HETATM    2  N   UNL     1      -6.873  17.858  65.903  1.00  0.00    -0.294 N  
HETATM    3  C   UNL     1      -8.188  17.486  66.082  1.00  0.00    -0.187 C  
HETATM    4  H   UNL     1      -6.134  17.169  66.041  1.00  0.00     0.000 HD 
HETATM    5  O   UNL     1      -9.138  18.237  65.886  1.00  0.00    -0.503 OA 
ENDROOT
BRANCH   3   6
HETATM    6  C   UNL     1      -8.394  16.078  66.549  1.00  0.00    -0.313 A  
HETATM    7  C   UNL     1      -7.326  15.408  67.130  1.00  0.00    -0.203 A  
HETATM    8  C   UNL     1      -7.544  14.118  67.595  1.00  0.00    -0.180 A  
HETATM    9  C   UNL     1      -8.788  13.522  67.410  1.00  0.00    -0.221 A  
HETATM   10  N   UNL     1      -9.630  15.535  66.372  1.00  0.00    -0.268 NA 
HETATM   11  C   UNL     1      -9.790  14.265  66.803  1.00  0.00    -0.270 A  
BRANCH   8  12
HETATM   12  O   UNL     1      -6.565  13.341  68.171  1.00  0.00    -0.088 OA 
BRANCH  12  13
HETATM   13  C   UNL     1      -6.701  11.969  68.177  1.00  0.00    -0.064 A  
HETATM   14  C   UNL     1      -6.869  11.360  66.932  1.00  0.00    -0.142 A  
HETATM   15  C   UNL     1      -7.066   9.984  66.861  1.00  0.00    -0.090 A  
HETATM   16  F   UNL     1      -7.241   9.406  65.663  1.00  0.00    -0.085 F  
HETATM   17  C   UNL     1      -7.158   9.210  68.020  1.00  0.00    -0.078 A  
HETATM   18  C   UNL     1      -6.766  11.198  69.343  1.00  0.00    -0.120 A  
HETATM   19  C   UNL     1      -6.987   9.819  69.265  1.00  0.00    -0.056 A  
BRANCH  17  20
HETATM   20  N   UNL     1      -7.439   7.829  67.906  1.00  0.00    -0.102 N  
HETATM   21  H   UNL     1      -6.673   7.155  67.887  1.00  0.00     0.000 HD 
BRANCH  20  22
HETATM   22  C   UNL     1      -8.752   7.386  67.822  1.00  0.00    -0.126 C  
HETATM   23  O   UNL     1      -9.417   7.358  66.790  1.00  0.00    -0.159 OA 
BRANCH  22  24
HETATM   24  N   UNL     1      -9.219   6.990  69.061  1.00  0.00    -0.138 N  
HETATM   25  H   UNL     1      -8.908   6.098  69.447  1.00  0.00     0.000 HD 
BRANCH  24  26
HETATM   26  C   UNL     1     -10.112   7.785  69.805  1.00  0.00    -0.194 A  
HETATM   27  C   UNL     1     -10.784   7.205  70.876  1.00  0.00    -0.251 A  
HETATM   28  C   UNL     1     -11.676   7.969  71.628  1.00  0.00    -0.325 A  
HETATM   29  C   UNL     1     -11.961   9.294  71.275  1.00  0.00    -0.340 A  
HETATM   30 CL   UNL     1     -13.104  10.114  72.274  1.00  0.00    -0.441 Cl 
HETATM   31  C   UNL     1     -11.336   9.881  70.169  1.00  0.00    -0.335 A  
HETATM   32  C   UNL     1     -10.377   9.116  69.460  1.00  0.00    -0.220 A  
HETATM   33  C   UNL     1     -11.647  11.265  69.655  1.00  0.00    -0.330 C  
HETATM   34  F   UNL     1     -10.558  12.082  69.675  1.00  0.00    -0.061 F  
HETATM   35  F   UNL     1     -12.053  11.231  68.349  1.00  0.00    -0.367 F  
HETATM   36  F   UNL     1     -12.626  11.946  70.307  1.00  0.00    -0.293 F  
ENDBRANCH  24  26
ENDBRANCH  22  24
ENDBRANCH  20  22
ENDBRANCH  17  20
ENDBRANCH  12  13
ENDBRANCH   8  12
ENDBRANCH   3   6
TORSDOF 7
ENDMDL
MODEL      258
REMARK 921   NORMALIZED FREE ENERGY PREDICTED BY IDOCK:   -4.44 KCAL/MOL
REMARK 922        TOTAL FREE ENERGY PREDICTED BY IDOCK:   -8.25 KCAL/MOL
REMARK 923 INTER-LIGAND FREE ENERGY PREDICTED BY IDOCK:   -7.49 KCAL/MOL
REMARK 924 INTRA-LIGAND FREE ENERGY PREDICTED BY IDOCK:   -0.76 KCAL/MOL
REMARK 927      BINDING AFFINITY PREDICTED BY RF-SCORE:    0.00 PKD
ROOT
HETATM    1  C   UNL     1      -7.350  20.846  67.126  1.00  0.00    -0.309 C  
HETATM    2  N   UNL     1      -7.773  19.490  67.348  1.00  0.00    -0.246 N  
HETATM    3  C   UNL     1      -8.900  19.207  68.089  1.00  0.00    -0.319 C  
HETATM    4  H   UNL     1      -7.230  18.724  66.949  1.00  0.00     0.000 HD 
HETATM    5  O   UNL     1      -9.637  20.068  68.559  1.00  0.00    -0.294 OA 
ENDROOT
BRANCH   3   6
HETATM    6  C   UNL     1      -9.174  17.750  68.299  1.00  0.00    -0.280 A  
HETATM    7  C   UNL     1      -8.278  16.824  67.784  1.00  0.00    -0.190 A  
HETATM    8  C   UNL     1      -8.525  15.478  68.023  1.00  0.00    -0.143 A  
HETATM    9  C   UNL     1      -9.678  15.102  68.705  1.00  0.00    -0.221 A  
HETATM   10  N   UNL     1     -10.300  17.420  68.991  1.00  0.00    -0.349 NA 
HETATM   11  C   UNL     1     -10.524  16.099  69.168  1.00  0.00    -0.265 A  
BRANCH   8  12
HETATM   12  O   UNL     1      -7.726  14.463  67.550  1.00  0.00    -0.165 OA 
BRANCH  12  13
HETATM   13  C   UNL     1      -8.123  13.152  67.713  1.00  0.00    -0.165 A  
HETATM   14  C   UNL     1      -7.510  12.446  68.749  1.00  0.00    -0.056 A  
HETATM   15  C   UNL     1      -7.819  11.102  68.942  1.00  0.00    -0.131 A  
HETATM   16  F   UNL     1      -7.215  10.424  69.930  1.00  0.00    -0.107 F  
HETATM   17  C   UNL     1      -8.690  10.433  68.079  1.00  0.00    -0.123 A  
HETATM   18  C   UNL     1      -9.017  12.497  66.858  1.00  0.00    -0.212 A  
HETATM   19  C   UNL     1      -9.306  11.141  67.044  1.00  0.00    -0.182 A  
BRANCH  17  20
HETATM   20  N   UNL     1      -8.915   9.050  68.262  1.00  0.00    -0.133 N  
HETATM   21  H   UNL     1      -8.167   8.457  68.621  1.00  0.00     0.000 HD 
BRANCH  20  22
HETATM   22  C   UNL     1     -10.151   8.495  67.956  1.00  0.00    -0.200 C  
HETATM   23  O   UNL     1     -10.419   7.921  66.904  1.00  0.00    -0.325 OA 
BRANCH  22  24
HETATM   24  N   UNL     1     -11.046   8.684  68.992  1.00  0.00    -0.421 N  
HETATM   25  H   UNL     1     -11.842   9.305  68.852  1.00  0.00     0.000 HD 
BRANCH  24  26
HETATM   26  C   UNL     1     -10.886   8.041  70.235  1.00  0.00    -0.241 A  
HETATM   27  C   UNL     1     -11.223   8.737  71.391  1.00  0.00    -0.362 A  
HETATM   28  C   UNL     1     -11.072   8.126  72.635  1.00  0.00    -0.450 A  
HETATM   29  C   UNL     1     -10.518   6.843  72.742  1.00  0.00    -0.224 A  
HETATM   30 CL   UNL     1     -10.363   6.218  74.342  1.00  0.00    -0.324 Cl 
HETATM   31  C   UNL     1     -10.122   6.147  71.595  1.00  0.00    -0.218 A  
HETATM   32  C   UNL     1     -10.350   6.751  70.335  1.00  0.00    -0.223 A  
HETATM   33  C   UNL     1      -9.430   4.806  71.614  1.00  0.00    -0.151 C  
HETATM   34  F   UNL     1     -10.142   3.846  70.961  1.00  0.00    -0.253 F  
HETATM   35  F   UNL     1      -8.222   4.861  70.976  1.00  0.00    -0.093 F  
HETATM   36  F   UNL     1      -9.155   4.285  72.839  1.00  0.00    -0.109 F  
ENDBRANCH  24  26
ENDBRANCH  22  24
ENDBRANCH  20  22
ENDBRANCH  17  20
ENDBRANCH  12  13
ENDBRANCH   8  12
ENDBRANCH   3   6
TORSDOF 7
ENDMDL
MODEL      259
REMARK 921   NORMALIZED FREE ENERGY PREDICTED BY IDOCK:   -4.42 KCAL/MOL
REMARK 922        TOTAL FREE ENERGY PREDICTED BY IDOCK:   -8.21 KCAL/MOL
REMARK 923 INTER-LIGAND FREE ENERGY PREDICTED BY IDOCK:   -7.71 KCAL/MOL
REMARK 924 INTRA-LIGAND FREE ENERGY PREDICTED BY IDOCK:   -0.50 KCAL/MOL
REMARK 927      BINDING AFFINITY PREDICTED BY RF-SCORE:    0.00 PKD
ROOT
HETATM    1  C   UNL     1      -6.362   5.634  67.186  1.00  0.00    -0.042 C  
HETATM    2  N   UNL     1      -6.965   5.255  68.434  1.00  0.00    -0.059 N  
HETATM    3  C   UNL     1      -6.797   3.988  68.950  1.00  0.00    -0.046 C  
HETATM    4  H   UNL     1      -7.527   5.934  68.947  1.00  0.00     0.000 HD 
HETATM    5  O   UNL     1      -6.097   3.128  68.426  1.00  0.00    -0.024 OA 
ENDROOT
BRANCH   3   6
HETATM    6  C   UNL     1      -7.544   3.713  70.218  1.00  0.00    -0.044 A  
HETATM    7  C   UNL     1      -8.721   4.408  70.461  1.00  0.00    -0.119 A  
HETATM    8  C   UNL     1      -9.424   4.112  71.621  1.00  0.00    -0.150 A  
HETATM    9  C   UNL     1      -8.903   3.189  72.523  1.00  0.00    -0.105 A  
HETATM   10  N   UNL     1      -7.017   2.787  71.067  1.00  0.00    -0.032 NA 
HETATM   11  C   UNL     1      -7.712   2.556  72.203  1.00  0.00    -0.052 A  
BRANCH   8  12
HETATM   12  O   UNL     1     -10.591   4.744  71.986  1.00  0.00    -0.186 OA 
BRANCH  12  13
HETATM   13  C   UNL     1     -10.721   6.102  71.786  1.00  0.00    -0.242 A  
HETATM   14  C   UNL     1     -10.821   6.523  70.459  1.00  0.00    -0.323 A  
HETATM   15  C   UNL     1     -10.901   7.883  70.174  1.00  0.00    -0.243 A  
HETATM   16  F   UNL     1     -10.983   8.284  68.896  1.00  0.00    -0.171 F  
HETATM   17  C   UNL     1     -10.822   8.837  71.191  1.00  0.00    -0.268 A  
HETATM   18  C   UNL     1     -10.666   7.049  72.815  1.00  0.00    -0.306 A  
HETATM   19  C   UNL     1     -10.723   8.416  72.519  1.00  0.00    -0.372 A  
BRANCH  17  20
HETATM   20  N   UNL     1     -10.825  10.210  70.852  1.00  0.00    -0.359 N  
HETATM   21  H   UNL     1      -9.945  10.686  70.654  1.00  0.00     0.000 HD 
BRANCH  20  22
HETATM   22  C   UNL     1     -12.022  10.912  70.788  1.00  0.00    -0.346 C  
HETATM   23  O   UNL     1     -13.136  10.410  70.911  1.00  0.00    -0.384 OA 
BRANCH  22  24
HETATM   24  N   UNL     1     -11.793  12.255  70.555  1.00  0.00    -0.517 N  
HETATM   25  H   UNL     1     -11.768  12.898  71.345  1.00  0.00     0.000 HD 
BRANCH  24  26
HETATM   26  C   UNL     1     -11.594  12.757  69.254  1.00  0.00    -0.314 A  
HETATM   27  C   UNL     1     -11.886  11.933  68.172  1.00  0.00    -0.338 A  
HETATM   28  C   UNL     1     -11.695  12.404  66.874  1.00  0.00    -0.432 A  
HETATM   29  C   UNL     1     -11.144  13.671  66.643  1.00  0.00    -0.306 A  
HETATM   30 CL   UNL     1     -10.937  14.117  64.989  1.00  0.00    -0.365 Cl 
HETATM   31  C   UNL     1     -10.793  14.496  67.718  1.00  0.00    -0.267 A  
HETATM   32  C   UNL     1     -11.062  14.033  69.029  1.00  0.00    -0.296 A  
HETATM   33  C   UNL     1     -10.109  15.832  67.573  1.00  0.00    -0.245 C  
HETATM   34  F   UNL     1     -10.849  16.852  68.091  1.00  0.00    -0.330 F  
HETATM   35  F   UNL     1      -8.923  15.861  68.254  1.00  0.00    -0.174 F  
HETATM   36  F   UNL     1      -9.794  16.217  66.308  1.00  0.00    -0.249 F  
ENDBRANCH  24  26
ENDBRANCH  22  24
ENDBRANCH  20  22
ENDBRANCH  17  20
ENDBRANCH  12  13
ENDBRANCH   8  12
ENDBRANCH   3   6
TORSDOF 7
ENDMDL
MODEL      260
REMARK 921   NORMALIZED FREE ENERGY PREDICTED BY IDOCK:   -4.42 KCAL/MOL
REMARK 922        TOTAL FREE ENERGY PREDICTED BY IDOCK:   -8.21 KCAL/MOL
REMARK 923 INTER-LIGAND FREE ENERGY PREDICTED BY IDOCK:   -7.49 KCAL/MOL
REMARK 924 INTRA-LIGAND FREE ENERGY PREDICTED BY IDOCK:   -0.73 KCAL/MOL
REMARK 927      BINDING AFFINITY PREDICTED BY RF-SCORE:    0.00 PKD
ROOT
HETATM    1  C   UNL     1     -10.272  19.970  66.273  1.00  0.00    -0.478 C  
HETATM    2  N   UNL     1      -9.470  18.999  66.965  1.00  0.00    -0.308 N  
HETATM    3  C   UNL     1      -8.102  19.138  67.054  1.00  0.00    -0.262 C  
HETATM    4  H   UNL     1      -9.921  18.194  67.399  1.00  0.00     0.000 HD 
HETATM    5  O   UNL     1      -7.486  20.100  66.607  1.00  0.00    -0.262 OA 
ENDROOT
BRANCH   3   6
HETATM    6  C   UNL     1      -7.391  18.012  67.739  1.00  0.00    -0.213 A  
HETATM    7  C   UNL     1      -7.292  16.792  67.086  1.00  0.00    -0.222 A  
HETATM    8  C   UNL     1      -6.595  15.770  67.717  1.00  0.00    -0.159 A  
HETATM    9  C   UNL     1      -6.079  15.977  68.992  1.00  0.00    -0.128 A  
HETATM   10  N   UNL     1      -6.880  18.257  68.978  1.00  0.00    -0.260 NA 
HETATM   11  C   UNL     1      -6.242  17.226  69.573  1.00  0.00    -0.251 A  
BRANCH   8  12
HETATM   12  O   UNL     1      -6.443  14.510  67.184  1.00  0.00    -0.221 OA 
BRANCH  12  13
HETATM   13  C   UNL     1      -7.228  13.476  67.650  1.00  0.00    -0.168 A  
HETATM   14  C   UNL     1      -8.575  13.772  67.867  1.00  0.00    -0.183 A  
HETATM   15  C   UNL     1      -9.418  12.795  68.387  1.00  0.00    -0.162 A  
HETATM   16  F   UNL     1     -10.708  13.090  68.607  1.00  0.00    -0.236 F  
HETATM   17  C   UNL     1      -8.926  11.540  68.751  1.00  0.00    -0.047 A  
HETATM   18  C   UNL     1      -6.730  12.212  67.988  1.00  0.00    -0.073 A  
HETATM   19  C   UNL     1      -7.579  11.242  68.532  1.00  0.00    -0.123 A  
BRANCH  17  20
HETATM   20  N   UNL     1      -9.800  10.603  69.350  1.00  0.00    -0.379 N  
HETATM   21  H   UNL     1      -9.901  10.581  70.365  1.00  0.00     0.000 HD 
BRANCH  20  22
HETATM   22  C   UNL     1     -10.520   9.714  68.563  1.00  0.00    -0.212 C  
HETATM   23  O   UNL     1     -10.589   9.761  67.337  1.00  0.00    -0.251 OA 
BRANCH  22  24
HETATM   24  N   UNL     1     -11.159   8.771  69.345  1.00  0.00    -0.436 N  
HETATM   25  H   UNL     1     -11.951   9.057  69.920  1.00  0.00     0.000 HD 
BRANCH  24  26
HETATM   26  C   UNL     1     -10.746   7.425  69.367  1.00  0.00    -0.211 A  
HETATM   27  C   UNL     1     -10.417   6.852  70.591  1.00  0.00    -0.233 A  
HETATM   28  C   UNL     1     -10.001   5.522  70.642  1.00  0.00    -0.270 A  
HETATM   29  C   UNL     1      -9.841   4.774  69.468  1.00  0.00    -0.222 A  
HETATM   30 CL   UNL     1      -9.295   3.150  69.675  1.00  0.00    -0.225 Cl 
HETATM   31  C   UNL     1     -10.115   5.348  68.222  1.00  0.00    -0.225 A  
HETATM   32  C   UNL     1     -10.607   6.676  68.192  1.00  0.00    -0.294 A  
HETATM   33  C   UNL     1      -9.882   4.657  66.901  1.00  0.00    -0.213 C  
HETATM   34  F   UNL     1     -11.029   4.521  66.178  1.00  0.00    -0.266 F  
HETATM   35  F   UNL     1      -9.034   5.376  66.106  1.00  0.00    -0.125 F  
HETATM   36  F   UNL     1      -9.338   3.413  66.957  1.00  0.00    -0.168 F  
ENDBRANCH  24  26
ENDBRANCH  22  24
ENDBRANCH  20  22
ENDBRANCH  17  20
ENDBRANCH  12  13
ENDBRANCH   8  12
ENDBRANCH   3   6
TORSDOF 7
ENDMDL
MODEL      261
REMARK 921   NORMALIZED FREE ENERGY PREDICTED BY IDOCK:   -4.41 KCAL/MOL
REMARK 922        TOTAL FREE ENERGY PREDICTED BY IDOCK:   -8.20 KCAL/MOL
REMARK 923 INTER-LIGAND FREE ENERGY PREDICTED BY IDOCK:   -6.50 KCAL/MOL
REMARK 924 INTRA-LIGAND FREE ENERGY PREDICTED BY IDOCK:   -1.71 KCAL/MOL
REMARK 927      BINDING AFFINITY PREDICTED BY RF-SCORE:    0.00 PKD
ROOT
HETATM    1  C   UNL     1      -5.681  20.535  69.170  1.00  0.00    -0.347 C  
HETATM    2  N   UNL     1      -6.267  19.354  68.599  1.00  0.00    -0.235 N  
HETATM    3  C   UNL     1      -6.228  18.146  69.263  1.00  0.00    -0.253 C  
HETATM    4  H   UNL     1      -6.721  19.409  67.687  1.00  0.00     0.000 HD 
HETATM    5  O   UNL     1      -5.749  18.003  70.383  1.00  0.00    -0.238 OA 
ENDROOT
BRANCH   3   6
HETATM    6  C   UNL     1      -6.812  16.988  68.513  1.00  0.00    -0.179 A  
HETATM    7  C   UNL     1      -6.039  15.848  68.344  1.00  0.00    -0.105 A  
HETATM    8  C   UNL     1      -6.609  14.768  67.682  1.00  0.00    -0.158 A  
HETATM    9  C   UNL     1      -7.895  14.883  67.163  1.00  0.00    -0.203 A  
HETATM   10  N   UNL     1      -8.080  17.127  68.038  1.00  0.00    -0.204 NA 
HETATM   11  C   UNL     1      -8.585  16.068  67.368  1.00  0.00    -0.178 A  
BRANCH   8  12
HETATM   12  O   UNL     1      -5.943  13.591  67.433  1.00  0.00    -0.341 OA 
BRANCH  12  13
HETATM   13  C   UNL     1      -6.519  12.392  67.796  1.00  0.00    -0.115 A  
HETATM   14  C   UNL     1      -6.285  11.311  66.945  1.00  0.00    -0.123 A  
HETATM   15  C   UNL     1      -6.878  10.082  67.217  1.00  0.00    -0.082 A  
HETATM   16  F   UNL     1      -6.661   9.049  66.387  1.00  0.00    -0.063 F  
HETATM   17  C   UNL     1      -7.752   9.927  68.295  1.00  0.00    -0.085 A  
HETATM   18  C   UNL     1      -7.375  12.241  68.894  1.00  0.00    -0.041 A  
HETATM   19  C   UNL     1      -7.985  11.008  69.148  1.00  0.00    -0.081 A  
BRANCH  17  20
HETATM   20  N   UNL     1      -8.395   8.683  68.489  1.00  0.00    -0.122 N  
HETATM   21  H   UNL     1      -8.124   8.087  69.271  1.00  0.00     0.000 HD 
BRANCH  20  22
HETATM   22  C   UNL     1      -9.396   8.269  67.619  1.00  0.00    -0.137 C  
HETATM   23  O   UNL     1      -9.308   7.309  66.858  1.00  0.00    -0.142 OA 
BRANCH  22  24
HETATM   24  N   UNL     1     -10.503   9.089  67.716  1.00  0.00    -0.286 N  
HETATM   25  H   UNL     1     -11.232   8.863  68.393  1.00  0.00     0.000 HD 
BRANCH  24  26
HETATM   26  C   UNL     1     -10.653  10.230  66.903  1.00  0.00    -0.217 A  
HETATM   27  C   UNL     1     -10.197  10.174  65.590  1.00  0.00    -0.288 A  
HETATM   28  C   UNL     1     -10.329  11.290  64.765  1.00  0.00    -0.366 A  
HETATM   29  C   UNL     1     -10.851  12.492  65.260  1.00  0.00    -0.286 A  
HETATM   30 CL   UNL     1     -10.934  13.800  64.138  1.00  0.00    -0.254 Cl 
HETATM   31  C   UNL     1     -11.267  12.585  66.593  1.00  0.00    -0.357 A  
HETATM   32  C   UNL     1     -11.195  11.423  67.398  1.00  0.00    -0.370 A  
HETATM   33  C   UNL     1     -11.751  13.858  67.242  1.00  0.00    -0.386 C  
HETATM   34  F   UNL     1     -13.028  13.750  67.705  1.00  0.00     0.321 F  
HETATM   35  F   UNL     1     -10.994  14.179  68.335  1.00  0.00    -0.232 F  
HETATM   36  F   UNL     1     -11.738  14.975  66.468  1.00  0.00    -0.343 F  
ENDBRANCH  24  26
ENDBRANCH  22  24
ENDBRANCH  20  22
ENDBRANCH  17  20
ENDBRANCH  12  13
ENDBRANCH   8  12
ENDBRANCH   3   6
TORSDOF 7
ENDMDL
MODEL      262
REMARK 921   NORMALIZED FREE ENERGY PREDICTED BY IDOCK:   -4.40 KCAL/MOL
REMARK 922        TOTAL FREE ENERGY PREDICTED BY IDOCK:   -8.19 KCAL/MOL
REMARK 923 INTER-LIGAND FREE ENERGY PREDICTED BY IDOCK:   -7.53 KCAL/MOL
REMARK 924 INTRA-LIGAND FREE ENERGY PREDICTED BY IDOCK:   -0.66 KCAL/MOL
REMARK 927      BINDING AFFINITY PREDICTED BY RF-SCORE:    0.00 PKD
ROOT
HETATM    1  C   UNL     1     -10.231  20.285  66.611  1.00  0.00    -0.359 C  
HETATM    2  N   UNL     1      -9.249  19.470  67.271  1.00  0.00    -0.305 N  
HETATM    3  C   UNL     1      -7.975  19.940  67.509  1.00  0.00    -0.296 C  
HETATM    4  H   UNL     1      -9.498  18.527  67.570  1.00  0.00     0.000 HD 
HETATM    5  O   UNL     1      -7.609  21.077  67.230  1.00  0.00    -0.340 OA 
ENDROOT
BRANCH   3   6
HETATM    6  C   UNL     1      -7.039  18.954  68.136  1.00  0.00    -0.250 A  
HETATM    7  C   UNL     1      -6.849  17.728  67.514  1.00  0.00    -0.189 A  
HETATM    8  C   UNL     1      -5.946  16.841  68.086  1.00  0.00    -0.125 A  
HETATM    9  C   UNL     1      -5.318  17.177  69.281  1.00  0.00    -0.150 A  
HETATM   10  N   UNL     1      -6.425  19.325  69.294  1.00  0.00    -0.295 NA 
HETATM   11  C   UNL     1      -5.584  18.418  69.839  1.00  0.00    -0.234 A  
BRANCH   8  12
HETATM   12  O   UNL     1      -5.684  15.589  67.578  1.00  0.00    -0.264 OA 
BRANCH  12  13
HETATM   13  C   UNL     1      -6.581  14.565  67.797  1.00  0.00    -0.172 A  
HETATM   14  C   UNL     1      -7.899  14.803  67.402  1.00  0.00    -0.224 A  
HETATM   15  C   UNL     1      -8.872  13.837  67.640  1.00  0.00    -0.189 A  
HETATM   16  F   UNL     1     -10.140  14.077  67.271  1.00  0.00    -0.238 F  
HETATM   17  C   UNL     1      -8.565  12.657  68.321  1.00  0.00    -0.167 A  
HETATM   18  C   UNL     1      -6.257  13.375  68.459  1.00  0.00    -0.086 A  
HETATM   19  C   UNL     1      -7.246  12.418  68.714  1.00  0.00    -0.094 A  
BRANCH  17  20
HETATM   20  N   UNL     1      -9.599  11.739  68.612  1.00  0.00    -0.341 N  
HETATM   21  H   UNL     1     -10.123  11.824  69.483  1.00  0.00     0.000 HD 
BRANCH  20  22
HETATM   22  C   UNL     1      -9.905  10.721  67.718  1.00  0.00    -0.166 C  
HETATM   23  O   UNL     1      -9.359  10.558  66.630  1.00  0.00    -0.158 OA 
BRANCH  22  24
HETATM   24  N   UNL     1     -10.916   9.919  68.212  1.00  0.00    -0.415 N  
HETATM   25  H   UNL     1     -11.873  10.271  68.215  1.00  0.00     0.000 HD 
BRANCH  24  26
HETATM   26  C   UNL     1     -10.659   8.627  68.711  1.00  0.00    -0.140 A  
HETATM   27  C   UNL     1     -10.449   7.594  67.803  1.00  0.00    -0.282 A  
HETATM   28  C   UNL     1     -10.195   6.305  68.270  1.00  0.00    -0.198 A  
HETATM   29  C   UNL     1     -10.220   6.020  69.641  1.00  0.00    -0.208 A  
HETATM   30 CL   UNL     1      -9.916   4.379  70.078  1.00  0.00    -0.291 Cl 
HETATM   31  C   UNL     1     -10.482   7.034  70.569  1.00  0.00    -0.227 A  
HETATM   32  C   UNL     1     -10.664   8.352  70.084  1.00  0.00    -0.238 A  
HETATM   33  C   UNL     1     -10.624   6.808  72.054  1.00  0.00    -0.213 C  
HETATM   34  F   UNL     1      -9.704   7.508  72.775  1.00  0.00    -0.173 F  
HETATM   35  F   UNL     1     -11.842   7.233  72.508  1.00  0.00    -0.293 F  
HETATM   36  F   UNL     1     -10.520   5.522  72.483  1.00  0.00    -0.214 F  
ENDBRANCH  24  26
ENDBRANCH  22  24
ENDBRANCH  20  22
ENDBRANCH  17  20
ENDBRANCH  12  13
ENDBRANCH   8  12
ENDBRANCH   3   6
TORSDOF 7
ENDMDL
MODEL      263
REMARK 921   NORMALIZED FREE ENERGY PREDICTED BY IDOCK:   -4.40 KCAL/MOL
REMARK 922        TOTAL FREE ENERGY PREDICTED BY IDOCK:   -8.19 KCAL/MOL
REMARK 923 INTER-LIGAND FREE ENERGY PREDICTED BY IDOCK:   -7.38 KCAL/MOL
REMARK 924 INTRA-LIGAND FREE ENERGY PREDICTED BY IDOCK:   -0.80 KCAL/MOL
REMARK 927      BINDING AFFINITY PREDICTED BY RF-SCORE:    0.00 PKD
ROOT
HETATM    1  C   UNL     1      -9.709  20.713  67.225  1.00  0.00    -0.422 C  
HETATM    2  N   UNL     1      -9.399  19.403  67.730  1.00  0.00    -0.309 N  
HETATM    3  C   UNL     1      -9.925  18.271  67.146  1.00  0.00    -0.337 C  
HETATM    4  H   UNL     1      -8.778  19.310  68.533  1.00  0.00     0.000 HD 
HETATM    5  O   UNL     1     -10.637  18.291  66.147  1.00  0.00    -0.400 OA 
ENDROOT
BRANCH   3   6
HETATM    6  C   UNL     1      -9.575  16.983  67.824  1.00  0.00    -0.244 A  
HETATM    7  C   UNL     1      -8.735  16.093  67.169  1.00  0.00    -0.216 A  
HETATM    8  C   UNL     1      -8.386  14.922  67.828  1.00  0.00    -0.157 A  
HETATM    9  C   UNL     1      -8.931  14.651  69.080  1.00  0.00    -0.093 A  
HETATM   10  N   UNL     1     -10.108  16.761  69.057  1.00  0.00    -0.272 NA 
HETATM   11  C   UNL     1      -9.774  15.593  69.649  1.00  0.00    -0.276 A  
BRANCH   8  12
HETATM   12  O   UNL     1      -7.579  13.952  67.280  1.00  0.00    -0.160 OA 
BRANCH  12  13
HETATM   13  C   UNL     1      -8.038  12.655  67.193  1.00  0.00    -0.141 A  
HETATM   14  C   UNL     1      -9.377  12.497  66.829  1.00  0.00    -0.230 A  
HETATM   15  C   UNL     1      -9.927  11.220  66.772  1.00  0.00    -0.206 A  
HETATM   16  F   UNL     1     -11.218  11.075  66.435  1.00  0.00    -0.304 F  
HETATM   17  C   UNL     1      -9.179  10.097  67.130  1.00  0.00    -0.138 A  
HETATM   18  C   UNL     1      -7.272  11.533  67.530  1.00  0.00    -0.111 A  
HETATM   19  C   UNL     1      -7.839  10.254  67.492  1.00  0.00    -0.102 A  
BRANCH  17  20
HETATM   20  N   UNL     1      -9.799   8.827  67.135  1.00  0.00    -0.188 N  
HETATM   21  H   UNL     1     -10.602   8.651  66.531  1.00  0.00     0.000 HD 
BRANCH  20  22
HETATM   22  C   UNL     1      -9.321   7.817  67.959  1.00  0.00    -0.141 C  
HETATM   23  O   UNL     1      -9.025   6.686  67.582  1.00  0.00    -0.114 OA 
BRANCH  22  24
HETATM   24  N   UNL     1      -9.230   8.250  69.269  1.00  0.00    -0.151 N  
HETATM   25  H   UNL     1      -8.311   8.450  69.663  1.00  0.00     0.000 HD 
BRANCH  24  26
HETATM   26  C   UNL     1     -10.374   8.423  70.072  1.00  0.00    -0.211 A  
HETATM   27  C   UNL     1     -10.962   7.298  70.640  1.00  0.00    -0.278 A  
HETATM   28  C   UNL     1     -12.097   7.440  71.437  1.00  0.00    -0.357 A  
HETATM   29  C   UNL     1     -12.697   8.693  71.616  1.00  0.00    -0.341 A  
HETATM   30 CL   UNL     1     -14.111   8.721  72.605  1.00  0.00    -0.418 Cl 
HETATM   31  C   UNL     1     -12.152   9.830  71.010  1.00  0.00    -0.434 A  
HETATM   32  C   UNL     1     -10.957   9.681  70.264  1.00  0.00    -0.337 A  
HETATM   33  C   UNL     1     -12.778  11.202  71.065  1.00  0.00    -0.378 C  
HETATM   34  F   UNL     1     -11.959  12.122  71.648  1.00  0.00     0.054 F  
HETATM   35  F   UNL     1     -13.030  11.684  69.810  1.00  0.00     0.046 F  
HETATM   36  F   UNL     1     -13.963  11.301  71.722  1.00  0.00    -0.021 F  
ENDBRANCH  24  26
ENDBRANCH  22  24
ENDBRANCH  20  22
ENDBRANCH  17  20
ENDBRANCH  12  13
ENDBRANCH   8  12
ENDBRANCH   3   6
TORSDOF 7
ENDMDL
MODEL      264
REMARK 921   NORMALIZED FREE ENERGY PREDICTED BY IDOCK:   -4.40 KCAL/MOL
REMARK 922        TOTAL FREE ENERGY PREDICTED BY IDOCK:   -8.19 KCAL/MOL
REMARK 923 INTER-LIGAND FREE ENERGY PREDICTED BY IDOCK:   -7.76 KCAL/MOL
REMARK 924 INTRA-LIGAND FREE ENERGY PREDICTED BY IDOCK:   -0.43 KCAL/MOL
REMARK 927      BINDING AFFINITY PREDICTED BY RF-SCORE:    0.00 PKD
ROOT
HETATM    1  C   UNL     1      -5.148  18.491  64.584  1.00  0.00    -0.139 C  
HETATM    2  N   UNL     1      -6.360  18.569  65.352  1.00  0.00    -0.279 N  
HETATM    3  C   UNL     1      -6.935  19.784  65.655  1.00  0.00    -0.306 C  
HETATM    4  H   UNL     1      -6.803  17.710  65.678  1.00  0.00     0.000 HD 
HETATM    5  O   UNL     1      -6.498  20.860  65.260  1.00  0.00    -0.231 OA 
ENDROOT
BRANCH   3   6
HETATM    6  C   UNL     1      -8.152  19.713  66.525  1.00  0.00    -0.320 A  
HETATM    7  C   UNL     1      -8.913  18.552  66.511  1.00  0.00    -0.300 A  
HETATM    8  C   UNL     1     -10.015  18.486  67.353  1.00  0.00    -0.330 A  
HETATM    9  C   UNL     1     -10.355  19.592  68.126  1.00  0.00    -0.550 A  
HETATM   10  N   UNL     1      -8.443  20.806  67.285  1.00  0.00    -0.231 NA 
HETATM   11  C   UNL     1      -9.544  20.715  68.061  1.00  0.00    -0.025 A  
BRANCH   8  12
HETATM   12  O   UNL     1     -10.859  17.402  67.418  1.00  0.00    -0.290 OA 
BRANCH  12  13
HETATM   13  C   UNL     1     -10.394  16.155  67.056  1.00  0.00    -0.290 A  
HETATM   14  C   UNL     1     -10.891  15.635  65.859  1.00  0.00    -0.297 A  
HETATM   15  C   UNL     1     -10.509  14.359  65.454  1.00  0.00    -0.373 A  
HETATM   16  F   UNL     1     -11.001  13.858  64.310  1.00  0.00    -0.378 F  
HETATM   17  C   UNL     1      -9.684  13.566  66.255  1.00  0.00    -0.277 A  
HETATM   18  C   UNL     1      -9.546  15.378  67.854  1.00  0.00    -0.206 A  
HETATM   19  C   UNL     1      -9.185  14.088  67.451  1.00  0.00    -0.216 A  
BRANCH  17  20
HETATM   20  N   UNL     1      -9.386  12.247  65.845  1.00  0.00    -0.407 N  
HETATM   21  H   UNL     1      -8.833  12.090  65.001  1.00  0.00     0.000 HD 
BRANCH  20  22
HETATM   22  C   UNL     1      -9.841  11.164  66.585  1.00  0.00    -0.199 C  
HETATM   23  O   UNL     1     -10.613  11.241  67.537  1.00  0.00    -0.198 OA 
BRANCH  22  24
HETATM   24  N   UNL     1      -9.300   9.983  66.113  1.00  0.00    -0.164 N  
HETATM   25  H   UNL     1      -8.790   9.988  65.230  1.00  0.00     0.000 HD 
BRANCH  24  26
HETATM   26  C   UNL     1      -9.435   8.772  66.820  1.00  0.00    -0.191 A  
HETATM   27  C   UNL     1      -9.161   8.766  68.184  1.00  0.00    -0.145 A  
HETATM   28  C   UNL     1      -9.284   7.581  68.908  1.00  0.00    -0.142 A  
HETATM   29  C   UNL     1      -9.610   6.378  68.267  1.00  0.00    -0.123 A  
HETATM   30 CL   UNL     1      -9.702   4.983  69.278  1.00  0.00    -0.230 Cl 
HETATM   31  C   UNL     1      -9.837   6.352  66.887  1.00  0.00    -0.202 A  
HETATM   32  C   UNL     1      -9.781   7.577  66.178  1.00  0.00    -0.001 A  
HETATM   33  C   UNL     1     -10.099   5.095  66.094  1.00  0.00    -0.207 C  
HETATM   34  F   UNL     1     -11.309   5.120  65.469  1.00  0.00    -0.133 F  
HETATM   35  F   UNL     1      -9.177   4.935  65.097  1.00  0.00    -0.151 F  
HETATM   36  F   UNL     1     -10.071   3.926  66.787  1.00  0.00    -0.231 F  
ENDBRANCH  24  26
ENDBRANCH  22  24
ENDBRANCH  20  22
ENDBRANCH  17  20
ENDBRANCH  12  13
ENDBRANCH   8  12
ENDBRANCH   3   6
TORSDOF 7
ENDMDL
MODEL      265
REMARK 921   NORMALIZED FREE ENERGY PREDICTED BY IDOCK:   -4.37 KCAL/MOL
REMARK 922        TOTAL FREE ENERGY PREDICTED BY IDOCK:   -8.15 KCAL/MOL
REMARK 923 INTER-LIGAND FREE ENERGY PREDICTED BY IDOCK:   -6.98 KCAL/MOL
REMARK 924 INTRA-LIGAND FREE ENERGY PREDICTED BY IDOCK:   -1.17 KCAL/MOL
REMARK 927      BINDING AFFINITY PREDICTED BY RF-SCORE:    0.00 PKD
ROOT
HETATM    1  C   UNL     1     -11.015   5.955  70.144  1.00  0.00    -0.342 C  
HETATM    2  N   UNL     1     -10.633   7.022  69.260  1.00  0.00    -0.217 N  
HETATM    3  C   UNL     1     -10.641   6.852  67.892  1.00  0.00    -0.231 C  
HETATM    4  H   UNL     1     -10.350   7.920  69.652  1.00  0.00     0.000 HD 
HETATM    5  O   UNL     1     -11.015   5.824  67.338  1.00  0.00    -0.249 OA 
ENDROOT
BRANCH   3   6
HETATM    6  C   UNL     1     -10.146   8.024  67.102  1.00  0.00    -0.263 A  
HETATM    7  C   UNL     1     -10.488   9.302  67.524  1.00  0.00    -0.338 A  
HETATM    8  C   UNL     1      -9.988  10.380  66.805  1.00  0.00    -0.206 A  
HETATM    9  C   UNL     1      -9.224  10.149  65.665  1.00  0.00    -0.232 A  
HETATM   10  N   UNL     1      -9.382   7.762  66.006  1.00  0.00    -0.096 NA 
HETATM   11  C   UNL     1      -8.947   8.837  65.312  1.00  0.00    -0.133 A  
BRANCH   8  12
HETATM   12  O   UNL     1     -10.270  11.692  67.107  1.00  0.00    -0.207 OA 
BRANCH  12  13
HETATM   13  C   UNL     1      -9.235  12.587  67.282  1.00  0.00    -0.190 A  
HETATM   14  C   UNL     1      -8.165  12.148  68.064  1.00  0.00    -0.158 A  
HETATM   15  C   UNL     1      -7.108  13.014  68.330  1.00  0.00    -0.103 A  
HETATM   16  F   UNL     1      -6.089  12.591  69.094  1.00  0.00    -0.066 F  
HETATM   17  C   UNL     1      -7.128  14.334  67.877  1.00  0.00    -0.160 A  
HETATM   18  C   UNL     1      -9.253  13.902  66.802  1.00  0.00    -0.267 A  
HETATM   19  C   UNL     1      -8.197  14.773  67.092  1.00  0.00    -0.239 A  
BRANCH  17  20
HETATM   20  N   UNL     1      -6.073  15.203  68.237  1.00  0.00    -0.108 N  
HETATM   21  H   UNL     1      -5.293  15.348  67.595  1.00  0.00     0.000 HD 
BRANCH  20  22
HETATM   22  C   UNL     1      -6.094  15.861  69.459  1.00  0.00    -0.152 C  
HETATM   23  O   UNL     1      -6.247  15.312  70.548  1.00  0.00    -0.088 OA 
BRANCH  22  24
HETATM   24  N   UNL     1      -5.929  17.223  69.289  1.00  0.00    -0.203 N  
HETATM   25  H   UNL     1      -5.169  17.696  69.777  1.00  0.00     0.000 HD 
BRANCH  24  26
HETATM   26  C   UNL     1      -6.785  17.974  68.461  1.00  0.00    -0.225 A  
HETATM   27  C   UNL     1      -8.145  17.993  68.753  1.00  0.00    -0.247 A  
HETATM   28  C   UNL     1      -9.015  18.726  67.947  1.00  0.00    -0.320 A  
HETATM   29  C   UNL     1      -8.550  19.387  66.803  1.00  0.00    -0.311 A  
HETATM   30 CL   UNL     1      -9.738  20.233  65.882  1.00  0.00    -0.387 Cl 
HETATM   31  C   UNL     1      -7.194  19.336  66.460  1.00  0.00    -0.241 A  
HETATM   32  C   UNL     1      -6.311  18.649  67.329  1.00  0.00    -0.192 A  
HETATM   33  C   UNL     1      -6.615  19.932  65.201  1.00  0.00    -0.290 C  
HETATM   34  F   UNL     1      -5.674  20.882  65.462  1.00  0.00    -0.225 F  
HETATM   35  F   UNL     1      -5.976  18.985  64.449  1.00  0.00    -0.287 F  
HETATM   36  F   UNL     1      -7.497  20.518  64.348  1.00  0.00    -0.004 F  
ENDBRANCH  24  26
ENDBRANCH  22  24
ENDBRANCH  20  22
ENDBRANCH  17  20
ENDBRANCH  12  13
ENDBRANCH   8  12
ENDBRANCH   3   6
TORSDOF 7
ENDMDL
MODEL      266
REMARK 921   NORMALIZED FREE ENERGY PREDICTED BY IDOCK:   -4.34 KCAL/MOL
REMARK 922        TOTAL FREE ENERGY PREDICTED BY IDOCK:   -8.10 KCAL/MOL
REMARK 923 INTER-LIGAND FREE ENERGY PREDICTED BY IDOCK:   -8.12 KCAL/MOL
REMARK 924 INTRA-LIGAND FREE ENERGY PREDICTED BY IDOCK:    0.02 KCAL/MOL
REMARK 927      BINDING AFFINITY PREDICTED BY RF-SCORE:    0.00 PKD
ROOT
HETATM    1  C   UNL     1     -10.858  19.612  65.516  1.00  0.00    -0.163 C  
HETATM    2  N   UNL     1      -9.636  19.357  66.228  1.00  0.00    -0.367 N  
HETATM    3  C   UNL     1      -9.218  20.186  67.247  1.00  0.00    -0.382 C  
HETATM    4  H   UNL     1      -9.069  18.548  65.975  1.00  0.00     0.000 HD 
HETATM    5  O   UNL     1      -9.865  21.147  67.648  1.00  0.00    -0.254 OA 
ENDROOT
BRANCH   3   6
HETATM    6  C   UNL     1      -7.890  19.838  67.845  1.00  0.00    -0.293 A  
HETATM    7  C   UNL     1      -7.728  18.585  68.420  1.00  0.00    -0.319 A  
HETATM    8  C   UNL     1      -6.478  18.262  68.934  1.00  0.00    -0.229 A  
HETATM    9  C   UNL     1      -5.462  19.213  68.915  1.00  0.00    -0.207 A  
HETATM   10  N   UNL     1      -6.912  20.784  67.790  1.00  0.00    -0.312 NA 
HETATM   11  C   UNL     1      -5.724  20.445  68.335  1.00  0.00    -0.270 A  
BRANCH   8  12
HETATM   12  O   UNL     1      -6.194  17.063  69.546  1.00  0.00    -0.218 OA 
BRANCH  12  13
HETATM   13  C   UNL     1      -6.706  15.895  69.023  1.00  0.00    -0.151 A  
HETATM   14  C   UNL     1      -6.548  14.748  69.804  1.00  0.00    -0.169 A  
HETATM   15  C   UNL     1      -6.991  13.521  69.319  1.00  0.00    -0.008 A  
HETATM   16  F   UNL     1      -6.824  12.420  70.068  1.00  0.00     0.010 F  
HETATM   17  C   UNL     1      -7.536  13.407  68.039  1.00  0.00    -0.143 A  
HETATM   18  C   UNL     1      -7.274  15.795  67.747  1.00  0.00    -0.172 A  
HETATM   19  C   UNL     1      -7.696  14.554  67.258  1.00  0.00    -0.177 A  
BRANCH  17  20
HETATM   20  N   UNL     1      -7.899  12.130  67.554  1.00  0.00    -0.151 N  
HETATM   21  H   UNL     1      -7.174  11.456  67.305  1.00  0.00     0.000 HD 
BRANCH  20  22
HETATM   22  C   UNL     1      -9.238  11.787  67.415  1.00  0.00    -0.174 C  
HETATM   23  O   UNL     1     -10.099  12.513  66.925  1.00  0.00    -0.221 OA 
BRANCH  22  24
HETATM   24  N   UNL     1      -9.477  10.520  67.913  1.00  0.00    -0.146 N  
HETATM   25  H   UNL     1      -8.993   9.725  67.498  1.00  0.00     0.000 HD 
BRANCH  24  26
HETATM   26  C   UNL     1     -10.371  10.300  68.978  1.00  0.00    -0.211 A  
HETATM   27  C   UNL     1     -11.547  11.043  69.023  1.00  0.00    -0.392 A  
HETATM   28  C   UNL     1     -12.449  10.848  70.068  1.00  0.00    -0.332 A  
HETATM   29  C   UNL     1     -12.155   9.964  71.114  1.00  0.00    -0.374 A  
HETATM   30 CL   UNL     1     -13.347   9.839  72.355  1.00  0.00    -0.451 Cl 
HETATM   31  C   UNL     1     -10.954   9.246  71.116  1.00  0.00    -0.409 A  
HETATM   32  C   UNL     1     -10.082   9.400  70.011  1.00  0.00    -0.259 A  
HETATM   33  C   UNL     1     -10.507   8.347  72.242  1.00  0.00    -0.337 C  
HETATM   34  F   UNL     1     -10.328   7.059  71.836  1.00  0.00    -0.192 F  
HETATM   35  F   UNL     1      -9.297   8.741  72.743  1.00  0.00    -0.315 F  
HETATM   36  F   UNL     1     -11.327   8.277  73.324  1.00  0.00    -0.330 F  
ENDBRANCH  24  26
ENDBRANCH  22  24
ENDBRANCH  20  22
ENDBRANCH  17  20
ENDBRANCH  12  13
ENDBRANCH   8  12
ENDBRANCH   3   6
TORSDOF 7
ENDMDL
MODEL      267
REMARK 921   NORMALIZED FREE ENERGY PREDICTED BY IDOCK:   -4.33 KCAL/MOL
REMARK 922        TOTAL FREE ENERGY PREDICTED BY IDOCK:   -8.08 KCAL/MOL
REMARK 923 INTER-LIGAND FREE ENERGY PREDICTED BY IDOCK:   -7.49 KCAL/MOL
REMARK 924 INTRA-LIGAND FREE ENERGY PREDICTED BY IDOCK:   -0.59 KCAL/MOL
REMARK 927      BINDING AFFINITY PREDICTED BY RF-SCORE:    0.00 PKD
ROOT
HETATM    1  C   UNL     1     -10.695   6.854  72.885  1.00  0.00    -0.277 C  
HETATM    2  N   UNL     1      -9.902   7.258  71.757  1.00  0.00    -0.161 N  
HETATM    3  C   UNL     1      -8.525   7.226  71.806  1.00  0.00    -0.111 C  
HETATM    4  H   UNL     1     -10.366   7.573  70.905  1.00  0.00     0.000 HD 
HETATM    5  O   UNL     1      -7.889   6.813  72.770  1.00  0.00    -0.098 OA 
ENDROOT
BRANCH   3   6
HETATM    6  C   UNL     1      -7.832   7.746  70.585  1.00  0.00    -0.096 A  
HETATM    7  C   UNL     1      -8.496   7.685  69.367  1.00  0.00    -0.132 A  
HETATM    8  C   UNL     1      -7.857   8.209  68.251  1.00  0.00    -0.122 A  
HETATM    9  C   UNL     1      -6.566   8.714  68.373  1.00  0.00    -0.060 A  
HETATM   10  N   UNL     1      -6.578   8.253  70.745  1.00  0.00    -0.037 NA 
HETATM   11  C   UNL     1      -5.976   8.718  69.628  1.00  0.00    -0.032 A  
BRANCH   8  12
HETATM   12  O   UNL     1      -8.398   8.191  66.986  1.00  0.00    -0.113 OA 
BRANCH  12  13
HETATM   13  C   UNL     1      -8.771   9.376  66.389  1.00  0.00    -0.135 A  
HETATM   14  C   UNL     1      -8.396  10.546  67.051  1.00  0.00    -0.128 A  
HETATM   15  C   UNL     1      -8.783  11.780  66.538  1.00  0.00    -0.173 A  
HETATM   16  F   UNL     1      -8.431  12.901  67.187  1.00  0.00    -0.172 F  
HETATM   17  C   UNL     1      -9.592  11.866  65.403  1.00  0.00    -0.165 A  
HETATM   18  C   UNL     1      -9.562   9.452  65.236  1.00  0.00    -0.251 A  
HETATM   19  C   UNL     1      -9.967  10.696  64.739  1.00  0.00    -0.391 A  
BRANCH  17  20
HETATM   20  N   UNL     1     -10.029  13.136  64.962  1.00  0.00    -0.530 N  
HETATM   21  H   UNL     1      -9.349  13.823  64.637  1.00  0.00     0.000 HD 
BRANCH  20  22
HETATM   22  C   UNL     1     -11.381  13.453  64.969  1.00  0.00    -0.312 C  
HETATM   23  O   UNL     1     -11.994  13.930  64.017  1.00  0.00    -0.439 OA 
BRANCH  22  24
HETATM   24  N   UNL     1     -11.948  13.168  66.197  1.00  0.00    -0.406 N  
HETATM   25  H   UNL     1     -12.542  12.345  66.290  1.00  0.00     0.000 HD 
BRANCH  24  26
HETATM   26  C   UNL     1     -11.727  13.986  67.321  1.00  0.00    -0.389 A  
HETATM   27  C   UNL     1     -10.913  15.106  67.178  1.00  0.00    -0.326 A  
HETATM   28  C   UNL     1     -10.674  15.931  68.276  1.00  0.00    -0.291 A  
HETATM   29  C   UNL     1     -11.185  15.610  69.541  1.00  0.00    -0.313 A  
HETATM   30 CL   UNL     1     -10.791  16.703  70.816  1.00  0.00     0.136 Cl 
HETATM   31  C   UNL     1     -11.962  14.460  69.718  1.00  0.00    -0.385 A  
HETATM   32  C   UNL     1     -12.257  13.672  68.579  1.00  0.00    -0.183 A  
HETATM   33  C   UNL     1     -12.475  13.980  71.053  1.00  0.00    -0.371 C  
HETATM   34  F   UNL     1     -13.835  13.916  71.093  1.00  0.00    -0.310 F  
HETATM   35  F   UNL     1     -12.043  12.712  71.326  1.00  0.00    -0.341 F  
HETATM   36  F   UNL     1     -12.113  14.714  72.139  1.00  0.00    -0.379 F  
ENDBRANCH  24  26
ENDBRANCH  22  24
ENDBRANCH  20  22
ENDBRANCH  17  20
ENDBRANCH  12  13
ENDBRANCH   8  12
ENDBRANCH   3   6
TORSDOF 7
ENDMDL
MODEL      268
REMARK 921   NORMALIZED FREE ENERGY PREDICTED BY IDOCK:   -4.33 KCAL/MOL
REMARK 922        TOTAL FREE ENERGY PREDICTED BY IDOCK:   -8.08 KCAL/MOL
REMARK 923 INTER-LIGAND FREE ENERGY PREDICTED BY IDOCK:   -6.89 KCAL/MOL
REMARK 924 INTRA-LIGAND FREE ENERGY PREDICTED BY IDOCK:   -1.19 KCAL/MOL
REMARK 927      BINDING AFFINITY PREDICTED BY RF-SCORE:    0.00 PKD
ROOT
HETATM    1  C   UNL     1      -6.830  15.788  68.250  1.00  0.00    -0.118 C  
HETATM    2  N   UNL     1      -7.861  15.264  67.396  1.00  0.00    -0.177 N  
HETATM    3  C   UNL     1      -8.799  16.093  66.820  1.00  0.00    -0.244 C  
HETATM    4  H   UNL     1      -7.899  14.261  67.214  1.00  0.00     0.000 HD 
HETATM    5  O   UNL     1      -8.795  17.313  66.946  1.00  0.00    -0.224 OA 
ENDROOT
BRANCH   3   6
HETATM    6  C   UNL     1      -9.855  15.398  66.017  1.00  0.00    -0.326 A  
HETATM    7  C   UNL     1     -10.138  14.069  66.300  1.00  0.00    -0.307 A  
HETATM    8  C   UNL     1     -11.149  13.451  65.574  1.00  0.00    -0.282 A  
HETATM    9  C   UNL     1     -11.793  14.152  64.560  1.00  0.00    -0.451 A  
HETATM   10  N   UNL     1     -10.480  16.121  65.047  1.00  0.00    -0.615 NA 
HETATM   11  C   UNL     1     -11.430  15.472  64.339  1.00  0.00    -0.259 A  
BRANCH   8  12
HETATM   12  O   UNL     1     -11.511  12.134  65.744  1.00  0.00    -0.347 OA 
BRANCH  12  13
HETATM   13  C   UNL     1     -10.534  11.162  65.801  1.00  0.00    -0.246 A  
HETATM   14  C   UNL     1     -10.442  10.449  66.997  1.00  0.00    -0.309 A  
HETATM   15  C   UNL     1      -9.446   9.489  67.150  1.00  0.00    -0.149 A  
HETATM   16  F   UNL     1      -9.354   8.816  68.307  1.00  0.00    -0.136 F  
HETATM   17  C   UNL     1      -8.500   9.268  66.147  1.00  0.00    -0.128 A  
HETATM   18  C   UNL     1      -9.605  10.931  64.779  1.00  0.00    -0.301 A  
HETATM   19  C   UNL     1      -8.593   9.979  64.949  1.00  0.00    -0.184 A  
BRANCH  17  20
HETATM   20  N   UNL     1      -7.458   8.340  66.374  1.00  0.00    -0.079 N  
HETATM   21  H   UNL     1      -6.532   8.673  66.644  1.00  0.00     0.000 HD 
BRANCH  20  22
HETATM   22  C   UNL     1      -7.688   6.979  66.231  1.00  0.00    -0.094 C  
HETATM   23  O   UNL     1      -8.541   6.486  65.497  1.00  0.00    -0.151 OA 
BRANCH  22  24
HETATM   24  N   UNL     1      -6.834   6.247  67.034  1.00  0.00    -0.061 N  
HETATM   25  H   UNL     1      -5.891   6.046  66.703  1.00  0.00     0.000 HD 
BRANCH  24  26
HETATM   26  C   UNL     1      -7.233   5.772  68.299  1.00  0.00    -0.076 A  
HETATM   27  C   UNL     1      -6.385   4.904  68.980  1.00  0.00    -0.032 A  
HETATM   28  C   UNL     1      -6.757   4.417  70.232  1.00  0.00    -0.033 A  
HETATM   29  C   UNL     1      -8.005   4.732  70.784  1.00  0.00    -0.081 A  
HETATM   30 CL   UNL     1      -8.346   4.039  72.327  1.00  0.00    -0.096 Cl 
HETATM   31  C   UNL     1      -8.895   5.561  70.092  1.00  0.00    -0.147 A  
HETATM   32  C   UNL     1      -8.473   6.107  68.856  1.00  0.00    -0.118 A  
HETATM   33  C   UNL     1     -10.294   5.879  70.559  1.00  0.00    -0.235 C  
HETATM   34  F   UNL     1     -10.483   7.213  70.756  1.00  0.00    -0.208 F  
HETATM   35  F   UNL     1     -11.225   5.514  69.626  1.00  0.00    -0.403 F  
HETATM   36  F   UNL     1     -10.699   5.280  71.709  1.00  0.00    -0.273 F  
ENDBRANCH  24  26
ENDBRANCH  22  24
ENDBRANCH  20  22
ENDBRANCH  17  20
ENDBRANCH  12  13
ENDBRANCH   8  12
ENDBRANCH   3   6
TORSDOF 7
ENDMDL
MODEL      269
REMARK 921   NORMALIZED FREE ENERGY PREDICTED BY IDOCK:   -4.32 KCAL/MOL
REMARK 922        TOTAL FREE ENERGY PREDICTED BY IDOCK:   -8.08 KCAL/MOL
REMARK 923 INTER-LIGAND FREE ENERGY PREDICTED BY IDOCK:   -7.38 KCAL/MOL
REMARK 924 INTRA-LIGAND FREE ENERGY PREDICTED BY IDOCK:   -0.70 KCAL/MOL
REMARK 927      BINDING AFFINITY PREDICTED BY RF-SCORE:    0.00 PKD
ROOT
HETATM    1  C   UNL     1     -11.725   6.075  72.515  1.00  0.00    -0.232 C  
HETATM    2  N   UNL     1     -11.290   6.261  71.158  1.00  0.00    -0.305 N  
HETATM    3  C   UNL     1     -10.496   5.326  70.530  1.00  0.00    -0.242 C  
HETATM    4  H   UNL     1     -11.574   7.099  70.651  1.00  0.00     0.000 HD 
HETATM    5  O   UNL     1     -10.153   4.269  71.048  1.00  0.00    -0.178 OA 
ENDROOT
BRANCH   3   6
HETATM    6  C   UNL     1     -10.059   5.690  69.144  1.00  0.00    -0.208 A  
HETATM    7  C   UNL     1      -8.955   6.517  68.990  1.00  0.00    -0.129 A  
HETATM    8  C   UNL     1      -8.538   6.812  67.699  1.00  0.00    -0.121 A  
HETATM    9  C   UNL     1      -9.265   6.328  66.616  1.00  0.00    -0.158 A  
HETATM   10  N   UNL     1     -10.781   5.181  68.107  1.00  0.00     0.070 NA 
HETATM   11  C   UNL     1     -10.365   5.522  66.868  1.00  0.00    -0.265 A  
BRANCH   8  12
HETATM   12  O   UNL     1      -7.473   7.635  67.413  1.00  0.00    -0.095 OA 
BRANCH  12  13
HETATM   13  C   UNL     1      -7.684   8.987  67.244  1.00  0.00    -0.096 A  
HETATM   14  C   UNL     1      -6.579   9.738  66.841  1.00  0.00    -0.067 A  
HETATM   15  C   UNL     1      -6.700  11.118  66.701  1.00  0.00    -0.137 A  
HETATM   16  F   UNL     1      -5.631  11.837  66.328  1.00  0.00    -0.141 F  
HETATM   17  C   UNL     1      -7.894  11.771  67.015  1.00  0.00    -0.161 A  
HETATM   18  C   UNL     1      -8.893   9.629  67.537  1.00  0.00    -0.129 A  
HETATM   19  C   UNL     1      -9.001  11.019  67.416  1.00  0.00    -0.141 A  
BRANCH  17  20
HETATM   20  N   UNL     1      -7.950  13.181  66.937  1.00  0.00    -0.401 N  
HETATM   21  H   UNL     1      -8.009  13.637  66.026  1.00  0.00     0.000 HD 
BRANCH  20  22
HETATM   22  C   UNL     1      -7.928  13.948  68.094  1.00  0.00    -0.148 C  
HETATM   23  O   UNL     1      -7.163  13.769  69.038  1.00  0.00    -0.110 OA 
BRANCH  22  24
HETATM   24  N   UNL     1      -8.891  14.939  68.047  1.00  0.00    -0.163 N  
HETATM   25  H   UNL     1      -9.844  14.718  68.335  1.00  0.00     0.000 HD 
BRANCH  24  26
HETATM   26  C   UNL     1      -8.590  16.244  67.613  1.00  0.00    -0.173 A  
HETATM   27  C   UNL     1      -7.366  16.472  66.993  1.00  0.00    -0.245 A  
HETATM   28  C   UNL     1      -7.041  17.755  66.555  1.00  0.00    -0.275 A  
HETATM   29  C   UNL     1      -7.901  18.835  66.795  1.00  0.00    -0.245 A  
HETATM   30 CL   UNL     1      -7.363  20.371  66.224  1.00  0.00    -0.275 Cl 
HETATM   31  C   UNL     1      -9.113  18.637  67.465  1.00  0.00    -0.293 A  
HETATM   32  C   UNL     1      -9.463  17.316  67.837  1.00  0.00    -0.266 A  
HETATM   33  C   UNL     1     -10.058  19.747  67.853  1.00  0.00    -0.430 C  
HETATM   34  F   UNL     1     -11.287  19.605  67.283  1.00  0.00    -0.524 F  
HETATM   35  F   UNL     1     -10.282  19.762  69.202  1.00  0.00    -0.502 F  
HETATM   36  F   UNL     1      -9.662  21.012  67.551  1.00  0.00    -0.589 F  
ENDBRANCH  24  26
ENDBRANCH  22  24
ENDBRANCH  20  22
ENDBRANCH  17  20
ENDBRANCH  12  13
ENDBRANCH   8  12
ENDBRANCH   3   6
TORSDOF 7
ENDMDL
MODEL      270
REMARK 921   NORMALIZED FREE ENERGY PREDICTED BY IDOCK:   -4.31 KCAL/MOL
REMARK 922        TOTAL FREE ENERGY PREDICTED BY IDOCK:   -8.06 KCAL/MOL
REMARK 923 INTER-LIGAND FREE ENERGY PREDICTED BY IDOCK:   -7.25 KCAL/MOL
REMARK 924 INTRA-LIGAND FREE ENERGY PREDICTED BY IDOCK:   -0.80 KCAL/MOL
REMARK 927      BINDING AFFINITY PREDICTED BY RF-SCORE:    0.00 PKD
ROOT
HETATM    1  C   UNL     1     -11.635  15.832  70.956  1.00  0.00    -0.411 C  
HETATM    2  N   UNL     1     -11.527  15.230  69.656  1.00  0.00    -0.282 N  
HETATM    3  C   UNL     1     -11.065  15.949  68.574  1.00  0.00    -0.340 C  
HETATM    4  H   UNL     1     -11.796  14.254  69.531  1.00  0.00     0.000 HD 
HETATM    5  O   UNL     1     -10.672  17.108  68.647  1.00  0.00    -0.343 OA 
ENDROOT
BRANCH   3   6
HETATM    6  C   UNL     1     -11.077  15.214  67.269  1.00  0.00    -0.332 A  
HETATM    7  C   UNL     1     -11.342  13.851  67.276  1.00  0.00    -0.344 A  
HETATM    8  C   UNL     1     -11.391  13.192  66.054  1.00  0.00    -0.308 A  
HETATM    9  C   UNL     1     -11.115  13.893  64.885  1.00  0.00    -0.370 A  
HETATM   10  N   UNL     1     -10.824  15.936  66.142  1.00  0.00    -0.260 NA 
HETATM   11  C   UNL     1     -10.844  15.250  64.979  1.00  0.00    -0.439 A  
BRANCH   8  12
HETATM   12  O   UNL     1     -11.623  11.842  65.927  1.00  0.00    -0.359 OA 
BRANCH  12  13
HETATM   13  C   UNL     1     -10.562  10.963  65.965  1.00  0.00    -0.189 A  
HETATM   14  C   UNL     1      -9.626  11.080  64.936  1.00  0.00    -0.289 A  
HETATM   15  C   UNL     1      -8.556  10.192  64.876  1.00  0.00    -0.178 A  
HETATM   16  F   UNL     1      -7.667  10.301  63.876  1.00  0.00    -0.148 F  
HETATM   17  C   UNL     1      -8.435   9.148  65.795  1.00  0.00    -0.141 A  
HETATM   18  C   UNL     1     -10.436   9.934  66.906  1.00  0.00    -0.284 A  
HETATM   19  C   UNL     1      -9.370   9.031  66.826  1.00  0.00    -0.213 A  
BRANCH  17  20
HETATM   20  N   UNL     1      -7.378   8.221  65.651  1.00  0.00    -0.071 N  
HETATM   21  H   UNL     1      -6.552   8.295  66.245  1.00  0.00     0.000 HD 
BRANCH  20  22
HETATM   22  C   UNL     1      -7.458   7.209  64.703  1.00  0.00    -0.098 C  
HETATM   23  O   UNL     1      -6.575   6.937  63.893  1.00  0.00    -0.041 OA 
BRANCH  22  24
HETATM   24  N   UNL     1      -8.671   6.552  64.784  1.00  0.00    -0.340 N  
HETATM   25  H   UNL     1      -9.471   6.923  64.272  1.00  0.00     0.000 HD 
BRANCH  24  26
HETATM   26  C   UNL     1      -8.831   5.386  65.557  1.00  0.00    -0.152 A  
HETATM   27  C   UNL     1      -9.202   4.209  64.914  1.00  0.00    -0.154 A  
HETATM   28  C   UNL     1      -9.370   3.040  65.655  1.00  0.00    -0.091 A  
HETATM   29  C   UNL     1      -9.240   3.049  67.050  1.00  0.00    -0.163 A  
HETATM   30 CL   UNL     1      -9.501   1.540  67.843  1.00  0.00    -0.193 Cl 
HETATM   31  C   UNL     1      -8.920   4.234  67.722  1.00  0.00    -0.137 A  
HETATM   32  C   UNL     1      -8.680   5.396  66.949  1.00  0.00    -0.112 A  
HETATM   33  C   UNL     1      -8.853   4.364  69.223  1.00  0.00    -0.091 C  
HETATM   34  F   UNL     1      -7.618   4.746  69.655  1.00  0.00    -0.053 F  
HETATM   35  F   UNL     1      -9.710   5.327  69.678  1.00  0.00    -0.174 F  
HETATM   36  F   UNL     1      -9.163   3.253  69.942  1.00  0.00    -0.155 F  
ENDBRANCH  24  26
ENDBRANCH  22  24
ENDBRANCH  20  22
ENDBRANCH  17  20
ENDBRANCH  12  13
ENDBRANCH   8  12
ENDBRANCH   3   6
TORSDOF 7
ENDMDL
MODEL      271
REMARK 921   NORMALIZED FREE ENERGY PREDICTED BY IDOCK:   -4.27 KCAL/MOL
REMARK 922        TOTAL FREE ENERGY PREDICTED BY IDOCK:   -8.01 KCAL/MOL
REMARK 923 INTER-LIGAND FREE ENERGY PREDICTED BY IDOCK:   -6.99 KCAL/MOL
REMARK 924 INTRA-LIGAND FREE ENERGY PREDICTED BY IDOCK:   -1.02 KCAL/MOL
REMARK 927      BINDING AFFINITY PREDICTED BY RF-SCORE:    0.00 PKD
ROOT
HETATM    1  C   UNL     1      -7.216  15.606  68.833  1.00  0.00    -0.146 C  
HETATM    2  N   UNL     1      -8.240  15.251  67.890  1.00  0.00    -0.140 N  
HETATM    3  C   UNL     1      -8.946  16.218  67.207  1.00  0.00    -0.195 C  
HETATM    4  H   UNL     1      -8.448  14.267  67.722  1.00  0.00     0.000 HD 
HETATM    5  O   UNL     1      -8.725  17.420  67.310  1.00  0.00    -0.218 OA 
ENDROOT
BRANCH   3   6
HETATM    6  C   UNL     1     -10.032  15.702  66.314  1.00  0.00    -0.295 A  
HETATM    7  C   UNL     1     -10.677  14.524  66.664  1.00  0.00    -0.305 A  
HETATM    8  C   UNL     1     -11.709  14.080  65.847  1.00  0.00    -0.366 A  
HETATM    9  C   UNL     1     -12.019  14.785  64.688  1.00  0.00    -0.448 A  
HETATM   10  N   UNL     1     -10.323  16.429  65.200  1.00  0.00    -0.620 NA 
HETATM   11  C   UNL     1     -11.308  15.943  64.412  1.00  0.00    -0.267 A  
BRANCH   8  12
HETATM   12  O   UNL     1     -12.412  12.919  66.073  1.00  0.00    -0.509 OA 
BRANCH  12  13
HETATM   13  C   UNL     1     -11.729  11.755  66.357  1.00  0.00    -0.051 A  
HETATM   14  C   UNL     1     -11.846  11.274  67.663  1.00  0.00    -0.102 A  
HETATM   15  C   UNL     1     -11.143  10.134  68.040  1.00  0.00    -0.240 A  
HETATM   16  F   UNL     1     -11.248   9.684  69.300  1.00  0.00    -0.237 F  
HETATM   17  C   UNL     1     -10.276   9.496  67.151  1.00  0.00    -0.242 A  
HETATM   18  C   UNL     1     -10.881  11.108  65.450  1.00  0.00    -0.212 A  
HETATM   19  C   UNL     1     -10.160   9.976  65.844  1.00  0.00    -0.319 A  
BRANCH  17  20
HETATM   20  N   UNL     1      -9.520   8.388  67.598  1.00  0.00    -0.146 N  
HETATM   21  H   UNL     1      -8.599   8.536  68.012  1.00  0.00     0.000 HD 
BRANCH  20  22
HETATM   22  C   UNL     1     -10.025   7.101  67.477  1.00  0.00    -0.167 C  
HETATM   23  O   UNL     1     -11.128   6.822  67.015  1.00  0.00    -0.403 OA 
BRANCH  22  24
HETATM   24  N   UNL     1      -9.123   6.170  67.959  1.00  0.00    -0.116 N  
HETATM   25  H   UNL     1      -8.340   5.887  67.369  1.00  0.00     0.000 HD 
BRANCH  24  26
HETATM   26  C   UNL     1      -9.258   5.603  69.240  1.00  0.00    -0.116 A  
HETATM   27  C   UNL     1      -9.236   6.448  70.346  1.00  0.00    -0.159 A  
HETATM   28  C   UNL     1      -9.364   5.913  71.627  1.00  0.00    -0.162 A  
HETATM   29  C   UNL     1      -9.442   4.528  71.822  1.00  0.00    -0.149 A  
HETATM   30 CL   UNL     1      -9.570   4.001  73.460  1.00  0.00    -0.127 Cl 
HETATM   31  C   UNL     1      -9.412   3.657  70.727  1.00  0.00    -0.238 A  
HETATM   32  C   UNL     1      -9.357   4.219  69.429  1.00  0.00    -0.236 A  
HETATM   33  C   UNL     1      -9.395   2.153  70.841  1.00  0.00    -0.131 C  
HETATM   34  F   UNL     1     -10.468   1.575  70.232  1.00  0.00     0.220 F  
HETATM   35  F   UNL     1      -8.296   1.620  70.225  1.00  0.00    -0.049 F  
HETATM   36  F   UNL     1      -9.371   1.641  72.100  1.00  0.00    -0.097 F  
ENDBRANCH  24  26
ENDBRANCH  22  24
ENDBRANCH  20  22
ENDBRANCH  17  20
ENDBRANCH  12  13
ENDBRANCH   8  12
ENDBRANCH   3   6
TORSDOF 7
ENDMDL
MODEL      272
REMARK 921   NORMALIZED FREE ENERGY PREDICTED BY IDOCK:   -4.27 KCAL/MOL
REMARK 922        TOTAL FREE ENERGY PREDICTED BY IDOCK:   -8.01 KCAL/MOL
REMARK 923 INTER-LIGAND FREE ENERGY PREDICTED BY IDOCK:   -6.49 KCAL/MOL
REMARK 924 INTRA-LIGAND FREE ENERGY PREDICTED BY IDOCK:   -1.52 KCAL/MOL
REMARK 927      BINDING AFFINITY PREDICTED BY RF-SCORE:    0.00 PKD
ROOT
HETATM    1  C   UNL     1     -10.353   7.247  68.865  1.00  0.00    -0.201 C  
HETATM    2  N   UNL     1     -11.248   8.246  69.382  1.00  0.00    -0.425 N  
HETATM    3  C   UNL     1     -10.853   9.107  70.383  1.00  0.00    -0.242 C  
HETATM    4  H   UNL     1     -12.191   8.318  69.002  1.00  0.00     0.000 HD 
HETATM    5  O   UNL     1      -9.722   9.122  70.859  1.00  0.00    -0.240 OA 
ENDROOT
BRANCH   3   6
HETATM    6  C   UNL     1     -11.914  10.043  70.873  1.00  0.00    -0.361 A  
HETATM    7  C   UNL     1     -11.683  11.409  70.797  1.00  0.00    -0.068 A  
HETATM    8  C   UNL     1     -12.693  12.265  71.217  1.00  0.00    -0.251 A  
HETATM    9  C   UNL     1     -13.863  11.734  71.752  1.00  0.00     0.490 A  
HETATM   10  N   UNL     1     -13.055   9.489  71.370  1.00  0.00    -0.364 NA 
HETATM   11  C   UNL     1     -13.997  10.355  71.803  1.00  0.00     0.338 A  
BRANCH   8  12
HETATM   12  O   UNL     1     -12.580  13.636  71.211  1.00  0.00    -0.346 OA 
BRANCH  12  13
HETATM   13  C   UNL     1     -12.183  14.281  70.059  1.00  0.00    -0.359 A  
HETATM   14  C   UNL     1     -12.490  13.642  68.857  1.00  0.00     0.185 A  
HETATM   15  C   UNL     1     -12.074  14.205  67.654  1.00  0.00    -0.302 A  
HETATM   16  F   UNL     1     -12.359  13.579  66.502  1.00  0.00    -0.426 F  
HETATM   17  C   UNL     1     -11.303  15.369  67.633  1.00  0.00    -0.290 A  
HETATM   18  C   UNL     1     -11.432  15.462  70.048  1.00  0.00    -0.335 A  
HETATM   19  C   UNL     1     -10.998  16.010  68.835  1.00  0.00    -0.309 A  
BRANCH  17  20
HETATM   20  N   UNL     1     -10.834  15.864  66.394  1.00  0.00    -0.249 N  
HETATM   21  H   UNL     1     -11.468  16.370  65.776  1.00  0.00     0.000 HD 
BRANCH  20  22
HETATM   22  C   UNL     1      -9.513  15.664  66.016  1.00  0.00    -0.355 C  
HETATM   23  O   UNL     1      -8.674  16.555  65.904  1.00  0.00    -0.456 OA 
BRANCH  22  24
HETATM   24  N   UNL     1      -9.267  14.327  65.771  1.00  0.00    -0.486 N  
HETATM   25  H   UNL     1      -9.555  13.924  64.879  1.00  0.00     0.000 HD 
BRANCH  24  26
HETATM   26  C   UNL     1      -8.629  13.505  66.720  1.00  0.00    -0.024 A  
HETATM   27  C   UNL     1      -8.963  12.155  66.761  1.00  0.00    -0.203 A  
HETATM   28  C   UNL     1      -8.349  11.320  67.694  1.00  0.00    -0.123 A  
HETATM   29  C   UNL     1      -7.452  11.835  68.639  1.00  0.00    -0.120 A  
HETATM   30 CL   UNL     1      -6.786  10.695  69.749  1.00  0.00    -0.130 Cl 
HETATM   31  C   UNL     1      -7.143  13.199  68.649  1.00  0.00    -0.103 A  
HETATM   32  C   UNL     1      -7.717  14.022  67.649  1.00  0.00    -0.188 A  
HETATM   33  C   UNL     1      -6.266  13.862  69.683  1.00  0.00    -0.124 C  
HETATM   34  F   UNL     1      -5.169  14.451  69.131  1.00  0.00    -0.079 F  
HETATM   35  F   UNL     1      -6.931  14.866  70.330  1.00  0.00    -0.185 F  
HETATM   36  F   UNL     1      -5.790  13.063  70.674  1.00  0.00    -0.154 F  
ENDBRANCH  24  26
ENDBRANCH  22  24
ENDBRANCH  20  22
ENDBRANCH  17  20
ENDBRANCH  12  13
ENDBRANCH   8  12
ENDBRANCH   3   6
TORSDOF 7
ENDMDL
MODEL      273
REMARK 921   NORMALIZED FREE ENERGY PREDICTED BY IDOCK:   -4.25 KCAL/MOL
REMARK 922        TOTAL FREE ENERGY PREDICTED BY IDOCK:   -7.98 KCAL/MOL
REMARK 923 INTER-LIGAND FREE ENERGY PREDICTED BY IDOCK:   -6.93 KCAL/MOL
REMARK 924 INTRA-LIGAND FREE ENERGY PREDICTED BY IDOCK:   -1.05 KCAL/MOL
REMARK 927      BINDING AFFINITY PREDICTED BY RF-SCORE:    0.00 PKD
ROOT
HETATM    1  C   UNL     1     -10.033  19.994  67.672  1.00  0.00    -0.428 C  
HETATM    2  N   UNL     1     -10.581  18.843  67.008  1.00  0.00    -0.429 N  
HETATM    3  C   UNL     1     -10.031  17.591  67.182  1.00  0.00    -0.314 C  
HETATM    4  H   UNL     1     -11.391  18.954  66.399  1.00  0.00     0.000 HD 
HETATM    5  O   UNL     1      -9.091  17.361  67.936  1.00  0.00    -0.246 OA 
ENDROOT
BRANCH   3   6
HETATM    6  C   UNL     1     -10.660  16.501  66.370  1.00  0.00    -0.221 A  
HETATM    7  C   UNL     1     -11.004  15.315  67.003  1.00  0.00    -0.324 A  
HETATM    8  C   UNL     1     -11.624  14.329  66.245  1.00  0.00    -0.372 A  
HETATM    9  C   UNL     1     -11.821  14.534  64.883  1.00  0.00    -0.417 A  
HETATM   10  N   UNL     1     -10.858  16.744  65.045  1.00  0.00    -0.653 NA 
HETATM   11  C   UNL     1     -11.429  15.746  64.335  1.00  0.00    -0.263 A  
BRANCH   8  12
HETATM   12  O   UNL     1     -11.995  13.104  66.748  1.00  0.00    -0.384 OA 
BRANCH  12  13
HETATM   13  C   UNL     1     -11.075  12.078  66.787  1.00  0.00    -0.305 A  
HETATM   14  C   UNL     1     -11.441  10.948  67.522  1.00  0.00    -0.234 A  
HETATM   15  C   UNL     1     -10.543   9.893  67.652  1.00  0.00    -0.270 A  
HETATM   16  F   UNL     1     -10.895   8.816  68.371  1.00  0.00    -0.226 F  
HETATM   17  C   UNL     1      -9.259   9.969  67.109  1.00  0.00    -0.141 A  
HETATM   18  C   UNL     1      -9.799  12.154  66.217  1.00  0.00    -0.250 A  
HETATM   19  C   UNL     1      -8.894  11.098  66.371  1.00  0.00    -0.182 A  
BRANCH  17  20
HETATM   20  N   UNL     1      -8.351   8.909  67.332  1.00  0.00    -0.108 N  
HETATM   21  H   UNL     1      -8.652   7.945  67.193  1.00  0.00     0.000 HD 
BRANCH  20  22
HETATM   22  C   UNL     1      -7.050   9.175  67.740  1.00  0.00    -0.079 C  
HETATM   23  O   UNL     1      -6.068   9.157  67.002  1.00  0.00    -0.055 OA 
BRANCH  22  24
HETATM   24  N   UNL     1      -7.005   9.455  69.092  1.00  0.00    -0.057 N  
HETATM   25  H   UNL     1      -6.678  10.370  69.400  1.00  0.00     0.000 HD 
BRANCH  24  26
HETATM   26  C   UNL     1      -7.399   8.508  70.057  1.00  0.00    -0.055 A  
HETATM   27  C   UNL     1      -8.162   8.938  71.138  1.00  0.00    -0.218 A  
HETATM   28  C   UNL     1      -8.563   8.022  72.109  1.00  0.00    -0.206 A  
HETATM   29  C   UNL     1      -8.148   6.685  72.051  1.00  0.00    -0.102 A  
HETATM   30 CL   UNL     1      -8.695   5.667  73.332  1.00  0.00    -0.118 Cl 
HETATM   31  C   UNL     1      -7.335   6.243  71.001  1.00  0.00    -0.084 A  
HETATM   32  C   UNL     1      -6.998   7.168  69.983  1.00  0.00    -0.061 A  
HETATM   33  C   UNL     1      -6.760   4.852  70.903  1.00  0.00    -0.035 C  
HETATM   34  F   UNL     1      -7.168   4.201  69.778  1.00  0.00    -0.046 F  
HETATM   35  F   UNL     1      -5.395   4.882  70.831  1.00  0.00    -0.003 F  
HETATM   36  F   UNL     1      -7.037   4.008  71.932  1.00  0.00    -0.041 F  
ENDBRANCH  24  26
ENDBRANCH  22  24
ENDBRANCH  20  22
ENDBRANCH  17  20
ENDBRANCH  12  13
ENDBRANCH   8  12
ENDBRANCH   3   6
TORSDOF 7
ENDMDL
MODEL      274
REMARK 921   NORMALIZED FREE ENERGY PREDICTED BY IDOCK:   -4.25 KCAL/MOL
REMARK 922        TOTAL FREE ENERGY PREDICTED BY IDOCK:   -7.98 KCAL/MOL
REMARK 923 INTER-LIGAND FREE ENERGY PREDICTED BY IDOCK:   -7.51 KCAL/MOL
REMARK 924 INTRA-LIGAND FREE ENERGY PREDICTED BY IDOCK:   -0.47 KCAL/MOL
REMARK 927      BINDING AFFINITY PREDICTED BY RF-SCORE:    0.00 PKD
ROOT
HETATM    1  C   UNL     1      -7.483  20.193  66.616  1.00  0.00    -0.279 C  
HETATM    2  N   UNL     1      -8.264  19.068  67.052  1.00  0.00    -0.265 N  
HETATM    3  C   UNL     1      -9.535  19.236  67.559  1.00  0.00    -0.310 C  
HETATM    4  H   UNL     1      -7.871  18.129  66.985  1.00  0.00     0.000 HD 
HETATM    5  O   UNL     1     -10.101  20.322  67.626  1.00  0.00    -0.404 OA 
ENDROOT
BRANCH   3   6
HETATM    6  C   UNL     1     -10.198  17.983  68.042  1.00  0.00    -0.382 A  
HETATM    7  C   UNL     1     -10.576  17.028  67.109  1.00  0.00    -0.245 A  
HETATM    8  C   UNL     1     -11.152  15.854  67.576  1.00  0.00    -0.235 A  
HETATM    9  C   UNL     1     -11.387  15.700  68.939  1.00  0.00    -0.341 A  
HETATM   10  N   UNL     1     -10.392  17.856  69.385  1.00  0.00    -0.073 NA 
HETATM   11  C   UNL     1     -10.989  16.716  69.795  1.00  0.00    -0.205 A  
BRANCH   8  12
HETATM   12  O   UNL     1     -11.587  14.841  66.754  1.00  0.00    -0.364 OA 
BRANCH  12  13
HETATM   13  C   UNL     1     -11.071  13.571  66.906  1.00  0.00    -0.296 A  
HETATM   14  C   UNL     1      -9.859  13.476  67.594  1.00  0.00    -0.228 A  
HETATM   15  C   UNL     1      -9.249  12.234  67.741  1.00  0.00    -0.191 A  
HETATM   16  F   UNL     1      -8.077  12.151  68.390  1.00  0.00    -0.136 F  
HETATM   17  C   UNL     1      -9.798  11.089  67.161  1.00  0.00    -0.184 A  
HETATM   18  C   UNL     1     -11.643  12.425  66.342  1.00  0.00    -0.442 A  
HETATM   19  C   UNL     1     -11.011  11.183  66.475  1.00  0.00    -0.270 A  
BRANCH  17  20
HETATM   20  N   UNL     1      -9.104   9.862  67.266  1.00  0.00    -0.135 N  
HETATM   21  H   UNL     1      -8.568   9.512  66.472  1.00  0.00     0.000 HD 
BRANCH  20  22
HETATM   22  C   UNL     1      -9.150   9.130  68.445  1.00  0.00    -0.132 C  
HETATM   23  O   UNL     1      -8.307   9.186  69.337  1.00  0.00    -0.115 OA 
BRANCH  22  24
HETATM   24  N   UNL     1     -10.268   8.319  68.479  1.00  0.00    -0.205 N  
HETATM   25  H   UNL     1     -11.076   8.564  67.907  1.00  0.00     0.000 HD 
BRANCH  24  26
HETATM   26  C   UNL     1     -10.320   7.164  69.283  1.00  0.00    -0.203 A  
HETATM   27  C   UNL     1     -10.808   7.280  70.581  1.00  0.00    -0.261 A  
HETATM   28  C   UNL     1     -10.867   6.153  71.400  1.00  0.00    -0.319 A  
HETATM   29  C   UNL     1     -10.376   4.917  70.958  1.00  0.00    -0.147 A  
HETATM   30 CL   UNL     1     -10.488   3.613  72.082  1.00  0.00    -0.099 Cl 
HETATM   31  C   UNL     1      -9.833   4.791  69.675  1.00  0.00    -0.292 A  
HETATM   32  C   UNL     1      -9.847   5.927  68.829  1.00  0.00    -0.177 A  
HETATM   33  C   UNL     1      -9.195   3.530  69.145  1.00  0.00    -0.158 C  
HETATM   34  F   UNL     1      -9.829   3.055  68.037  1.00  0.00    -0.230 F  
HETATM   35  F   UNL     1      -7.902   3.752  68.757  1.00  0.00    -0.056 F  
HETATM   36  F   UNL     1      -9.126   2.480  70.004  1.00  0.00    -0.127 F  
ENDBRANCH  24  26
ENDBRANCH  22  24
ENDBRANCH  20  22
ENDBRANCH  17  20
ENDBRANCH  12  13
ENDBRANCH   8  12
ENDBRANCH   3   6
TORSDOF 7
ENDMDL
MODEL      275
REMARK 921   NORMALIZED FREE ENERGY PREDICTED BY IDOCK:   -4.24 KCAL/MOL
REMARK 922        TOTAL FREE ENERGY PREDICTED BY IDOCK:   -7.97 KCAL/MOL
REMARK 923 INTER-LIGAND FREE ENERGY PREDICTED BY IDOCK:   -7.02 KCAL/MOL
REMARK 924 INTRA-LIGAND FREE ENERGY PREDICTED BY IDOCK:   -0.95 KCAL/MOL
REMARK 927      BINDING AFFINITY PREDICTED BY RF-SCORE:    0.00 PKD
ROOT
HETATM    1  C   UNL     1      -9.109   4.071  62.930  1.00  0.00    -0.115 C  
HETATM    2  N   UNL     1      -9.649   4.642  64.133  1.00  0.00    -0.355 N  
HETATM    3  C   UNL     1      -8.829   5.216  65.081  1.00  0.00    -0.146 C  
HETATM    4  H   UNL     1     -10.657   4.622  64.289  1.00  0.00     0.000 HD 
HETATM    5  O   UNL     1      -7.614   5.327  64.949  1.00  0.00    -0.077 OA 
ENDROOT
BRANCH   3   6
HETATM    6  C   UNL     1      -9.524   5.701  66.315  1.00  0.00    -0.155 A  
HETATM    7  C   UNL     1      -9.726   7.065  66.471  1.00  0.00    -0.189 A  
HETATM    8  C   UNL     1     -10.408   7.497  67.601  1.00  0.00    -0.229 A  
HETATM    9  C   UNL     1     -10.808   6.568  68.558  1.00  0.00    -0.353 A  
HETATM   10  N   UNL     1      -9.920   4.763  67.219  1.00  0.00    -0.186 NA 
HETATM   11  C   UNL     1     -10.547   5.227  68.322  1.00  0.00    -0.004 A  
BRANCH   8  12
HETATM   12  O   UNL     1     -10.654   8.821  67.883  1.00  0.00    -0.229 OA 
BRANCH  12  13
HETATM   13  C   UNL     1      -9.609   9.645  68.241  1.00  0.00    -0.140 A  
HETATM   14  C   UNL     1      -8.898   9.279  69.386  1.00  0.00    -0.149 A  
HETATM   15  C   UNL     1      -7.863  10.091  69.841  1.00  0.00    -0.174 A  
HETATM   16  F   UNL     1      -7.193   9.741  70.949  1.00  0.00    -0.124 F  
HETATM   17  C   UNL     1      -7.563  11.298  69.206  1.00  0.00    -0.019 A  
HETATM   18  C   UNL     1      -9.299  10.841  67.582  1.00  0.00    -0.156 A  
HETATM   19  C   UNL     1      -8.272  11.663  68.059  1.00  0.00    -0.146 A  
BRANCH  17  20
HETATM   20  N   UNL     1      -6.558  12.131  69.747  1.00  0.00    -0.333 N  
HETATM   21  H   UNL     1      -6.009  11.812  70.546  1.00  0.00     0.000 HD 
BRANCH  20  22
HETATM   22  C   UNL     1      -6.314  13.383  69.198  1.00  0.00    -0.102 C  
HETATM   23  O   UNL     1      -5.690  13.582  68.158  1.00  0.00    -0.093 OA 
BRANCH  22  24
HETATM   24  N   UNL     1      -6.859  14.381  69.983  1.00  0.00    -0.359 N  
HETATM   25  H   UNL     1      -6.905  14.248  70.993  1.00  0.00     0.000 HD 
BRANCH  24  26
HETATM   26  C   UNL     1      -7.352  15.576  69.425  1.00  0.00    -0.215 A  
HETATM   27  C   UNL     1      -6.515  16.686  69.385  1.00  0.00    -0.220 A  
HETATM   28  C   UNL     1      -6.979  17.883  68.841  1.00  0.00    -0.260 A  
HETATM   29  C   UNL     1      -8.302  18.005  68.397  1.00  0.00    -0.298 A  
HETATM   30 CL   UNL     1      -8.751  19.548  67.772  1.00  0.00    -0.352 Cl 
HETATM   31  C   UNL     1      -9.177  16.916  68.477  1.00  0.00    -0.260 A  
HETATM   32  C   UNL     1      -8.670  15.686  68.964  1.00  0.00    -0.240 A  
HETATM   33  C   UNL     1     -10.641  16.976  68.115  1.00  0.00    -0.369 C  
HETATM   34  F   UNL     1     -10.961  16.116  67.109  1.00  0.00    -0.319 F  
HETATM   35  F   UNL     1     -11.430  16.612  69.171  1.00  0.00    -0.265 F  
HETATM   36  F   UNL     1     -11.118  18.187  67.724  1.00  0.00    -0.382 F  
ENDBRANCH  24  26
ENDBRANCH  22  24
ENDBRANCH  20  22
ENDBRANCH  17  20
ENDBRANCH  12  13
ENDBRANCH   8  12
ENDBRANCH   3   6
TORSDOF 7
ENDMDL
MODEL      276
REMARK 921   NORMALIZED FREE ENERGY PREDICTED BY IDOCK:   -4.24 KCAL/MOL
REMARK 922        TOTAL FREE ENERGY PREDICTED BY IDOCK:   -7.96 KCAL/MOL
REMARK 923 INTER-LIGAND FREE ENERGY PREDICTED BY IDOCK:   -7.46 KCAL/MOL
REMARK 924 INTRA-LIGAND FREE ENERGY PREDICTED BY IDOCK:   -0.50 KCAL/MOL
REMARK 927      BINDING AFFINITY PREDICTED BY RF-SCORE:    0.00 PKD
ROOT
HETATM    1  C   UNL     1     -10.876  19.278  65.466  1.00  0.00    -0.059 C  
HETATM    2  N   UNL     1      -9.667  19.161  66.233  1.00  0.00    -0.362 N  
HETATM    3  C   UNL     1      -9.371  20.056  67.240  1.00  0.00    -0.374 C  
HETATM    4  H   UNL     1      -9.016  18.403  66.030  1.00  0.00     0.000 HD 
HETATM    5  O   UNL     1     -10.122  20.963  67.583  1.00  0.00    -0.271 OA 
ENDROOT
BRANCH   3   6
HETATM    6  C   UNL     1      -8.043  19.853  67.901  1.00  0.00    -0.286 A  
HETATM    7  C   UNL     1      -7.814  18.667  68.584  1.00  0.00    -0.349 A  
HETATM    8  C   UNL     1      -6.563  18.477  69.157  1.00  0.00    -0.265 A  
HETATM    9  C   UNL     1      -5.614  19.492  69.085  1.00  0.00    -0.234 A  
HETATM   10  N   UNL     1      -7.131  20.858  67.791  1.00  0.00    -0.274 NA 
HETATM   11  C   UNL     1      -5.940  20.650  68.395  1.00  0.00    -0.333 A  
BRANCH   8  12
HETATM   12  O   UNL     1      -6.218  17.357  69.876  1.00  0.00    -0.232 OA 
BRANCH  12  13
HETATM   13  C   UNL     1      -6.341  16.112  69.296  1.00  0.00    -0.174 A  
HETATM   14  C   UNL     1      -6.235  15.017  70.156  1.00  0.00    -0.154 A  
HETATM   15  C   UNL     1      -6.295  13.727  69.636  1.00  0.00    -0.116 A  
HETATM   16  F   UNL     1      -6.178  12.679  70.466  1.00  0.00    -0.152 F  
HETATM   17  C   UNL     1      -6.399  13.509  68.261  1.00  0.00    -0.104 A  
HETATM   18  C   UNL     1      -6.471  15.904  67.918  1.00  0.00    -0.163 A  
HETATM   19  C   UNL     1      -6.508  14.604  67.401  1.00  0.00     0.056 A  
BRANCH  17  20
HETATM   20  N   UNL     1      -6.376  12.185  67.768  1.00  0.00    -0.079 N  
HETATM   21  H   UNL     1      -5.502  11.786  67.424  1.00  0.00     0.000 HD 
BRANCH  20  22
HETATM   22  C   UNL     1      -7.537  11.423  67.751  1.00  0.00    -0.105 C  
HETATM   23  O   UNL     1      -8.522  11.663  67.057  1.00  0.00    -0.155 OA 
BRANCH  22  24
HETATM   24  N   UNL     1      -7.442  10.360  68.629  1.00  0.00    -0.084 N  
HETATM   25  H   UNL     1      -6.597   9.790  68.630  1.00  0.00     0.000 HD 
BRANCH  24  26
HETATM   26  C   UNL     1      -8.483  10.044  69.523  1.00  0.00    -0.176 A  
HETATM   27  C   UNL     1      -8.282   9.019  70.442  1.00  0.00    -0.163 A  
HETATM   28  C   UNL     1      -9.297   8.683  71.337  1.00  0.00    -0.305 A  
HETATM   29  C   UNL     1     -10.546   9.316  71.277  1.00  0.00    -0.347 A  
HETATM   30 CL   UNL     1     -11.719   8.785  72.425  1.00  0.00    -0.396 Cl 
HETATM   31  C   UNL     1     -10.787  10.313  70.325  1.00  0.00    -0.349 A  
HETATM   32  C   UNL     1      -9.723  10.694  69.473  1.00  0.00    -0.085 A  
HETATM   33  C   UNL     1     -12.124  10.983  70.120  1.00  0.00    -0.356 C  
HETATM   34  F   UNL     1     -12.064  12.329  70.320  1.00  0.00    -0.374 F  
HETATM   35  F   UNL     1     -12.568  10.825  68.837  1.00  0.00    -0.225 F  
HETATM   36  F   UNL     1     -13.146  10.544  70.900  1.00  0.00    -0.410 F  
ENDBRANCH  24  26
ENDBRANCH  22  24
ENDBRANCH  20  22
ENDBRANCH  17  20
ENDBRANCH  12  13
ENDBRANCH   8  12
ENDBRANCH   3   6
TORSDOF 7
ENDMDL
MODEL      277
REMARK 921   NORMALIZED FREE ENERGY PREDICTED BY IDOCK:   -4.20 KCAL/MOL
REMARK 922        TOTAL FREE ENERGY PREDICTED BY IDOCK:   -7.90 KCAL/MOL
REMARK 923 INTER-LIGAND FREE ENERGY PREDICTED BY IDOCK:   -7.51 KCAL/MOL
REMARK 924 INTRA-LIGAND FREE ENERGY PREDICTED BY IDOCK:   -0.40 KCAL/MOL
REMARK 927      BINDING AFFINITY PREDICTED BY RF-SCORE:    0.00 PKD
ROOT
HETATM    1  C   UNL     1     -11.024  19.712  66.777  1.00  0.00    -0.260 C  
HETATM    2  N   UNL     1      -9.785  18.987  66.714  1.00  0.00    -0.314 N  
HETATM    3  C   UNL     1      -8.587  19.596  67.020  1.00  0.00    -0.312 C  
HETATM    4  H   UNL     1      -9.792  18.005  66.439  1.00  0.00     0.000 HD 
HETATM    5  O   UNL     1      -8.495  20.756  67.409  1.00  0.00    -0.300 OA 
ENDROOT
BRANCH   3   6
HETATM    6  C   UNL     1      -7.372  18.739  66.838  1.00  0.00    -0.211 A  
HETATM    7  C   UNL     1      -7.477  17.377  67.084  1.00  0.00    -0.219 A  
HETATM    8  C   UNL     1      -6.353  16.589  66.871  1.00  0.00    -0.131 A  
HETATM    9  C   UNL     1      -5.158  17.189  66.484  1.00  0.00    -0.159 A  
HETATM   10  N   UNL     1      -6.226  19.356  66.437  1.00  0.00    -0.173 NA 
HETATM   11  C   UNL     1      -5.146  18.560  66.278  1.00  0.00    -0.141 A  
BRANCH   8  12
HETATM   12  O   UNL     1      -6.320  15.233  67.098  1.00  0.00    -0.297 OA 
BRANCH  12  13
HETATM   13  C   UNL     1      -7.457  14.590  67.539  1.00  0.00    -0.194 A  
HETATM   14  C   UNL     1      -7.303  13.255  67.919  1.00  0.00    -0.134 A  
HETATM   15  C   UNL     1      -8.416  12.524  68.324  1.00  0.00    -0.165 A  
HETATM   16  F   UNL     1      -8.264  11.237  68.675  1.00  0.00    -0.127 F  
HETATM   17  C   UNL     1      -9.694  13.085  68.300  1.00  0.00    -0.221 A  
HETATM   18  C   UNL     1      -8.731  15.169  67.535  1.00  0.00    -0.188 A  
HETATM   19  C   UNL     1      -9.848  14.421  67.922  1.00  0.00    -0.224 A  
BRANCH  17  20
HETATM   20  N   UNL     1     -10.807  12.283  68.643  1.00  0.00    -0.229 N  
HETATM   21  H   UNL     1     -11.143  12.266  69.606  1.00  0.00     0.000 HD 
BRANCH  20  22
HETATM   22  C   UNL     1     -11.445  11.520  67.675  1.00  0.00    -0.285 C  
HETATM   23  O   UNL     1     -12.026  11.976  66.693  1.00  0.00    -0.614 OA 
BRANCH  22  24
HETATM   24  N   UNL     1     -11.348  10.172  67.967  1.00  0.00    -0.523 N  
HETATM   25  H   UNL     1     -11.911   9.787  68.724  1.00  0.00     0.000 HD 
BRANCH  24  26
HETATM   26  C   UNL     1     -10.492   9.318  67.245  1.00  0.00    -0.264 A  
HETATM   27  C   UNL     1     -10.383   7.991  67.649  1.00  0.00    -0.312 A  
HETATM   28  C   UNL     1      -9.540   7.125  66.954  1.00  0.00    -0.216 A  
HETATM   29  C   UNL     1      -8.745   7.589  65.898  1.00  0.00    -0.147 A  
HETATM   30 CL   UNL     1      -7.729   6.416  65.144  1.00  0.00    -0.093 Cl 
HETATM   31  C   UNL     1      -8.800   8.932  65.510  1.00  0.00    -0.238 A  
HETATM   32  C   UNL     1      -9.715   9.783  66.177  1.00  0.00    -0.309 A  
HETATM   33  C   UNL     1      -7.916   9.545  64.452  1.00  0.00    -0.135 C  
HETATM   34  F   UNL     1      -8.632  10.064  63.416  1.00  0.00    -0.149 F  
HETATM   35  F   UNL     1      -7.192  10.591  64.954  1.00  0.00    -0.139 F  
HETATM   36  F   UNL     1      -6.994   8.724  63.883  1.00  0.00    -0.085 F  
ENDBRANCH  24  26
ENDBRANCH  22  24
ENDBRANCH  20  22
ENDBRANCH  17  20
ENDBRANCH  12  13
ENDBRANCH   8  12
ENDBRANCH   3   6
TORSDOF 7
ENDMDL
MODEL      278
REMARK 921   NORMALIZED FREE ENERGY PREDICTED BY IDOCK:   -4.19 KCAL/MOL
REMARK 922        TOTAL FREE ENERGY PREDICTED BY IDOCK:   -7.89 KCAL/MOL
REMARK 923 INTER-LIGAND FREE ENERGY PREDICTED BY IDOCK:   -7.72 KCAL/MOL
REMARK 924 INTRA-LIGAND FREE ENERGY PREDICTED BY IDOCK:   -0.17 KCAL/MOL
REMARK 927      BINDING AFFINITY PREDICTED BY RF-SCORE:    0.00 PKD
ROOT
HETATM    1  C   UNL     1     -10.714  19.009  65.790  1.00  0.00    -0.276 C  
HETATM    2  N   UNL     1      -9.467  18.913  66.498  1.00  0.00    -0.330 N  
HETATM    3  C   UNL     1      -8.942  19.997  67.169  1.00  0.00    -0.346 C  
HETATM    4  H   UNL     1      -8.961  18.027  66.505  1.00  0.00     0.000 HD 
HETATM    5  O   UNL     1      -9.508  21.081  67.255  1.00  0.00    -0.354 OA 
ENDROOT
BRANCH   3   6
HETATM    6  C   UNL     1      -7.601  19.769  67.796  1.00  0.00    -0.286 A  
HETATM    7  C   UNL     1      -7.192  18.464  68.036  1.00  0.00    -0.248 A  
HETATM    8  C   UNL     1      -5.930  18.268  68.580  1.00  0.00    -0.197 A  
HETATM    9  C   UNL     1      -5.151  19.369  68.922  1.00  0.00    -0.197 A  
HETATM   10  N   UNL     1      -6.857  20.869  68.098  1.00  0.00    -0.197 NA 
HETATM   11  C   UNL     1      -5.651  20.636  68.661  1.00  0.00    -0.324 A  
BRANCH   8  12
HETATM   12  O   UNL     1      -5.417  17.028  68.884  1.00  0.00    -0.137 OA 
BRANCH  12  13
HETATM   13  C   UNL     1      -6.215  15.911  68.754  1.00  0.00    -0.109 A  
HETATM   14  C   UNL     1      -5.743  14.911  67.901  1.00  0.00    -0.138 A  
HETATM   15  C   UNL     1      -6.519  13.777  67.678  1.00  0.00    -0.150 A  
HETATM   16  F   UNL     1      -6.068  12.826  66.846  1.00  0.00    -0.112 F  
HETATM   17  C   UNL     1      -7.788  13.650  68.246  1.00  0.00    -0.141 A  
HETATM   18  C   UNL     1      -7.476  15.782  69.348  1.00  0.00    -0.216 A  
HETATM   19  C   UNL     1      -8.259  14.649  69.101  1.00  0.00    -0.068 A  
BRANCH  17  20
HETATM   20  N   UNL     1      -8.576  12.520  67.929  1.00  0.00    -0.169 N  
HETATM   21  H   UNL     1      -8.516  11.681  68.507  1.00  0.00     0.000 HD 
BRANCH  20  22
HETATM   22  C   UNL     1      -9.432  12.547  66.836  1.00  0.00    -0.219 C  
HETATM   23  O   UNL     1     -10.070  13.530  66.470  1.00  0.00    -0.268 OA 
BRANCH  22  24
HETATM   24  N   UNL     1      -9.479  11.312  66.217  1.00  0.00    -0.198 N  
HETATM   25  H   UNL     1      -9.246  11.244  65.226  1.00  0.00     0.000 HD 
BRANCH  24  26
HETATM   26  C   UNL     1      -9.840  10.145  66.918  1.00  0.00    -0.195 A  
HETATM   27  C   UNL     1      -9.887   8.941  66.224  1.00  0.00    -0.355 A  
HETATM   28  C   UNL     1     -10.245   7.771  66.893  1.00  0.00    -0.373 A  
HETATM   29  C   UNL     1     -10.629   7.803  68.240  1.00  0.00    -0.117 A  
HETATM   30 CL   UNL     1     -11.073   6.288  68.936  1.00  0.00    -0.428 Cl 
HETATM   31  C   UNL     1     -10.641   9.013  68.943  1.00  0.00    -0.203 A  
HETATM   32  C   UNL     1     -10.204  10.180  68.270  1.00  0.00    -0.192 A  
HETATM   33  C   UNL     1     -11.128   9.163  70.363  1.00  0.00    -0.253 C  
HETATM   34  F   UNL     1     -10.157   9.628  71.197  1.00  0.00    -0.349 F  
HETATM   35  F   UNL     1     -12.145  10.073  70.446  1.00  0.00    -0.301 F  
HETATM   36  F   UNL     1     -11.613   8.042  70.958  1.00  0.00    -0.272 F  
ENDBRANCH  24  26
ENDBRANCH  22  24
ENDBRANCH  20  22
ENDBRANCH  17  20
ENDBRANCH  12  13
ENDBRANCH   8  12
ENDBRANCH   3   6
TORSDOF 7
ENDMDL
MODEL      279
REMARK 921   NORMALIZED FREE ENERGY PREDICTED BY IDOCK:   -4.18 KCAL/MOL
REMARK 922        TOTAL FREE ENERGY PREDICTED BY IDOCK:   -7.87 KCAL/MOL
REMARK 923 INTER-LIGAND FREE ENERGY PREDICTED BY IDOCK:   -6.29 KCAL/MOL
REMARK 924 INTRA-LIGAND FREE ENERGY PREDICTED BY IDOCK:   -1.58 KCAL/MOL
REMARK 927      BINDING AFFINITY PREDICTED BY RF-SCORE:    0.00 PKD
ROOT
HETATM    1  C   UNL     1     -10.187   7.175  70.004  1.00  0.00    -0.196 C  
HETATM    2  N   UNL     1      -9.177   8.187  69.864  1.00  0.00    -0.151 N  
HETATM    3  C   UNL     1      -8.578   8.433  68.646  1.00  0.00    -0.132 C  
HETATM    4  H   UNL     1      -8.897   8.733  70.679  1.00  0.00     0.000 HD 
HETATM    5  O   UNL     1      -8.891   7.860  67.608  1.00  0.00    -0.128 OA 
ENDROOT
BRANCH   3   6
HETATM    6  C   UNL     1      -7.491   9.462  68.668  1.00  0.00    -0.079 A  
HETATM    7  C   UNL     1      -7.777  10.721  69.178  1.00  0.00    -0.138 A  
HETATM    8  C   UNL     1      -6.747  11.652  69.229  1.00  0.00    -0.115 A  
HETATM    9  C   UNL     1      -5.496  11.320  68.718  1.00  0.00    -0.043 A  
HETATM   10  N   UNL     1      -6.273   9.096  68.180  1.00  0.00    -0.053 NA 
HETATM   11  C   UNL     1      -5.309  10.042  68.213  1.00  0.00    -0.035 A  
BRANCH   8  12
HETATM   12  O   UNL     1      -6.906  12.937  69.692  1.00  0.00     0.017 OA 
BRANCH  12  13
HETATM   13  C   UNL     1      -7.292  13.932  68.819  1.00  0.00    -0.118 A  
HETATM   14  C   UNL     1      -7.828  15.086  69.395  1.00  0.00    -0.179 A  
HETATM   15  C   UNL     1      -8.290  16.111  68.576  1.00  0.00    -0.195 A  
HETATM   16  F   UNL     1      -8.817  17.211  69.135  1.00  0.00    -0.242 F  
HETATM   17  C   UNL     1      -8.282  15.982  67.186  1.00  0.00    -0.195 A  
HETATM   18  C   UNL     1      -7.256  13.802  67.426  1.00  0.00    -0.107 A  
HETATM   19  C   UNL     1      -7.744  14.829  66.609  1.00  0.00     0.569 A  
BRANCH  17  20
HETATM   20  N   UNL     1      -8.834  17.013  66.393  1.00  0.00    -0.272 N  
HETATM   21  H   UNL     1      -8.220  17.616  65.845  1.00  0.00     0.000 HD 
BRANCH  20  22
HETATM   22  C   UNL     1     -10.208  17.210  66.357  1.00  0.00    -0.328 C  
HETATM   23  O   UNL     1     -10.797  18.141  66.900  1.00  0.00    -0.277 OA 
BRANCH  22  24
HETATM   24  N   UNL     1     -10.830  16.209  65.634  1.00  0.00    -0.283 N  
HETATM   25  H   UNL     1     -11.134  16.402  64.680  1.00  0.00     0.000 HD 
BRANCH  24  26
HETATM   26  C   UNL     1     -11.054  14.931  66.181  1.00  0.00    -0.335 A  
HETATM   27  C   UNL     1     -11.565  14.841  67.471  1.00  0.00    -0.379 A  
HETATM   28  C   UNL     1     -11.794  13.588  68.038  1.00  0.00    -0.400 A  
HETATM   29  C   UNL     1     -11.448  12.416  67.353  1.00  0.00    -0.352 A  
HETATM   30 CL   UNL     1     -11.760  10.935  68.182  1.00  0.00    -0.312 Cl 
HETATM   31  C   UNL     1     -10.883  12.485  66.075  1.00  0.00    -0.309 A  
HETATM   32  C   UNL     1     -10.725  13.762  65.483  1.00  0.00    -0.304 A  
HETATM   33  C   UNL     1     -10.391  11.288  65.300  1.00  0.00    -0.280 C  
HETATM   34  F   UNL     1     -11.042  11.136  64.113  1.00  0.00    -0.426 F  
HETATM   35  F   UNL     1      -9.068  11.414  64.975  1.00  0.00    -0.205 F  
HETATM   36  F   UNL     1     -10.484  10.084  65.923  1.00  0.00    -0.306 F  
ENDBRANCH  24  26
ENDBRANCH  22  24
ENDBRANCH  20  22
ENDBRANCH  17  20
ENDBRANCH  12  13
ENDBRANCH   8  12
ENDBRANCH   3   6
TORSDOF 7
ENDMDL
MODEL      280
REMARK 921   NORMALIZED FREE ENERGY PREDICTED BY IDOCK:   -4.17 KCAL/MOL
REMARK 922        TOTAL FREE ENERGY PREDICTED BY IDOCK:   -7.86 KCAL/MOL
REMARK 923 INTER-LIGAND FREE ENERGY PREDICTED BY IDOCK:   -6.61 KCAL/MOL
REMARK 924 INTRA-LIGAND FREE ENERGY PREDICTED BY IDOCK:   -1.25 KCAL/MOL
REMARK 927      BINDING AFFINITY PREDICTED BY RF-SCORE:    0.00 PKD
ROOT
HETATM    1  C   UNL     1     -11.070   3.653  63.510  1.00  0.00     0.071 C  
HETATM    2  N   UNL     1     -10.666   4.079  64.821  1.00  0.00    -0.595 N  
HETATM    3  C   UNL     1      -9.339   4.074  65.195  1.00  0.00    -0.163 C  
HETATM    4  H   UNL     1     -11.372   4.390  65.488  1.00  0.00     0.000 HD 
HETATM    5  O   UNL     1      -8.423   3.765  64.440  1.00  0.00    -0.096 OA 
ENDROOT
BRANCH   3   6
HETATM    6  C   UNL     1      -9.076   4.472  66.614  1.00  0.00    -0.123 A  
HETATM    7  C   UNL     1      -8.017   5.330  66.879  1.00  0.00    -0.101 A  
HETATM    8  C   UNL     1      -7.811   5.723  68.195  1.00  0.00    -0.104 A  
HETATM    9  C   UNL     1      -8.620   5.202  69.201  1.00  0.00    -0.096 A  
HETATM   10  N   UNL     1      -9.900   3.961  67.570  1.00  0.00    -0.104 NA 
HETATM   11  C   UNL     1      -9.643   4.337  68.842  1.00  0.00    -0.157 A  
BRANCH   8  12
HETATM   12  O   UNL     1      -6.787   6.551  68.591  1.00  0.00    -0.065 OA 
BRANCH  12  13
HETATM   13  C   UNL     1      -7.045   7.885  68.830  1.00  0.00    -0.074 A  
HETATM   14  C   UNL     1      -6.453   8.795  67.952  1.00  0.00    -0.057 A  
HETATM   15  C   UNL     1      -6.623  10.161  68.162  1.00  0.00    -0.058 A  
HETATM   16  F   UNL     1      -6.041  11.031  67.324  1.00  0.00    -0.053 F  
HETATM   17  C   UNL     1      -7.327  10.637  69.270  1.00  0.00    -0.119 A  
HETATM   18  C   UNL     1      -7.773   8.352  69.931  1.00  0.00    -0.092 A  
HETATM   19  C   UNL     1      -7.921   9.726  70.147  1.00  0.00    -0.201 A  
BRANCH  17  20
HETATM   20  N   UNL     1      -7.408  12.031  69.489  1.00  0.00    -0.322 N  
HETATM   21  H   UNL     1      -6.938  12.447  70.293  1.00  0.00     0.000 HD 
BRANCH  20  22
HETATM   22  C   UNL     1      -8.125  12.837  68.615  1.00  0.00    -0.007 C  
HETATM   23  O   UNL     1      -7.674  13.827  68.045  1.00  0.00    -0.123 OA 
BRANCH  22  24
HETATM   24  N   UNL     1      -9.423  12.382  68.477  1.00  0.00    -0.363 N  
HETATM   25  H   UNL     1      -9.962  12.159  69.313  1.00  0.00     0.000 HD 
BRANCH  24  26
HETATM   26  C   UNL     1     -10.020  12.219  67.212  1.00  0.00    -0.204 A  
HETATM   27  C   UNL     1      -9.707  11.085  66.471  1.00  0.00    -0.230 A  
HETATM   28  C   UNL     1     -10.281  10.900  65.214  1.00  0.00    -0.351 A  
HETATM   29  C   UNL     1     -11.115  11.877  64.654  1.00  0.00    -0.317 A  
HETATM   30 CL   UNL     1     -11.735  11.532  63.082  1.00  0.00    -0.169 Cl 
HETATM   31  C   UNL     1     -11.401  13.050  65.361  1.00  0.00    -0.327 A  
HETATM   32  C   UNL     1     -10.870  13.190  66.666  1.00  0.00    -0.292 A  
HETATM   33  C   UNL     1     -12.207  14.199  64.806  1.00  0.00    -0.440 C  
HETATM   34  F   UNL     1     -13.324  14.452  65.544  1.00  0.00    -0.470 F  
HETATM   35  F   UNL     1     -11.490  15.363  64.820  1.00  0.00    -0.370 F  
HETATM   36  F   UNL     1     -12.639  14.070  63.524  1.00  0.00    -0.435 F  
ENDBRANCH  24  26
ENDBRANCH  22  24
ENDBRANCH  20  22
ENDBRANCH  17  20
ENDBRANCH  12  13
ENDBRANCH   8  12
ENDBRANCH   3   6
TORSDOF 7
ENDMDL
MODEL      281
REMARK 921   NORMALIZED FREE ENERGY PREDICTED BY IDOCK:   -4.16 KCAL/MOL
REMARK 922        TOTAL FREE ENERGY PREDICTED BY IDOCK:   -7.85 KCAL/MOL
REMARK 923 INTER-LIGAND FREE ENERGY PREDICTED BY IDOCK:   -6.70 KCAL/MOL
REMARK 924 INTRA-LIGAND FREE ENERGY PREDICTED BY IDOCK:   -1.14 KCAL/MOL
REMARK 927      BINDING AFFINITY PREDICTED BY RF-SCORE:    0.00 PKD
ROOT
HETATM    1  C   UNL     1      -7.093   5.334  63.212  1.00  0.00    -0.043 C  
HETATM    2  N   UNL     1      -6.977   5.756  64.580  1.00  0.00    -0.051 N  
HETATM    3  C   UNL     1      -6.824   4.840  65.599  1.00  0.00    -0.061 C  
HETATM    4  H   UNL     1      -7.007   6.751  64.802  1.00  0.00     0.000 HD 
HETATM    5  O   UNL     1      -6.726   3.631  65.415  1.00  0.00    -0.046 OA 
ENDROOT
BRANCH   3   6
HETATM    6  C   UNL     1      -6.792   5.421  66.978  1.00  0.00    -0.063 A  
HETATM    7  C   UNL     1      -7.143   6.753  67.147  1.00  0.00    -0.079 A  
HETATM    8  C   UNL     1      -7.148   7.266  68.438  1.00  0.00    -0.081 A  
HETATM    9  C   UNL     1      -6.746   6.459  69.498  1.00  0.00    -0.053 A  
HETATM   10  N   UNL     1      -6.415   4.597  67.995  1.00  0.00    -0.040 NA 
HETATM   11  C   UNL     1      -6.396   5.145  69.230  1.00  0.00    -0.034 A  
BRANCH   8  12
HETATM   12  O   UNL     1      -7.457   8.573  68.736  1.00  0.00    -0.088 OA 
BRANCH  12  13
HETATM   13  C   UNL     1      -7.861   9.423  67.728  1.00  0.00    -0.095 A  
HETATM   14  C   UNL     1      -9.114   9.166  67.168  1.00  0.00    -0.146 A  
HETATM   15  C   UNL     1      -9.566   9.948  66.110  1.00  0.00    -0.218 A  
HETATM   16  F   UNL     1     -10.765   9.688  65.566  1.00  0.00    -0.090 F  
HETATM   17  C   UNL     1      -8.763  10.949  65.559  1.00  0.00    -0.171 A  
HETATM   18  C   UNL     1      -7.057  10.441  67.200  1.00  0.00    -0.090 A  
HETATM   19  C   UNL     1      -7.511  11.208  66.121  1.00  0.00    -0.022 A  
BRANCH  17  20
HETATM   20  N   UNL     1      -9.229  11.667  64.434  1.00  0.00    -0.421 N  
HETATM   21  H   UNL     1      -8.740  11.585  63.542  1.00  0.00     0.000 HD 
BRANCH  20  22
HETATM   22  C   UNL     1     -10.348  12.482  64.537  1.00  0.00    -0.336 C  
HETATM   23  O   UNL     1     -11.444  12.232  64.041  1.00  0.00    -0.347 OA 
BRANCH  22  24
HETATM   24  N   UNL     1     -10.063  13.621  65.266  1.00  0.00    -0.490 N  
HETATM   25  H   UNL     1      -9.400  14.298  64.890  1.00  0.00     0.000 HD 
BRANCH  24  26
HETATM   26  C   UNL     1     -10.665  13.870  66.514  1.00  0.00    -0.277 A  
HETATM   27  C   UNL     1     -10.881  15.191  66.895  1.00  0.00    -0.317 A  
HETATM   28  C   UNL     1     -11.472  15.467  68.127  1.00  0.00    -0.352 A  
HETATM   29  C   UNL     1     -11.787  14.434  69.020  1.00  0.00    -0.323 A  
HETATM   30 CL   UNL     1     -12.489  14.918  70.520  1.00  0.00    -0.394 Cl 
HETATM   31  C   UNL     1     -11.529  13.102  68.679  1.00  0.00    -0.342 A  
HETATM   32  C   UNL     1     -10.997  12.833  67.394  1.00  0.00    -0.285 A  
HETATM   33  C   UNL     1     -11.744  11.932  69.608  1.00  0.00    -0.343 C  
HETATM   34  F   UNL     1     -12.637  11.033  69.110  1.00  0.00    -0.356 F  
HETATM   35  F   UNL     1     -10.587  11.228  69.797  1.00  0.00    -0.207 F  
HETATM   36  F   UNL     1     -12.183  12.226  70.860  1.00  0.00    -0.444 F  
ENDBRANCH  24  26
ENDBRANCH  22  24
ENDBRANCH  20  22
ENDBRANCH  17  20
ENDBRANCH  12  13
ENDBRANCH   8  12
ENDBRANCH   3   6
TORSDOF 7
ENDMDL
MODEL      282
REMARK 921   NORMALIZED FREE ENERGY PREDICTED BY IDOCK:   -4.14 KCAL/MOL
REMARK 922        TOTAL FREE ENERGY PREDICTED BY IDOCK:   -7.82 KCAL/MOL
REMARK 923 INTER-LIGAND FREE ENERGY PREDICTED BY IDOCK:   -5.88 KCAL/MOL
REMARK 924 INTRA-LIGAND FREE ENERGY PREDICTED BY IDOCK:   -1.94 KCAL/MOL
REMARK 927      BINDING AFFINITY PREDICTED BY RF-SCORE:    0.00 PKD
ROOT
HETATM    1  C   UNL     1      -5.726   8.817  72.348  1.00  0.00    -0.067 C  
HETATM    2  N   UNL     1      -6.153   9.525  71.173  1.00  0.00    -0.078 N  
HETATM    3  C   UNL     1      -5.792   9.099  69.912  1.00  0.00    -0.035 C  
HETATM    4  H   UNL     1      -6.735  10.357  71.272  1.00  0.00     0.000 HD 
HETATM    5  O   UNL     1      -5.140   8.082  69.701  1.00  0.00    -0.022 OA 
ENDROOT
BRANCH   3   6
HETATM    6  C   UNL     1      -6.247   9.977  68.788  1.00  0.00    -0.040 A  
HETATM    7  C   UNL     1      -5.904  11.321  68.814  1.00  0.00    -0.043 A  
HETATM    8  C   UNL     1      -6.299  12.114  67.744  1.00  0.00    -0.092 A  
HETATM    9  C   UNL     1      -7.068  11.559  66.726  1.00  0.00    -0.112 A  
HETATM   10  N   UNL     1      -6.979   9.395  67.798  1.00  0.00    -0.080 NA 
HETATM   11  C   UNL     1      -7.376  10.208  66.794  1.00  0.00    -0.104 A  
BRANCH   8  12
HETATM   12  O   UNL     1      -6.040  13.462  67.659  1.00  0.00    -0.165 OA 
BRANCH  12  13
HETATM   13  C   UNL     1      -7.056  14.366  67.889  1.00  0.00    -0.159 A  
HETATM   14  C   UNL     1      -7.716  14.254  69.114  1.00  0.00    -0.011 A  
HETATM   15  C   UNL     1      -8.788  15.096  69.396  1.00  0.00    -0.172 A  
HETATM   16  F   UNL     1      -9.428  14.974  70.569  1.00  0.00     0.107 F  
HETATM   17  C   UNL     1      -9.252  16.012  68.449  1.00  0.00    -0.196 A  
HETATM   18  C   UNL     1      -7.498  15.298  66.943  1.00  0.00     0.013 A  
HETATM   19  C   UNL     1      -8.591  16.125  67.225  1.00  0.00    -0.198 A  
BRANCH  17  20
HETATM   20  N   UNL     1     -10.394  16.792  68.745  1.00  0.00    -0.296 N  
HETATM   21  H   UNL     1     -10.316  17.808  68.792  1.00  0.00     0.000 HD 
BRANCH  20  22
HETATM   22  C   UNL     1     -11.620  16.181  68.973  1.00  0.00    -0.298 C  
HETATM   23  O   UNL     1     -12.158  16.079  70.073  1.00  0.00    -0.286 OA 
BRANCH  22  24
HETATM   24  N   UNL     1     -12.152  15.691  67.796  1.00  0.00    -0.099 N  
HETATM   25  H   UNL     1     -12.858  16.239  67.304  1.00  0.00     0.000 HD 
BRANCH  24  26
HETATM   26  C   UNL     1     -11.747  14.454  67.259  1.00  0.00    -0.404 A  
HETATM   27  C   UNL     1     -11.627  14.337  65.878  1.00  0.00    -0.358 A  
HETATM   28  C   UNL     1     -11.231  13.123  65.319  1.00  0.00    -0.315 A  
HETATM   29  C   UNL     1     -11.019  11.996  66.124  1.00  0.00    -0.302 A  
HETATM   30 CL   UNL     1     -10.558  10.552  65.300  1.00  0.00    -0.226 Cl 
HETATM   31  C   UNL     1     -11.186  12.078  67.511  1.00  0.00    -0.357 A  
HETATM   32  C   UNL     1     -11.517  13.336  68.071  1.00  0.00    -0.344 A  
HETATM   33  C   UNL     1     -11.075  10.901  68.449  1.00  0.00    -0.262 C  
HETATM   34  F   UNL     1     -10.093  11.069  69.378  1.00  0.00    -0.226 F  
HETATM   35  F   UNL     1     -12.227  10.726  69.166  1.00  0.00    -0.373 F  
HETATM   36  F   UNL     1     -10.833   9.692  67.877  1.00  0.00    -0.281 F  
ENDBRANCH  24  26
ENDBRANCH  22  24
ENDBRANCH  20  22
ENDBRANCH  17  20
ENDBRANCH  12  13
ENDBRANCH   8  12
ENDBRANCH   3   6
TORSDOF 7
ENDMDL
MODEL      283
REMARK 921   NORMALIZED FREE ENERGY PREDICTED BY IDOCK:   -4.07 KCAL/MOL
REMARK 922        TOTAL FREE ENERGY PREDICTED BY IDOCK:   -7.72 KCAL/MOL
REMARK 923 INTER-LIGAND FREE ENERGY PREDICTED BY IDOCK:   -6.71 KCAL/MOL
REMARK 924 INTRA-LIGAND FREE ENERGY PREDICTED BY IDOCK:   -1.01 KCAL/MOL
REMARK 927      BINDING AFFINITY PREDICTED BY RF-SCORE:    0.00 PKD
ROOT
HETATM    1  C   UNL     1     -11.306   7.646  73.226  1.00  0.00     0.001 C  
HETATM    2  N   UNL     1     -11.209   8.233  71.918  1.00  0.00    -0.279 N  
HETATM    3  C   UNL     1     -10.394   7.686  70.950  1.00  0.00    -0.201 C  
HETATM    4  H   UNL     1     -11.753   9.068  71.701  1.00  0.00     0.000 HD 
HETATM    5  O   UNL     1      -9.747   6.657  71.110  1.00  0.00    -0.174 OA 
ENDROOT
BRANCH   3   6
HETATM    6  C   UNL     1     -10.337   8.447  69.662  1.00  0.00    -0.218 A  
HETATM    7  C   UNL     1     -11.107   9.594  69.532  1.00  0.00    -0.198 A  
HETATM    8  C   UNL     1     -11.012  10.312  68.347  1.00  0.00    -0.260 A  
HETATM    9  C   UNL     1     -10.208   9.832  67.317  1.00  0.00    -0.289 A  
HETATM   10  N   UNL     1      -9.523   7.961  68.684  1.00  0.00    -0.149 NA 
HETATM   11  C   UNL     1      -9.488   8.667  67.533  1.00  0.00    -0.149 A  
BRANCH   8  12
HETATM   12  O   UNL     1     -11.737  11.451  68.087  1.00  0.00    -0.459 OA 
BRANCH  12  13
HETATM   13  C   UNL     1     -11.140  12.500  67.421  1.00  0.00    -0.272 A  
HETATM   14  C   UNL     1     -10.288  13.308  68.178  1.00  0.00    -0.246 A  
HETATM   15  C   UNL     1      -9.691  14.418  67.588  1.00  0.00    -0.219 A  
HETATM   16  F   UNL     1      -8.885  15.198  68.324  1.00  0.00    -0.159 F  
HETATM   17  C   UNL     1      -9.975  14.772  66.268  1.00  0.00    -0.291 A  
HETATM   18  C   UNL     1     -11.412  12.833  66.088  1.00  0.00    -0.399 A  
HETATM   19  C   UNL     1     -10.825  13.964  65.510  1.00  0.00    -0.306 A  
BRANCH  17  20
HETATM   20  N   UNL     1      -9.409  15.952  65.733  1.00  0.00    -0.305 N  
HETATM   21  H   UNL     1      -8.398  16.024  65.618  1.00  0.00     0.000 HD 
BRANCH  20  22
HETATM   22  C   UNL     1     -10.224  17.014  65.363  1.00  0.00     0.016 C  
HETATM   23  O   UNL     1     -10.685  17.184  64.237  1.00  0.00    -0.100 OA 
BRANCH  22  24
HETATM   24  N   UNL     1     -10.440  17.865  66.430  1.00  0.00    -0.349 N  
HETATM   25  H   UNL     1     -11.372  17.920  66.840  1.00  0.00     0.000 HD 
BRANCH  24  26
HETATM   26  C   UNL     1      -9.406  18.656  66.967  1.00  0.00    -0.294 A  
HETATM   27  C   UNL     1      -9.257  19.958  66.501  1.00  0.00    -0.483 A  
HETATM   28  C   UNL     1      -8.240  20.763  67.012  1.00  0.00    -0.193 A  
HETATM   29  C   UNL     1      -7.320  20.256  67.939  1.00  0.00    -0.276 A  
HETATM   30 CL   UNL     1      -6.097  21.351  68.469  1.00  0.00    -0.070 Cl 
HETATM   31  C   UNL     1      -7.420  18.932  68.382  1.00  0.00    -0.331 A  
HETATM   32  C   UNL     1      -8.502  18.150  67.909  1.00  0.00    -0.259 A  
HETATM   33  C   UNL     1      -6.425  18.268  69.302  1.00  0.00    -0.254 C  
HETATM   34  F   UNL     1      -6.998  17.840  70.461  1.00  0.00     0.774 F  
HETATM   35  F   UNL     1      -5.886  17.151  68.728  1.00  0.00    -0.136 F  
HETATM   36  F   UNL     1      -5.356  19.018  69.679  1.00  0.00    -0.185 F  
ENDBRANCH  24  26
ENDBRANCH  22  24
ENDBRANCH  20  22
ENDBRANCH  17  20
ENDBRANCH  12  13
ENDBRANCH   8  12
ENDBRANCH   3   6
TORSDOF 7
ENDMDL
MODEL      284
REMARK 921   NORMALIZED FREE ENERGY PREDICTED BY IDOCK:   -4.07 KCAL/MOL
REMARK 922        TOTAL FREE ENERGY PREDICTED BY IDOCK:   -7.72 KCAL/MOL
REMARK 923 INTER-LIGAND FREE ENERGY PREDICTED BY IDOCK:   -6.59 KCAL/MOL
REMARK 924 INTRA-LIGAND FREE ENERGY PREDICTED BY IDOCK:   -1.13 KCAL/MOL
REMARK 927      BINDING AFFINITY PREDICTED BY RF-SCORE:    0.00 PKD
ROOT
HETATM    1  C   UNL     1     -12.232  16.097  72.682  1.00  0.00    -0.532 C  
HETATM    2  N   UNL     1     -11.665  16.161  71.363  1.00  0.00    -0.553 N  
HETATM    3  C   UNL     1     -11.737  15.086  70.503  1.00  0.00    -0.297 C  
HETATM    4  H   UNL     1     -11.202  17.017  71.057  1.00  0.00     0.000 HD 
HETATM    5  O   UNL     1     -12.319  14.040  70.772  1.00  0.00    -0.328 OA 
ENDROOT
BRANCH   3   6
HETATM    6  C   UNL     1     -11.037  15.271  69.192  1.00  0.00    -0.263 A  
HETATM    7  C   UNL     1     -10.201  14.262  68.736  1.00  0.00    -0.226 A  
HETATM    8  C   UNL     1      -9.592  14.431  67.499  1.00  0.00    -0.215 A  
HETATM    9  C   UNL     1      -9.786  15.615  66.795  1.00  0.00    -0.255 A  
HETATM   10  N   UNL     1     -11.268  16.433  68.520  1.00  0.00    -0.363 NA 
HETATM   11  C   UNL     1     -10.627  16.574  67.339  1.00  0.00    -0.300 A  
BRANCH   8  12
HETATM   12  O   UNL     1      -8.727  13.515  66.945  1.00  0.00    -0.213 OA 
BRANCH  12  13
HETATM   13  C   UNL     1      -9.153  12.222  66.730  1.00  0.00    -0.211 A  
HETATM   14  C   UNL     1      -8.939  11.319  67.773  1.00  0.00    -0.141 A  
HETATM   15  C   UNL     1      -9.293   9.983  67.609  1.00  0.00    -0.144 A  
HETATM   16  F   UNL     1      -9.072   9.117  68.610  1.00  0.00    -0.133 F  
HETATM   17  C   UNL     1      -9.803   9.517  66.396  1.00  0.00    -0.253 A  
HETATM   18  C   UNL     1      -9.687  11.770  65.517  1.00  0.00    -0.248 A  
HETATM   19  C   UNL     1     -10.019  10.420  65.352  1.00  0.00    -0.362 A  
BRANCH  17  20
HETATM   20  N   UNL     1     -10.074   8.138  66.245  1.00  0.00    -0.479 N  
HETATM   21  H   UNL     1     -11.031   7.796  66.337  1.00  0.00     0.000 HD 
BRANCH  20  22
HETATM   22  C   UNL     1      -9.045   7.248  65.971  1.00  0.00    -0.075 C  
HETATM   23  O   UNL     1      -8.017   7.532  65.361  1.00  0.00    -0.109 OA 
BRANCH  22  24
HETATM   24  N   UNL     1      -9.334   5.992  66.469  1.00  0.00    -0.149 N  
HETATM   25  H   UNL     1     -10.144   5.489  66.107  1.00  0.00     0.000 HD 
BRANCH  24  26
HETATM   26  C   UNL     1      -8.540   5.389  67.464  1.00  0.00    -0.108 A  
HETATM   27  C   UNL     1      -8.268   4.028  67.362  1.00  0.00    -0.098 A  
HETATM   28  C   UNL     1      -7.487   3.405  68.335  1.00  0.00    -0.050 A  
HETATM   29  C   UNL     1      -7.031   4.115  69.453  1.00  0.00    -0.046 A  
HETATM   30 CL   UNL     1      -6.098   3.215  70.592  1.00  0.00    -0.018 Cl 
HETATM   31  C   UNL     1      -7.339   5.472  69.602  1.00  0.00    -0.066 A  
HETATM   32  C   UNL     1      -8.070   6.108  68.569  1.00  0.00    -0.108 A  
HETATM   33  C   UNL     1      -6.976   6.295  70.813  1.00  0.00    -0.068 C  
HETATM   34  F   UNL     1      -6.172   7.350  70.501  1.00  0.00    -0.035 F  
HETATM   35  F   UNL     1      -8.087   6.843  71.393  1.00  0.00    -0.104 F  
HETATM   36  F   UNL     1      -6.342   5.641  71.822  1.00  0.00    -0.037 F  
ENDBRANCH  24  26
ENDBRANCH  22  24
ENDBRANCH  20  22
ENDBRANCH  17  20
ENDBRANCH  12  13
ENDBRANCH   8  12
ENDBRANCH   3   6
TORSDOF 7
ENDMDL
MODEL      285
REMARK 921   NORMALIZED FREE ENERGY PREDICTED BY IDOCK:   -4.06 KCAL/MOL
REMARK 922        TOTAL FREE ENERGY PREDICTED BY IDOCK:   -7.71 KCAL/MOL
REMARK 923 INTER-LIGAND FREE ENERGY PREDICTED BY IDOCK:   -6.90 KCAL/MOL
REMARK 924 INTRA-LIGAND FREE ENERGY PREDICTED BY IDOCK:   -0.80 KCAL/MOL
REMARK 927      BINDING AFFINITY PREDICTED BY RF-SCORE:    0.00 PKD
ROOT
HETATM    1  C   UNL     1      -8.545   2.852  65.756  1.00  0.00    -0.117 C  
HETATM    2  N   UNL     1      -8.179   4.034  65.025  1.00  0.00    -0.100 N  
HETATM    3  C   UNL     1      -8.110   5.263  65.645  1.00  0.00    -0.117 C  
HETATM    4  H   UNL     1      -7.966   3.963  64.030  1.00  0.00     0.000 HD 
HETATM    5  O   UNL     1      -8.299   5.429  66.846  1.00  0.00    -0.108 OA 
ENDROOT
BRANCH   3   6
HETATM    6  C   UNL     1      -7.790   6.414  64.743  1.00  0.00    -0.111 A  
HETATM    7  C   UNL     1      -8.495   7.600  64.902  1.00  0.00     0.008 A  
HETATM    8  C   UNL     1      -8.158   8.671  64.085  1.00  0.00    -0.162 A  
HETATM    9  C   UNL     1      -7.183   8.507  63.105  1.00  0.00    -0.096 A  
HETATM   10  N   UNL     1      -6.816   6.226  63.811  1.00  0.00    -0.040 NA 
HETATM   11  C   UNL     1      -6.544   7.280  63.011  1.00  0.00    -0.053 A  
BRANCH   8  12
HETATM   12  O   UNL     1      -8.793   9.891  64.129  1.00  0.00    -0.189 OA 
BRANCH  12  13
HETATM   13  C   UNL     1      -8.808  10.608  65.306  1.00  0.00    -0.189 A  
HETATM   14  C   UNL     1      -9.989  11.295  65.596  1.00  0.00    -0.292 A  
HETATM   15  C   UNL     1     -10.061  12.085  66.740  1.00  0.00    -0.203 A  
HETATM   16  F   UNL     1     -11.193  12.755  67.005  1.00  0.00    -0.267 F  
HETATM   17  C   UNL     1      -8.952  12.248  67.573  1.00  0.00    -0.180 A  
HETATM   18  C   UNL     1      -7.698  10.745  66.149  1.00  0.00    -0.149 A  
HETATM   19  C   UNL     1      -7.772  11.558  67.285  1.00  0.00    -0.150 A  
BRANCH  17  20
HETATM   20  N   UNL     1      -9.044  13.122  68.680  1.00  0.00    -0.387 N  
HETATM   21  H   UNL     1      -9.570  12.840  69.507  1.00  0.00     0.000 HD 
BRANCH  20  22
HETATM   22  C   UNL     1      -8.419  14.362  68.648  1.00  0.00    -0.156 C  
HETATM   23  O   UNL     1      -7.969  14.945  69.630  1.00  0.00    -0.137 OA 
BRANCH  22  24
HETATM   24  N   UNL     1      -8.381  14.860  67.359  1.00  0.00    -0.180 N  
HETATM   25  H   UNL     1      -8.577  14.234  66.578  1.00  0.00     0.000 HD 
BRANCH  24  26
HETATM   26  C   UNL     1      -8.077  16.210  67.097  1.00  0.00    -0.192 A  
HETATM   27  C   UNL     1      -6.741  16.583  66.998  1.00  0.00    -0.240 A  
HETATM   28  C   UNL     1      -6.412  17.914  66.742  1.00  0.00    -0.218 A  
HETATM   29  C   UNL     1      -7.407  18.895  66.653  1.00  0.00    -0.224 A  
HETATM   30 CL   UNL     1      -6.859  20.504  66.360  1.00  0.00    -0.298 Cl 
HETATM   31  C   UNL     1      -8.755  18.550  66.803  1.00  0.00    -0.283 A  
HETATM   32  C   UNL     1      -9.078  17.184  66.989  1.00  0.00    -0.242 A  
HETATM   33  C   UNL     1      -9.888  19.546  66.819  1.00  0.00    -0.382 C  
HETATM   34  F   UNL     1     -10.786  19.326  65.819  1.00  0.00    -0.510 F  
HETATM   35  F   UNL     1     -10.607  19.463  67.979  1.00  0.00    -0.463 F  
HETATM   36  F   UNL     1      -9.543  20.857  66.715  1.00  0.00    -0.474 F  
ENDBRANCH  24  26
ENDBRANCH  22  24
ENDBRANCH  20  22
ENDBRANCH  17  20
ENDBRANCH  12  13
ENDBRANCH   8  12
ENDBRANCH   3   6
TORSDOF 7
ENDMDL
MODEL      286
REMARK 921   NORMALIZED FREE ENERGY PREDICTED BY IDOCK:   -4.04 KCAL/MOL
REMARK 922        TOTAL FREE ENERGY PREDICTED BY IDOCK:   -7.68 KCAL/MOL
REMARK 923 INTER-LIGAND FREE ENERGY PREDICTED BY IDOCK:   -6.98 KCAL/MOL
REMARK 924 INTRA-LIGAND FREE ENERGY PREDICTED BY IDOCK:   -0.69 KCAL/MOL
REMARK 927      BINDING AFFINITY PREDICTED BY RF-SCORE:    0.00 PKD
ROOT
HETATM    1  C   UNL     1     -13.303   7.063  71.680  1.00  0.00    -0.285 C  
HETATM    2  N   UNL     1     -12.512   6.982  70.483  1.00  0.00    -0.615 N  
HETATM    3  C   UNL     1     -11.308   6.310  70.468  1.00  0.00    -0.361 C  
HETATM    4  H   UNL     1     -12.846   7.429  69.630  1.00  0.00     0.000 HD 
HETATM    5  O   UNL     1     -10.859   5.702  71.434  1.00  0.00    -0.253 OA 
ENDROOT
BRANCH   3   6
HETATM    6  C   UNL     1     -10.560   6.373  69.173  1.00  0.00    -0.255 A  
HETATM    7  C   UNL     1     -10.524   7.577  68.484  1.00  0.00    -0.211 A  
HETATM    8  C   UNL     1      -9.792   7.630  67.305  1.00  0.00    -0.186 A  
HETATM    9  C   UNL     1      -9.179   6.477  66.825  1.00  0.00    -0.163 A  
HETATM   10  N   UNL     1      -9.954   5.231  68.745  1.00  0.00    -0.165 NA 
HETATM   11  C   UNL     1      -9.284   5.315  67.575  1.00  0.00    -0.114 A  
BRANCH   8  12
HETATM   12  O   UNL     1      -9.694   8.756  66.520  1.00  0.00    -0.214 OA 
BRANCH  12  13
HETATM   13  C   UNL     1      -9.647   9.998  67.116  1.00  0.00    -0.165 A  
HETATM   14  C   UNL     1      -8.592  10.218  68.004  1.00  0.00    -0.118 A  
HETATM   15  C   UNL     1      -8.509  11.429  68.685  1.00  0.00    -0.131 A  
HETATM   16  F   UNL     1      -7.501  11.629  69.548  1.00  0.00    -0.055 F  
HETATM   17  C   UNL     1      -9.496  12.406  68.539  1.00  0.00    -0.098 A  
HETATM   18  C   UNL     1     -10.629  10.982  66.944  1.00  0.00    -0.307 A  
HETATM   19  C   UNL     1     -10.550  12.188  67.650  1.00  0.00    -0.236 A  
BRANCH  17  20
HETATM   20  N   UNL     1      -9.415  13.588  69.310  1.00  0.00    -0.087 N  
HETATM   21  H   UNL     1      -8.505  14.009  69.502  1.00  0.00     0.000 HD 
BRANCH  20  22
HETATM   22  C   UNL     1     -10.568  14.181  69.807  1.00  0.00     0.225 C  
HETATM   23  O   UNL     1     -11.598  13.576  70.095  1.00  0.00    -0.228 OA 
BRANCH  22  24
HETATM   24  N   UNL     1     -10.408  15.548  69.926  1.00  0.00    -0.304 N  
HETATM   25  H   UNL     1     -10.272  15.953  70.852  1.00  0.00     0.000 HD 
BRANCH  24  26
HETATM   26  C   UNL     1     -10.428  16.397  68.803  1.00  0.00    -0.300 A  
HETATM   27  C   UNL     1     -10.373  17.771  69.007  1.00  0.00    -0.234 A  
HETATM   28  C   UNL     1     -10.394  18.635  67.913  1.00  0.00    -0.442 A  
HETATM   29  C   UNL     1     -10.544  18.140  66.610  1.00  0.00    -0.278 A  
HETATM   30 CL   UNL     1     -10.582  19.319  65.352  1.00  0.00    -0.196 Cl 
HETATM   31  C   UNL     1     -10.655  16.763  66.387  1.00  0.00    -0.192 A  
HETATM   32  C   UNL     1     -10.557  15.895  67.501  1.00  0.00    -0.315 A  
HETATM   33  C   UNL     1     -10.914  16.142  65.036  1.00  0.00    -0.344 C  
HETATM   34  F   UNL     1      -9.916  15.297  64.655  1.00  0.00    -0.258 F  
HETATM   35  F   UNL     1     -12.050  15.381  65.047  1.00  0.00    -0.190 F  
HETATM   36  F   UNL     1     -11.080  17.002  63.997  1.00  0.00     0.090 F  
ENDBRANCH  24  26
ENDBRANCH  22  24
ENDBRANCH  20  22
ENDBRANCH  17  20
ENDBRANCH  12  13
ENDBRANCH   8  12
ENDBRANCH   3   6
TORSDOF 7
ENDMDL
MODEL      287
REMARK 921   NORMALIZED FREE ENERGY PREDICTED BY IDOCK:   -4.03 KCAL/MOL
REMARK 922        TOTAL FREE ENERGY PREDICTED BY IDOCK:   -7.67 KCAL/MOL
REMARK 923 INTER-LIGAND FREE ENERGY PREDICTED BY IDOCK:   -6.68 KCAL/MOL
REMARK 924 INTRA-LIGAND FREE ENERGY PREDICTED BY IDOCK:   -0.99 KCAL/MOL
REMARK 927      BINDING AFFINITY PREDICTED BY RF-SCORE:    0.00 PKD
ROOT
HETATM    1  C   UNL     1      -5.151  16.059  69.511  1.00  0.00    -0.109 C  
HETATM    2  N   UNL     1      -6.414  16.048  68.826  1.00  0.00    -0.115 N  
HETATM    3  C   UNL     1      -6.568  15.391  67.624  1.00  0.00    -0.169 C  
HETATM    4  H   UNL     1      -7.212  16.534  69.236  1.00  0.00     0.000 HD 
HETATM    5  O   UNL     1      -5.677  14.740  67.088  1.00  0.00    -0.197 OA 
ENDROOT
BRANCH   3   6
HETATM    6  C   UNL     1      -7.918  15.528  66.991  1.00  0.00    -0.233 A  
HETATM    7  C   UNL     1      -8.547  14.387  66.513  1.00  0.00     0.064 A  
HETATM    8  C   UNL     1      -9.816  14.525  65.966  1.00  0.00    -0.318 A  
HETATM    9  C   UNL     1     -10.383  15.792  65.858  1.00  0.00    -0.372 A  
HETATM   10  N   UNL     1      -8.451  16.779  66.922  1.00  0.00    -0.196 NA 
HETATM   11  C   UNL     1      -9.671  16.876  66.349  1.00  0.00    -0.284 A  
BRANCH   8  12
HETATM   12  O   UNL     1     -10.536  13.477  65.439  1.00  0.00    -0.294 OA 
BRANCH  12  13
HETATM   13  C   UNL     1     -10.100  12.185  65.639  1.00  0.00    -0.248 A  
HETATM   14  C   UNL     1     -10.071  11.741  66.963  1.00  0.00    -0.232 A  
HETATM   15  C   UNL     1      -9.592  10.466  67.249  1.00  0.00    -0.156 A  
HETATM   16  F   UNL     1      -9.553  10.050  68.524  1.00  0.00    -0.142 F  
HETATM   17  C   UNL     1      -9.085   9.644  66.241  1.00  0.00    -0.160 A  
HETATM   18  C   UNL     1      -9.616  11.359  64.618  1.00  0.00    -0.228 A  
HETATM   19  C   UNL     1      -9.115  10.087  64.916  1.00  0.00    -0.265 A  
BRANCH  17  20
HETATM   20  N   UNL     1      -8.534   8.388  66.585  1.00  0.00    -0.109 N  
HETATM   21  H   UNL     1      -7.628   8.342  67.051  1.00  0.00     0.000 HD 
BRANCH  20  22
HETATM   22  C   UNL     1      -9.222   7.218  66.292  1.00  0.00    -0.130 C  
HETATM   23  O   UNL     1      -8.945   6.455  65.370  1.00  0.00    -0.034 OA 
BRANCH  22  24
HETATM   24  N   UNL     1     -10.271   7.030  67.172  1.00  0.00    -0.220 N  
HETATM   25  H   UNL     1     -11.225   7.194  66.850  1.00  0.00     0.000 HD 
BRANCH  24  26
HETATM   26  C   UNL     1     -10.057   6.617  68.501  1.00  0.00    -0.161 A  
HETATM   27  C   UNL     1      -9.440   5.390  68.725  1.00  0.00    -0.168 A  
HETATM   28  C   UNL     1      -9.219   4.955  70.031  1.00  0.00    -0.182 A  
HETATM   29  C   UNL     1      -9.674   5.704  71.124  1.00  0.00    -0.172 A  
HETATM   30 CL   UNL     1      -9.356   5.037  72.683  1.00  0.00    -0.147 Cl 
HETATM   31  C   UNL     1     -10.343   6.916  70.920  1.00  0.00    -0.218 A  
HETATM   32  C   UNL     1     -10.495   7.380  69.591  1.00  0.00    -0.237 A  
HETATM   33  C   UNL     1     -10.952   7.744  72.025  1.00  0.00    -0.257 C  
HETATM   34  F   UNL     1     -10.413   8.993  72.094  1.00  0.00    -0.399 F  
HETATM   35  F   UNL     1     -12.291   7.936  71.823  1.00  0.00    -0.282 F  
HETATM   36  F   UNL     1     -10.859   7.237  73.283  1.00  0.00    -0.311 F  
ENDBRANCH  24  26
ENDBRANCH  22  24
ENDBRANCH  20  22
ENDBRANCH  17  20
ENDBRANCH  12  13
ENDBRANCH   8  12
ENDBRANCH   3   6
TORSDOF 7
ENDMDL
MODEL      288
REMARK 921   NORMALIZED FREE ENERGY PREDICTED BY IDOCK:   -4.01 KCAL/MOL
REMARK 922        TOTAL FREE ENERGY PREDICTED BY IDOCK:   -7.64 KCAL/MOL
REMARK 923 INTER-LIGAND FREE ENERGY PREDICTED BY IDOCK:   -6.57 KCAL/MOL
REMARK 924 INTRA-LIGAND FREE ENERGY PREDICTED BY IDOCK:   -1.08 KCAL/MOL
REMARK 927      BINDING AFFINITY PREDICTED BY RF-SCORE:    0.00 PKD
ROOT
HETATM    1  C   UNL     1     -11.760  15.928  72.109  1.00  0.00    -0.485 C  
HETATM    2  N   UNL     1     -11.260  15.751  70.774  1.00  0.00    -0.355 N  
HETATM    3  C   UNL     1     -11.805  14.809  69.927  1.00  0.00    -0.316 C  
HETATM    4  H   UNL     1     -10.489  16.333  70.446  1.00  0.00     0.000 HD 
HETATM    5  O   UNL     1     -12.766  14.106  70.223  1.00  0.00    -0.333 OA 
ENDROOT
BRANCH   3   6
HETATM    6  C   UNL     1     -11.134  14.687  68.594  1.00  0.00    -0.262 A  
HETATM    7  C   UNL     1     -10.275  13.619  68.378  1.00  0.00    -0.245 A  
HETATM    8  C   UNL     1      -9.692  13.496  67.124  1.00  0.00    -0.244 A  
HETATM    9  C   UNL     1      -9.934  14.468  66.157  1.00  0.00    -0.330 A  
HETATM   10  N   UNL     1     -11.411  15.643  67.665  1.00  0.00    -0.280 NA 
HETATM   11  C   UNL     1     -10.794  15.509  66.470  1.00  0.00    -0.284 A  
BRANCH   8  12
HETATM   12  O   UNL     1      -8.808  12.496  66.789  1.00  0.00    -0.208 OA 
BRANCH  12  13
HETATM   13  C   UNL     1      -9.224  11.182  66.825  1.00  0.00    -0.171 A  
HETATM   14  C   UNL     1      -9.309  10.595  68.089  1.00  0.00    -0.152 A  
HETATM   15  C   UNL     1      -9.669   9.256  68.202  1.00  0.00    -0.150 A  
HETATM   16  F   UNL     1      -9.736   8.694  69.419  1.00  0.00    -0.167 F  
HETATM   17  C   UNL     1      -9.889   8.471  67.068  1.00  0.00    -0.224 A  
HETATM   18  C   UNL     1      -9.466  10.410  65.682  1.00  0.00    -0.262 A  
HETATM   19  C   UNL     1      -9.806   9.058  65.803  1.00  0.00    -0.181 A  
BRANCH  17  20
HETATM   20  N   UNL     1     -10.175   7.096  67.225  1.00  0.00    -0.217 N  
HETATM   21  H   UNL     1     -11.130   6.758  67.103  1.00  0.00     0.000 HD 
BRANCH  20  22
HETATM   22  C   UNL     1      -9.161   6.202  67.543  1.00  0.00    -0.109 C  
HETATM   23  O   UNL     1      -8.036   6.214  67.049  1.00  0.00    -0.105 OA 
BRANCH  22  24
HETATM   24  N   UNL     1      -9.589   5.287  68.486  1.00  0.00    -0.128 N  
HETATM   25  H   UNL     1     -10.061   4.438  68.176  1.00  0.00     0.000 HD 
BRANCH  24  26
HETATM   26  C   UNL     1      -9.391   5.497  69.865  1.00  0.00    -0.147 A  
HETATM   27  C   UNL     1     -10.384   5.088  70.749  1.00  0.00    -0.265 A  
HETATM   28  C   UNL     1     -10.215   5.287  72.118  1.00  0.00    -0.252 A  
HETATM   29  C   UNL     1      -9.089   5.958  72.613  1.00  0.00    -0.130 A  
HETATM   30 CL   UNL     1      -9.020   6.159  74.325  1.00  0.00    -0.130 Cl 
HETATM   31  C   UNL     1      -8.103   6.425  71.737  1.00  0.00    -0.105 A  
HETATM   32  C   UNL     1      -8.253   6.150  70.356  1.00  0.00    -0.117 A  
HETATM   33  C   UNL     1      -6.907   7.239  72.163  1.00  0.00    -0.059 C  
HETATM   34  F   UNL     1      -5.728   6.624  71.864  1.00  0.00    -0.034 F  
HETATM   35  F   UNL     1      -6.865   8.441  71.513  1.00  0.00    -0.050 F  
HETATM   36  F   UNL     1      -6.828   7.553  73.484  1.00  0.00    -0.069 F  
ENDBRANCH  24  26
ENDBRANCH  22  24
ENDBRANCH  20  22
ENDBRANCH  17  20
ENDBRANCH  12  13
ENDBRANCH   8  12
ENDBRANCH   3   6
TORSDOF 7
ENDMDL
MODEL      289
REMARK 921   NORMALIZED FREE ENERGY PREDICTED BY IDOCK:   -4.00 KCAL/MOL
REMARK 922        TOTAL FREE ENERGY PREDICTED BY IDOCK:   -7.63 KCAL/MOL
REMARK 923 INTER-LIGAND FREE ENERGY PREDICTED BY IDOCK:   -7.19 KCAL/MOL
REMARK 924 INTRA-LIGAND FREE ENERGY PREDICTED BY IDOCK:   -0.44 KCAL/MOL
REMARK 927      BINDING AFFINITY PREDICTED BY RF-SCORE:    0.00 PKD
ROOT
HETATM    1  C   UNL     1     -10.654   3.710  63.335  1.00  0.00    -0.251 C  
HETATM    2  N   UNL     1     -10.091   4.312  64.513  1.00  0.00    -0.358 N  
HETATM    3  C   UNL     1      -8.951   5.085  64.443  1.00  0.00    -0.032 C  
HETATM    4  H   UNL     1     -10.542   4.165  65.415  1.00  0.00     0.000 HD 
HETATM    5  O   UNL     1      -8.377   5.354  63.394  1.00  0.00    -0.122 OA 
ENDROOT
BRANCH   3   6
HETATM    6  C   UNL     1      -8.439   5.583  65.759  1.00  0.00    -0.134 A  
HETATM    7  C   UNL     1      -7.537   6.637  65.765  1.00  0.00    -0.085 A  
HETATM    8  C   UNL     1      -7.103   7.115  66.995  1.00  0.00    -0.090 A  
HETATM    9  C   UNL     1      -7.530   6.491  68.163  1.00  0.00    -0.095 A  
HETATM   10  N   UNL     1      -8.896   4.964  66.883  1.00  0.00    -0.107 NA 
HETATM   11  C   UNL     1      -8.421   5.433  68.057  1.00  0.00    -0.097 A  
BRANCH   8  12
HETATM   12  O   UNL     1      -6.196   8.140  67.136  1.00  0.00    -0.052 OA 
BRANCH  12  13
HETATM   13  C   UNL     1      -6.637   9.446  67.122  1.00  0.00    -0.071 A  
HETATM   14  C   UNL     1      -6.478  10.164  68.309  1.00  0.00    -0.053 A  
HETATM   15  C   UNL     1      -6.948  11.471  68.389  1.00  0.00    -0.077 A  
HETATM   16  F   UNL     1      -6.806  12.151  69.537  1.00  0.00    -0.107 F  
HETATM   17  C   UNL     1      -7.630  12.058  67.321  1.00  0.00    -0.157 A  
HETATM   18  C   UNL     1      -7.298  10.033  66.037  1.00  0.00    -0.112 A  
HETATM   19  C   UNL     1      -7.787  11.341  66.133  1.00  0.00    -0.016 A  
BRANCH  17  20
HETATM   20  N   UNL     1      -8.162  13.359  67.472  1.00  0.00    -0.174 N  
HETATM   21  H   UNL     1      -7.620  14.075  67.957  1.00  0.00     0.000 HD 
BRANCH  20  22
HETATM   22  C   UNL     1      -9.417  13.666  66.964  1.00  0.00    -0.252 C  
HETATM   23  O   UNL     1     -10.466  13.134  67.319  1.00  0.00    -0.241 OA 
BRANCH  22  24
HETATM   24  N   UNL     1      -9.330  14.647  65.995  1.00  0.00    -0.487 N  
HETATM   25  H   UNL     1      -9.615  14.428  65.041  1.00  0.00     0.000 HD 
BRANCH  24  26
HETATM   26  C   UNL     1      -8.856  15.940  66.291  1.00  0.00    -0.351 A  
HETATM   27  C   UNL     1      -7.538  16.085  66.710  1.00  0.00    -0.247 A  
HETATM   28  C   UNL     1      -7.044  17.353  67.012  1.00  0.00    -0.216 A  
HETATM   29  C   UNL     1      -7.879  18.478  66.969  1.00  0.00    -0.227 A  
HETATM   30 CL   UNL     1      -7.146  19.981  67.393  1.00  0.00    -0.275 Cl 
HETATM   31  C   UNL     1      -9.223  18.347  66.601  1.00  0.00    -0.305 A  
HETATM   32  C   UNL     1      -9.690  17.064  66.226  1.00  0.00    -0.302 A  
HETATM   33  C   UNL     1     -10.220  19.479  66.618  1.00  0.00    -0.449 C  
HETATM   34  F   UNL     1     -10.753  19.717  65.387  1.00  0.00    -0.564 F  
HETATM   35  F   UNL     1     -11.285  19.192  67.426  1.00  0.00    -0.535 F  
HETATM   36  F   UNL     1      -9.763  20.681  67.055  1.00  0.00    -0.546 F  
ENDBRANCH  24  26
ENDBRANCH  22  24
ENDBRANCH  20  22
ENDBRANCH  17  20
ENDBRANCH  12  13
ENDBRANCH   8  12
ENDBRANCH   3   6
TORSDOF 7
ENDMDL
MODEL      290
REMARK 921   NORMALIZED FREE ENERGY PREDICTED BY IDOCK:   -3.96 KCAL/MOL
REMARK 922        TOTAL FREE ENERGY PREDICTED BY IDOCK:   -7.57 KCAL/MOL
REMARK 923 INTER-LIGAND FREE ENERGY PREDICTED BY IDOCK:   -6.10 KCAL/MOL
REMARK 924 INTRA-LIGAND FREE ENERGY PREDICTED BY IDOCK:   -1.47 KCAL/MOL
REMARK 927      BINDING AFFINITY PREDICTED BY RF-SCORE:    0.00 PKD
ROOT
HETATM    1  C   UNL     1      -9.465   3.883  66.478  1.00  0.00    -0.195 C  
HETATM    2  N   UNL     1      -9.756   4.564  67.709  1.00  0.00    -0.160 N  
HETATM    3  C   UNL     1     -10.534   5.702  67.728  1.00  0.00    -0.211 C  
HETATM    4  H   UNL     1      -9.381   4.199  68.585  1.00  0.00     0.000 HD 
HETATM    5  O   UNL     1     -11.065   6.177  66.730  1.00  0.00    -0.322 OA 
ENDROOT
BRANCH   3   6
HETATM    6  C   UNL     1     -10.690   6.344  69.072  1.00  0.00    -0.286 A  
HETATM    7  C   UNL     1     -10.492   7.713  69.182  1.00  0.00    -0.220 A  
HETATM    8  C   UNL     1     -10.680   8.301  70.426  1.00  0.00    -0.232 A  
HETATM    9  C   UNL     1     -10.995   7.502  71.521  1.00  0.00    -0.256 A  
HETATM   10  N   UNL     1     -11.020   5.535  70.117  1.00  0.00    -0.238 NA 
HETATM   11  C   UNL     1     -11.157   6.139  71.317  1.00  0.00    -0.291 A  
BRANCH   8  12
HETATM   12  O   UNL     1     -10.496   9.642  70.670  1.00  0.00    -0.279 OA 
BRANCH  12  13
HETATM   13  C   UNL     1     -10.765  10.558  69.676  1.00  0.00    -0.259 A  
HETATM   14  C   UNL     1      -9.689  11.337  69.246  1.00  0.00     0.110 A  
HETATM   15  C   UNL     1      -9.894  12.320  68.283  1.00  0.00    -0.217 A  
HETATM   16  F   UNL     1      -8.859  13.076  67.884  1.00  0.00    -0.158 F  
HETATM   17  C   UNL     1     -11.171  12.581  67.781  1.00  0.00    -0.269 A  
HETATM   18  C   UNL     1     -12.045  10.795  69.161  1.00  0.00    -0.227 A  
HETATM   19  C   UNL     1     -12.247  11.800  68.209  1.00  0.00     0.174 A  
BRANCH  17  20
HETATM   20  N   UNL     1     -11.349  13.642  66.864  1.00  0.00    -0.315 N  
HETATM   21  H   UNL     1     -11.240  14.607  67.176  1.00  0.00     0.000 HD 
BRANCH  20  22
HETATM   22  C   UNL     1     -11.671  13.376  65.540  1.00  0.00    -0.340 C  
HETATM   23  O   UNL     1     -12.798  13.472  65.060  1.00  0.00    -0.684 OA 
BRANCH  22  24
HETATM   24  N   UNL     1     -10.553  12.977  64.831  1.00  0.00    -0.320 N  
HETATM   25  H   UNL     1     -10.197  13.577  64.086  1.00  0.00     0.000 HD 
BRANCH  24  26
HETATM   26  C   UNL     1      -9.893  11.765  65.110  1.00  0.00    -0.235 A  
HETATM   27  C   UNL     1     -10.653  10.604  65.217  1.00  0.00    -0.191 A  
HETATM   28  C   UNL     1     -10.025   9.391  65.496  1.00  0.00    -0.129 A  
HETATM   29  C   UNL     1      -8.647   9.335  65.742  1.00  0.00    -0.152 A  
HETATM   30 CL   UNL     1      -8.006   7.774  66.102  1.00  0.00    -0.101 Cl 
HETATM   31  C   UNL     1      -7.873  10.499  65.693  1.00  0.00    -0.150 A  
HETATM   32  C   UNL     1      -8.512  11.711  65.335  1.00  0.00     0.445 A  
HETATM   33  C   UNL     1      -6.404  10.556  66.035  1.00  0.00    -0.124 C  
HETATM   34  F   UNL     1      -5.644  10.982  64.989  1.00  0.00    -0.141 F  
HETATM   35  F   UNL     1      -6.163  11.444  67.046  1.00  0.00    -0.072 F  
HETATM   36  F   UNL     1      -5.835   9.393  66.449  1.00  0.00    -0.053 F  
ENDBRANCH  24  26
ENDBRANCH  22  24
ENDBRANCH  20  22
ENDBRANCH  17  20
ENDBRANCH  12  13
ENDBRANCH   8  12
ENDBRANCH   3   6
TORSDOF 7
ENDMDL
MODEL      291
REMARK 921   NORMALIZED FREE ENERGY PREDICTED BY IDOCK:   -3.93 KCAL/MOL
REMARK 922        TOTAL FREE ENERGY PREDICTED BY IDOCK:   -7.52 KCAL/MOL
REMARK 923 INTER-LIGAND FREE ENERGY PREDICTED BY IDOCK:   -6.13 KCAL/MOL
REMARK 924 INTRA-LIGAND FREE ENERGY PREDICTED BY IDOCK:   -1.40 KCAL/MOL
REMARK 927      BINDING AFFINITY PREDICTED BY RF-SCORE:    0.00 PKD
ROOT
HETATM    1  C   UNL     1      -6.118  14.944  68.276  1.00  0.00    -0.122 C  
HETATM    2  N   UNL     1      -7.249  14.720  67.419  1.00  0.00    -0.198 N  
HETATM    3  C   UNL     1      -8.092  15.753  67.066  1.00  0.00    -0.236 C  
HETATM    4  H   UNL     1      -7.432  13.781  67.065  1.00  0.00     0.000 HD 
HETATM    5  O   UNL     1      -7.915  16.918  67.404  1.00  0.00    -0.164 OA 
ENDROOT
BRANCH   3   6
HETATM    6  C   UNL     1      -9.269  15.356  66.229  1.00  0.00    -0.319 A  
HETATM    7  C   UNL     1      -9.636  14.018  66.191  1.00  0.00    -0.263 A  
HETATM    8  C   UNL     1     -10.755  13.672  65.444  1.00  0.00    -0.308 A  
HETATM    9  C   UNL     1     -11.425  14.652  64.717  1.00  0.00    -0.410 A  
HETATM   10  N   UNL     1      -9.914  16.344  65.549  1.00  0.00    -0.549 NA 
HETATM   11  C   UNL     1     -10.973  15.960  64.804  1.00  0.00    -0.375 A  
BRANCH   8  12
HETATM   12  O   UNL     1     -11.210  12.381  65.308  1.00  0.00    -0.299 OA 
BRANCH  12  13
HETATM   13  C   UNL     1     -10.327  11.382  64.958  1.00  0.00    -0.287 A  
HETATM   14  C   UNL     1     -10.067  10.417  65.933  1.00  0.00    -0.326 A  
HETATM   15  C   UNL     1      -9.145   9.408  65.672  1.00  0.00    -0.207 A  
HETATM   16  F   UNL     1      -8.888   8.492  66.618  1.00  0.00    -0.120 F  
HETATM   17  C   UNL     1      -8.431   9.377  64.472  1.00  0.00    -0.177 A  
HETATM   18  C   UNL     1      -9.634  11.346  63.741  1.00  0.00    -0.258 A  
HETATM   19  C   UNL     1      -8.693  10.340  63.495  1.00  0.00    -0.210 A  
BRANCH  17  20
HETATM   20  N   UNL     1      -7.447   8.381  64.280  1.00  0.00    -0.103 N  
HETATM   21  H   UNL     1      -6.476   8.571  64.530  1.00  0.00     0.000 HD 
BRANCH  20  22
HETATM   22  C   UNL     1      -7.795   7.145  63.751  1.00  0.00    -0.110 C  
HETATM   23  O   UNL     1      -8.689   6.962  62.928  1.00  0.00     0.284 OA 
BRANCH  22  24
HETATM   24  N   UNL     1      -7.007   6.142  64.283  1.00  0.00    -0.049 N  
HETATM   25  H   UNL     1      -6.003   6.153  64.105  1.00  0.00     0.000 HD 
BRANCH  24  26
HETATM   26  C   UNL     1      -7.554   5.106  65.063  1.00  0.00    -0.082 A  
HETATM   27  C   UNL     1      -7.711   3.850  64.485  1.00  0.00    -0.081 A  
HETATM   28  C   UNL     1      -8.254   2.807  65.235  1.00  0.00    -0.091 A  
HETATM   29  C   UNL     1      -8.710   3.023  66.541  1.00  0.00    -0.133 A  
HETATM   30 CL   UNL     1      -9.383   1.653  67.344  1.00  0.00    -0.119 Cl 
HETATM   31  C   UNL     1      -8.611   4.292  67.124  1.00  0.00    -0.104 A  
HETATM   32  C   UNL     1      -7.990   5.323  66.376  1.00  0.00    -0.104 A  
HETATM   33  C   UNL     1      -9.159   4.645  68.484  1.00  0.00    -0.120 C  
HETATM   34  F   UNL     1      -8.189   5.074  69.338  1.00  0.00    -0.079 F  
HETATM   35  F   UNL     1     -10.057   5.674  68.407  1.00  0.00    -0.156 F  
HETATM   36  F   UNL     1      -9.817   3.657  69.146  1.00  0.00    -0.249 F  
ENDBRANCH  24  26
ENDBRANCH  22  24
ENDBRANCH  20  22
ENDBRANCH  17  20
ENDBRANCH  12  13
ENDBRANCH   8  12
ENDBRANCH   3   6
TORSDOF 7
ENDMDL
MODEL      292
REMARK 921   NORMALIZED FREE ENERGY PREDICTED BY IDOCK:   -3.91 KCAL/MOL
REMARK 922        TOTAL FREE ENERGY PREDICTED BY IDOCK:   -7.50 KCAL/MOL
REMARK 923 INTER-LIGAND FREE ENERGY PREDICTED BY IDOCK:   -6.47 KCAL/MOL
REMARK 924 INTRA-LIGAND FREE ENERGY PREDICTED BY IDOCK:   -1.03 KCAL/MOL
REMARK 927      BINDING AFFINITY PREDICTED BY RF-SCORE:    0.00 PKD
ROOT
HETATM    1  C   UNL     1     -10.395  11.379  63.649  1.00  0.00    -0.410 C  
HETATM    2  N   UNL     1      -9.555  11.159  64.793  1.00  0.00    -0.232 N  
HETATM    3  C   UNL     1      -8.287  10.636  64.657  1.00  0.00    -0.056 C  
HETATM    4  H   UNL     1      -9.902  11.393  65.723  1.00  0.00     0.000 HD 
HETATM    5  O   UNL     1      -7.774  10.375  63.574  1.00  0.00    -0.138 OA 
ENDROOT
BRANCH   3   6
HETATM    6  C   UNL     1      -7.557  10.391  65.941  1.00  0.00    -0.146 A  
HETATM    7  C   UNL     1      -7.542  11.395  66.899  1.00  0.00    -0.151 A  
HETATM    8  C   UNL     1      -6.896  11.138  68.101  1.00  0.00    -0.067 A  
HETATM    9  C   UNL     1      -6.240   9.924  68.281  1.00  0.00    -0.050 A  
HETATM   10  N   UNL     1      -6.945   9.184  66.092  1.00  0.00    -0.084 NA 
HETATM   11  C   UNL     1      -6.295   8.988  67.260  1.00  0.00    -0.060 A  
BRANCH   8  12
HETATM   12  O   UNL     1      -6.793  12.055  69.121  1.00  0.00    -0.102 OA 
BRANCH  12  13
HETATM   13  C   UNL     1      -6.565  13.382  68.822  1.00  0.00    -0.102 A  
HETATM   14  C   UNL     1      -6.258  14.214  69.901  1.00  0.00    -0.146 A  
HETATM   15  C   UNL     1      -6.068  15.576  69.686  1.00  0.00    -0.150 A  
HETATM   16  F   UNL     1      -5.787  16.373  70.728  1.00  0.00    -0.122 F  
HETATM   17  C   UNL     1      -6.237  16.134  68.417  1.00  0.00    -0.113 A  
HETATM   18  C   UNL     1      -6.713  13.929  67.542  1.00  0.00    -0.132 A  
HETATM   19  C   UNL     1      -6.542  15.302  67.338  1.00  0.00    -0.120 A  
BRANCH  17  20
HETATM   20  N   UNL     1      -6.113  17.533  68.257  1.00  0.00    -0.164 N  
HETATM   21  H   UNL     1      -5.464  18.056  68.845  1.00  0.00     0.000 HD 
BRANCH  20  22
HETATM   22  C   UNL     1      -6.871  18.199  67.303  1.00  0.00    -0.191 C  
HETATM   23  O   UNL     1      -6.473  18.508  66.183  1.00  0.00    -0.189 OA 
BRANCH  22  24
HETATM   24  N   UNL     1      -8.136  18.479  67.786  1.00  0.00    -0.248 N  
HETATM   25  H   UNL     1      -8.343  19.421  68.117  1.00  0.00     0.000 HD 
BRANCH  24  26
HETATM   26  C   UNL     1      -9.144  17.498  67.832  1.00  0.00    -0.261 A  
HETATM   27  C   UNL     1      -9.644  17.117  69.073  1.00  0.00    -0.189 A  
HETATM   28  C   UNL     1     -10.641  16.145  69.148  1.00  0.00    -0.276 A  
HETATM   29  C   UNL     1     -11.097  15.493  67.995  1.00  0.00    -0.322 A  
HETATM   30 CL   UNL     1     -12.313  14.293  68.235  1.00  0.00    -0.164 Cl 
HETATM   31  C   UNL     1     -10.570  15.824  66.741  1.00  0.00    -0.309 A  
HETATM   32  C   UNL     1      -9.611  16.864  66.674  1.00  0.00    -0.282 A  
HETATM   33  C   UNL     1     -10.926  15.114  65.458  1.00  0.00    -0.365 C  
HETATM   34  F   UNL     1     -11.479  15.954  64.539  1.00  0.00    -0.433 F  
HETATM   35  F   UNL     1      -9.816  14.593  64.853  1.00  0.00    -0.367 F  
HETATM   36  F   UNL     1     -11.790  14.070  65.564  1.00  0.00    -0.325 F  
ENDBRANCH  24  26
ENDBRANCH  22  24
ENDBRANCH  20  22
ENDBRANCH  17  20
ENDBRANCH  12  13
ENDBRANCH   8  12
ENDBRANCH   3   6
TORSDOF 7
ENDMDL
MODEL      293
REMARK 921   NORMALIZED FREE ENERGY PREDICTED BY IDOCK:   -3.90 KCAL/MOL
REMARK 922        TOTAL FREE ENERGY PREDICTED BY IDOCK:   -7.48 KCAL/MOL
REMARK 923 INTER-LIGAND FREE ENERGY PREDICTED BY IDOCK:   -7.13 KCAL/MOL
REMARK 924 INTRA-LIGAND FREE ENERGY PREDICTED BY IDOCK:   -0.35 KCAL/MOL
REMARK 927      BINDING AFFINITY PREDICTED BY RF-SCORE:    0.00 PKD
ROOT
HETATM    1  C   UNL     1     -10.876  18.801  65.787  1.00  0.00    -0.082 C  
HETATM    2  N   UNL     1      -9.578  18.785  66.403  1.00  0.00    -0.335 N  
HETATM    3  C   UNL     1      -9.108  19.876  67.103  1.00  0.00    -0.346 C  
HETATM    4  H   UNL     1      -8.995  17.953  66.322  1.00  0.00     0.000 HD 
HETATM    5  O   UNL     1      -9.764  20.895  67.293  1.00  0.00    -0.458 OA 
ENDROOT
BRANCH   3   6
HETATM    6  C   UNL     1      -7.711  19.743  67.626  1.00  0.00    -0.282 A  
HETATM    7  C   UNL     1      -7.239  18.478  67.949  1.00  0.00    -0.247 A  
HETATM    8  C   UNL     1      -5.928  18.366  68.393  1.00  0.00    -0.185 A  
HETATM    9  C   UNL     1      -5.159  19.514  68.558  1.00  0.00    -0.196 A  
HETATM   10  N   UNL     1      -6.980  20.885  67.754  1.00  0.00    -0.296 NA 
HETATM   11  C   UNL     1      -5.722  20.737  68.225  1.00  0.00    -0.323 A  
BRANCH   8  12
HETATM   12  O   UNL     1      -5.349  17.174  68.763  1.00  0.00    -0.138 OA 
BRANCH  12  13
HETATM   13  C   UNL     1      -6.129  16.042  68.863  1.00  0.00    -0.120 A  
HETATM   14  C   UNL     1      -5.931  15.067  67.884  1.00  0.00    -0.163 A  
HETATM   15  C   UNL     1      -6.718  13.920  67.887  1.00  0.00    -0.159 A  
HETATM   16  F   UNL     1      -6.533  12.993  66.935  1.00  0.00    -0.062 F  
HETATM   17  C   UNL     1      -7.744  13.753  68.820  1.00  0.00    -0.080 A  
HETATM   18  C   UNL     1      -7.139  15.874  69.818  1.00  0.00    -0.038 A  
HETATM   19  C   UNL     1      -7.941  14.727  69.802  1.00  0.00     0.159 A  
BRANCH  17  20
HETATM   20  N   UNL     1      -8.572  12.611  68.739  1.00  0.00    -0.361 N  
HETATM   21  H   UNL     1      -8.213  11.702  69.031  1.00  0.00     0.000 HD 
BRANCH  20  22
HETATM   22  C   UNL     1      -9.873  12.721  68.265  1.00  0.00    -0.224 C  
HETATM   23  O   UNL     1     -10.579  13.719  68.382  1.00  0.00    -0.240 OA 
BRANCH  22  24
HETATM   24  N   UNL     1     -10.274  11.549  67.652  1.00  0.00    -0.182 N  
HETATM   25  H   UNL     1     -10.497  11.560  66.657  1.00  0.00     0.000 HD 
BRANCH  24  26
HETATM   26  C   UNL     1     -10.384  10.340  68.366  1.00  0.00    -0.177 A  
HETATM   27  C   UNL     1     -10.317  10.380  69.755  1.00  0.00    -0.252 A  
HETATM   28  C   UNL     1     -10.419   9.198  70.487  1.00  0.00    -0.289 A  
HETATM   29  C   UNL     1     -10.517   7.959  69.840  1.00  0.00    -0.229 A  
HETATM   30 CL   UNL     1     -10.610   6.575  70.865  1.00  0.00    -0.261 Cl 
HETATM   31  C   UNL     1     -10.533   7.891  68.442  1.00  0.00    -0.207 A  
HETATM   32  C   UNL     1     -10.503   9.106  67.714  1.00  0.00    -0.306 A  
HETATM   33  C   UNL     1     -10.540   6.604  67.656  1.00  0.00    -0.263 C  
HETATM   34  F   UNL     1     -11.639   6.488  66.860  1.00  0.00    -0.411 F  
HETATM   35  F   UNL     1      -9.468   6.532  66.809  1.00  0.00    -0.143 F  
HETATM   36  F   UNL     1     -10.491   5.454  68.378  1.00  0.00    -0.234 F  
ENDBRANCH  24  26
ENDBRANCH  22  24
ENDBRANCH  20  22
ENDBRANCH  17  20
ENDBRANCH  12  13
ENDBRANCH   8  12
ENDBRANCH   3   6
TORSDOF 7
ENDMDL
MODEL      294
REMARK 921   NORMALIZED FREE ENERGY PREDICTED BY IDOCK:   -3.89 KCAL/MOL
REMARK 922        TOTAL FREE ENERGY PREDICTED BY IDOCK:   -7.47 KCAL/MOL
REMARK 923 INTER-LIGAND FREE ENERGY PREDICTED BY IDOCK:   -6.17 KCAL/MOL
REMARK 924 INTRA-LIGAND FREE ENERGY PREDICTED BY IDOCK:   -1.30 KCAL/MOL
REMARK 927      BINDING AFFINITY PREDICTED BY RF-SCORE:    0.00 PKD
ROOT
HETATM    1  C   UNL     1      -7.379   1.806  68.811  1.00  0.00    -0.043 C  
HETATM    2  N   UNL     1      -7.116   2.840  67.849  1.00  0.00    -0.049 N  
HETATM    3  C   UNL     1      -6.991   4.157  68.234  1.00  0.00    -0.051 C  
HETATM    4  H   UNL     1      -7.021   2.595  66.863  1.00  0.00     0.000 HD 
HETATM    5  O   UNL     1      -7.040   4.531  69.401  1.00  0.00    -0.049 OA 
ENDROOT
BRANCH   3   6
HETATM    6  C   UNL     1      -6.793   5.132  67.114  1.00  0.00    -0.060 A  
HETATM    7  C   UNL     1      -7.913   5.674  66.499  1.00  0.00    -0.101 A  
HETATM    8  C   UNL     1      -7.713   6.607  65.490  1.00  0.00    -0.097 A  
HETATM    9  C   UNL     1      -6.417   6.918  65.090  1.00  0.00    -0.043 A  
HETATM   10  N   UNL     1      -5.511   5.430  66.764  1.00  0.00    -0.015 NA 
HETATM   11  C   UNL     1      -5.360   6.313  65.753  1.00  0.00    -0.014 A  
BRANCH   8  12
HETATM   12  O   UNL     1      -8.738   7.202  64.790  1.00  0.00     0.135 OA 
BRANCH  12  13
HETATM   13  C   UNL     1      -9.028   8.532  65.008  1.00  0.00     0.050 A  
HETATM   14  C   UNL     1      -9.030   9.356  63.880  1.00  0.00    -0.166 A  
HETATM   15  C   UNL     1      -9.261  10.720  64.027  1.00  0.00    -0.227 A  
HETATM   16  F   UNL     1      -9.247  11.510  62.942  1.00  0.00    -0.319 F  
HETATM   17  C   UNL     1      -9.433  11.289  65.291  1.00  0.00    -0.221 A  
HETATM   18  C   UNL     1      -9.225   9.089  66.277  1.00  0.00    -0.258 A  
HETATM   19  C   UNL     1      -9.434  10.465  66.419  1.00  0.00    -0.209 A  
BRANCH  17  20
HETATM   20  N   UNL     1      -9.586  12.690  65.402  1.00  0.00    -0.463 N  
HETATM   21  H   UNL     1      -8.819  13.257  65.765  1.00  0.00     0.000 HD 
BRANCH  20  22
HETATM   22  C   UNL     1     -10.774  13.298  65.020  1.00  0.00    -0.333 C  
HETATM   23  O   UNL     1     -10.869  14.178  64.168  1.00  0.00    -0.153 OA 
BRANCH  22  24
HETATM   24  N   UNL     1     -11.841  12.788  65.736  1.00  0.00    -0.411 N  
HETATM   25  H   UNL     1     -12.548  12.238  65.248  1.00  0.00     0.000 HD 
BRANCH  24  26
HETATM   26  C   UNL     1     -11.977  13.007  67.120  1.00  0.00    -0.329 A  
HETATM   27  C   UNL     1     -11.896  14.312  67.596  1.00  0.00    -0.420 A  
HETATM   28  C   UNL     1     -12.024  14.558  68.963  1.00  0.00    -0.334 A  
HETATM   29  C   UNL     1     -12.160  13.502  69.873  1.00  0.00    -0.341 A  
HETATM   30 CL   UNL     1     -12.281  13.947  71.535  1.00  0.00    -0.320 Cl 
HETATM   31  C   UNL     1     -12.190  12.178  69.420  1.00  0.00    -0.135 A  
HETATM   32  C   UNL     1     -12.134  11.949  68.023  1.00  0.00    -0.010 A  
HETATM   33  C   UNL     1     -12.238  10.973  70.326  1.00  0.00    -0.363 C  
HETATM   34  F   UNL     1     -13.346  10.210  70.116  1.00  0.00    -0.241 F  
HETATM   35  F   UNL     1     -11.176  10.140  70.104  1.00  0.00    -0.255 F  
HETATM   36  F   UNL     1     -12.213  11.220  71.663  1.00  0.00    -0.327 F  
ENDBRANCH  24  26
ENDBRANCH  22  24
ENDBRANCH  20  22
ENDBRANCH  17  20
ENDBRANCH  12  13
ENDBRANCH   8  12
ENDBRANCH   3   6
TORSDOF 7
ENDMDL
MODEL      295
REMARK 921   NORMALIZED FREE ENERGY PREDICTED BY IDOCK:   -3.88 KCAL/MOL
REMARK 922        TOTAL FREE ENERGY PREDICTED BY IDOCK:   -7.46 KCAL/MOL
REMARK 923 INTER-LIGAND FREE ENERGY PREDICTED BY IDOCK:   -6.28 KCAL/MOL
REMARK 924 INTRA-LIGAND FREE ENERGY PREDICTED BY IDOCK:   -1.18 KCAL/MOL
REMARK 927      BINDING AFFINITY PREDICTED BY RF-SCORE:    0.00 PKD
ROOT
HETATM    1  C   UNL     1      -5.164  13.615  71.704  1.00  0.00    -0.194 C  
HETATM    2  N   UNL     1      -5.475  12.235  71.454  1.00  0.00    -0.015 N  
HETATM    3  C   UNL     1      -6.180  11.854  70.333  1.00  0.00     0.069 C  
HETATM    4  H   UNL     1      -5.168  11.524  72.118  1.00  0.00     0.000 HD 
HETATM    5  O   UNL     1      -6.541  12.637  69.460  1.00  0.00    -0.103 OA 
ENDROOT
BRANCH   3   6
HETATM    6  C   UNL     1      -6.494  10.393  70.243  1.00  0.00    -0.141 A  
HETATM    7  C   UNL     1      -7.244   9.938  69.168  1.00  0.00    -0.072 A  
HETATM    8  C   UNL     1      -7.492   8.575  69.078  1.00  0.00    -0.089 A  
HETATM    9  C   UNL     1      -7.042   7.727  70.085  1.00  0.00    -0.054 A  
HETATM   10  N   UNL     1      -6.019   9.590  71.235  1.00  0.00    -0.082 NA 
HETATM   11  C   UNL     1      -6.314   8.276  71.130  1.00  0.00    -0.037 A  
BRANCH   8  12
HETATM   12  O   UNL     1      -8.238   8.002  68.074  1.00  0.00    -0.126 OA 
BRANCH  12  13
HETATM   13  C   UNL     1      -8.913   8.809  67.183  1.00  0.00    -0.131 A  
HETATM   14  C   UNL     1      -8.187   9.871  66.639  1.00  0.00    -0.121 A  
HETATM   15  C   UNL     1      -8.817  10.761  65.773  1.00  0.00    -0.188 A  
HETATM   16  F   UNL     1      -8.118  11.787  65.265  1.00  0.00     0.380 F  
HETATM   17  C   UNL     1     -10.178  10.645  65.486  1.00  0.00    -0.262 A  
HETATM   18  C   UNL     1     -10.273   8.669  66.881  1.00  0.00    -0.367 A  
HETATM   19  C   UNL     1     -10.904   9.582  66.028  1.00  0.00     0.678 A  
BRANCH  17  20
HETATM   20  N   UNL     1     -10.796  11.616  64.666  1.00  0.00    -0.307 N  
HETATM   21  H   UNL     1     -10.516  11.708  63.689  1.00  0.00     0.000 HD 
BRANCH  20  22
HETATM   22  C   UNL     1     -11.782  12.445  65.183  1.00  0.00    -0.382 C  
HETATM   23  O   UNL     1     -12.982  12.343  64.940  1.00  0.00    -0.762 OA 
BRANCH  22  24
HETATM   24  N   UNL     1     -11.232  13.412  66.004  1.00  0.00    -0.294 N  
HETATM   25  H   UNL     1     -10.550  14.063  65.615  1.00  0.00     0.000 HD 
BRANCH  24  26
HETATM   26  C   UNL     1     -11.590  13.522  67.361  1.00  0.00    -0.356 A  
HETATM   27  C   UNL     1     -11.670  14.791  67.927  1.00  0.00    -0.367 A  
HETATM   28  C   UNL     1     -12.018  14.928  69.270  1.00  0.00    -0.326 A  
HETATM   29  C   UNL     1     -12.220  13.802  70.078  1.00  0.00    -0.342 A  
HETATM   30 CL   UNL     1     -12.620  14.116  71.726  1.00  0.00    -0.410 Cl 
HETATM   31  C   UNL     1     -12.092  12.515  69.542  1.00  0.00    -0.248 A  
HETATM   32  C   UNL     1     -11.810  12.393  68.160  1.00  0.00    -0.372 A  
HETATM   33  C   UNL     1     -12.195  11.246  70.351  1.00  0.00    -0.365 C  
HETATM   34  F   UNL     1     -13.206  10.439  69.923  1.00  0.00    -0.221 F  
HETATM   35  F   UNL     1     -11.058  10.493  70.244  1.00  0.00    -0.308 F  
HETATM   36  F   UNL     1     -12.390  11.395  71.688  1.00  0.00    -0.360 F  
ENDBRANCH  24  26
ENDBRANCH  22  24
ENDBRANCH  20  22
ENDBRANCH  17  20
ENDBRANCH  12  13
ENDBRANCH   8  12
ENDBRANCH   3   6
TORSDOF 7
ENDMDL
MODEL      296
REMARK 921   NORMALIZED FREE ENERGY PREDICTED BY IDOCK:   -3.86 KCAL/MOL
REMARK 922        TOTAL FREE ENERGY PREDICTED BY IDOCK:   -7.42 KCAL/MOL
REMARK 923 INTER-LIGAND FREE ENERGY PREDICTED BY IDOCK:   -6.37 KCAL/MOL
REMARK 924 INTRA-LIGAND FREE ENERGY PREDICTED BY IDOCK:   -1.05 KCAL/MOL
REMARK 927      BINDING AFFINITY PREDICTED BY RF-SCORE:    0.00 PKD
ROOT
HETATM    1  C   UNL     1     -10.815  13.813  67.892  1.00  0.00    -0.244 C  
HETATM    2  N   UNL     1     -10.290  13.074  66.778  1.00  0.00    -0.252 N  
HETATM    3  C   UNL     1     -10.735  11.801  66.493  1.00  0.00    -0.265 C  
HETATM    4  H   UNL     1      -9.575  13.498  66.187  1.00  0.00     0.000 HD 
HETATM    5  O   UNL     1     -11.627  11.238  67.119  1.00  0.00    -0.513 OA 
ENDROOT
BRANCH   3   6
HETATM    6  C   UNL     1     -10.044  11.126  65.348  1.00  0.00    -0.264 A  
HETATM    7  C   UNL     1      -8.994  10.262  65.622  1.00  0.00    -0.198 A  
HETATM    8  C   UNL     1      -8.390   9.612  64.553  1.00  0.00    -0.169 A  
HETATM    9  C   UNL     1      -8.809   9.891  63.256  1.00  0.00    -0.257 A  
HETATM   10  N   UNL     1     -10.495  11.406  64.094  1.00  0.00    -0.333 NA 
HETATM   11  C   UNL     1      -9.856  10.783  63.079  1.00  0.00    -0.303 A  
BRANCH   8  12
HETATM   12  O   UNL     1      -7.328   8.748  64.689  1.00  0.00    -0.093 OA 
BRANCH  12  13
HETATM   13  C   UNL     1      -7.549   7.465  65.144  1.00  0.00    -0.104 A  
HETATM   14  C   UNL     1      -8.878   7.121  65.401  1.00  0.00     0.080 A  
HETATM   15  C   UNL     1      -9.174   5.862  65.913  1.00  0.00    -0.092 A  
HETATM   16  F   UNL     1     -10.451   5.542  66.172  1.00  0.00    -0.236 F  
HETATM   17  C   UNL     1      -8.160   4.956  66.230  1.00  0.00    -0.107 A  
HETATM   18  C   UNL     1      -6.526   6.555  65.435  1.00  0.00    -0.039 A  
HETATM   19  C   UNL     1      -6.831   5.299  65.971  1.00  0.00    -0.061 A  
BRANCH  17  20
HETATM   20  N   UNL     1      -8.499   3.719  66.823  1.00  0.00    -0.103 N  
HETATM   21  H   UNL     1      -8.493   2.868  66.261  1.00  0.00     0.000 HD 
BRANCH  20  22
HETATM   22  C   UNL     1      -8.841   3.657  68.168  1.00  0.00    -0.116 C  
HETATM   23  O   UNL     1      -9.689   2.904  68.641  1.00  0.00    -0.085 OA 
BRANCH  22  24
HETATM   24  N   UNL     1      -8.105   4.564  68.906  1.00  0.00    -0.077 N  
HETATM   25  H   UNL     1      -7.137   4.346  69.138  1.00  0.00     0.000 HD 
BRANCH  24  26
HETATM   26  C   UNL     1      -8.659   5.783  69.345  1.00  0.00    -0.111 A  
HETATM   27  C   UNL     1      -7.912   6.946  69.189  1.00  0.00    -0.119 A  
HETATM   28  C   UNL     1      -8.434   8.165  69.618  1.00  0.00    -0.126 A  
HETATM   29  C   UNL     1      -9.673   8.227  70.270  1.00  0.00    -0.175 A  
HETATM   30 CL   UNL     1     -10.187   9.795  70.772  1.00  0.00    -0.320 Cl 
HETATM   31  C   UNL     1     -10.417   7.061  70.484  1.00  0.00    -0.227 A  
HETATM   32  C   UNL     1      -9.907   5.841  69.977  1.00  0.00    -0.235 A  
HETATM   33  C   UNL     1     -11.711   7.012  71.257  1.00  0.00    -0.317 C  
HETATM   34  F   UNL     1     -12.750   6.560  70.501  1.00  0.00    -0.329 F  
HETATM   35  F   UNL     1     -11.627   6.148  72.314  1.00  0.00    -0.300 F  
HETATM   36  F   UNL     1     -12.138   8.184  71.798  1.00  0.00    -0.280 F  
ENDBRANCH  24  26
ENDBRANCH  22  24
ENDBRANCH  20  22
ENDBRANCH  17  20
ENDBRANCH  12  13
ENDBRANCH   8  12
ENDBRANCH   3   6
TORSDOF 7
ENDMDL
MODEL      297
REMARK 921   NORMALIZED FREE ENERGY PREDICTED BY IDOCK:   -3.84 KCAL/MOL
REMARK 922        TOTAL FREE ENERGY PREDICTED BY IDOCK:   -7.40 KCAL/MOL
REMARK 923 INTER-LIGAND FREE ENERGY PREDICTED BY IDOCK:   -7.24 KCAL/MOL
REMARK 924 INTRA-LIGAND FREE ENERGY PREDICTED BY IDOCK:   -0.16 KCAL/MOL
REMARK 927      BINDING AFFINITY PREDICTED BY RF-SCORE:    0.00 PKD
ROOT
HETATM    1  C   UNL     1      -7.609  20.576  67.451  1.00  0.00    -0.339 C  
HETATM    2  N   UNL     1      -7.951  19.184  67.542  1.00  0.00    -0.255 N  
HETATM    3  C   UNL     1      -9.124  18.775  68.139  1.00  0.00    -0.307 C  
HETATM    4  H   UNL     1      -7.314  18.485  67.158  1.00  0.00     0.000 HD 
HETATM    5  O   UNL     1      -9.967  19.550  68.579  1.00  0.00    -0.397 OA 
ENDROOT
BRANCH   3   6
HETATM    6  C   UNL     1      -9.310  17.292  68.228  1.00  0.00    -0.272 A  
HETATM    7  C   UNL     1      -8.523  16.474  67.430  1.00  0.00    -0.194 A  
HETATM    8  C   UNL     1      -8.679  15.099  67.553  1.00  0.00    -0.177 A  
HETATM    9  C   UNL     1      -9.648  14.593  68.415  1.00  0.00    -0.217 A  
HETATM   10  N   UNL     1     -10.252  16.831  69.098  1.00  0.00    -0.301 NA 
HETATM   11  C   UNL     1     -10.398  15.490  69.161  1.00  0.00    -0.237 A  
BRANCH   8  12
HETATM   12  O   UNL     1      -7.976  14.183  66.806  1.00  0.00     0.063 OA 
BRANCH  12  13
HETATM   13  C   UNL     1      -8.020  12.848  67.148  1.00  0.00    -0.099 A  
HETATM   14  C   UNL     1      -7.526  12.518  68.412  1.00  0.00    -0.127 A  
HETATM   15  C   UNL     1      -7.487  11.185  68.807  1.00  0.00    -0.118 A  
HETATM   16  F   UNL     1      -6.998  10.872  70.017  1.00  0.00    -0.144 F  
HETATM   17  C   UNL     1      -7.879  10.165  67.938  1.00  0.00    -0.101 A  
HETATM   18  C   UNL     1      -8.438  11.835  66.278  1.00  0.00    -0.022 A  
HETATM   19  C   UNL     1      -8.376  10.494  66.675  1.00  0.00    -0.131 A  
BRANCH  17  20
HETATM   20  N   UNL     1      -7.749   8.819  68.350  1.00  0.00    -0.095 N  
HETATM   21  H   UNL     1      -6.825   8.438  68.556  1.00  0.00     0.000 HD 
BRANCH  20  22
HETATM   22  C   UNL     1      -8.873   8.013  68.477  1.00  0.00    -0.134 C  
HETATM   23  O   UNL     1      -8.860   6.851  68.875  1.00  0.00    -0.130 OA 
BRANCH  22  24
HETATM   24  N   UNL     1     -10.012   8.690  68.083  1.00  0.00    -0.171 N  
HETATM   25  H   UNL     1     -10.218   8.777  67.088  1.00  0.00     0.000 HD 
BRANCH  24  26
HETATM   26  C   UNL     1     -10.893   9.263  69.020  1.00  0.00    -0.111 A  
HETATM   27  C   UNL     1     -11.261  10.595  68.857  1.00  0.00    -0.333 A  
HETATM   28  C   UNL     1     -12.129  11.188  69.772  1.00  0.00    -0.414 A  
HETATM   29  C   UNL     1     -12.582  10.483  70.895  1.00  0.00    -0.398 A  
HETATM   30 CL   UNL     1     -13.631  11.346  71.958  1.00  0.00    -0.287 Cl 
HETATM   31  C   UNL     1     -12.182   9.159  71.105  1.00  0.00    -0.350 A  
HETATM   32  C   UNL     1     -11.359   8.546  70.129  1.00  0.00    -0.072 A  
HETATM   33  C   UNL     1     -12.538   8.350  72.329  1.00  0.00    -0.349 C  
HETATM   34  F   UNL     1     -13.246   7.228  72.020  1.00  0.00    -0.324 F  
HETATM   35  F   UNL     1     -11.418   7.907  72.976  1.00  0.00    -0.430 F  
HETATM   36  F   UNL     1     -13.264   8.987  73.285  1.00  0.00    -0.268 F  
ENDBRANCH  24  26
ENDBRANCH  22  24
ENDBRANCH  20  22
ENDBRANCH  17  20
ENDBRANCH  12  13
ENDBRANCH   8  12
ENDBRANCH   3   6
TORSDOF 7
ENDMDL
MODEL      298
REMARK 921   NORMALIZED FREE ENERGY PREDICTED BY IDOCK:   -3.84 KCAL/MOL
REMARK 922        TOTAL FREE ENERGY PREDICTED BY IDOCK:   -7.40 KCAL/MOL
REMARK 923 INTER-LIGAND FREE ENERGY PREDICTED BY IDOCK:   -6.68 KCAL/MOL
REMARK 924 INTRA-LIGAND FREE ENERGY PREDICTED BY IDOCK:   -0.72 KCAL/MOL
REMARK 927      BINDING AFFINITY PREDICTED BY RF-SCORE:    0.00 PKD
ROOT
HETATM    1  C   UNL     1      -5.696   1.965  68.870  1.00  0.00    -0.022 C  
HETATM    2  N   UNL     1      -6.283   2.838  67.892  1.00  0.00    -0.031 N  
HETATM    3  C   UNL     1      -6.246   4.207  68.044  1.00  0.00    -0.036 C  
HETATM    4  H   UNL     1      -6.736   2.437  67.070  1.00  0.00     0.000 HD 
HETATM    5  O   UNL     1      -5.677   4.771  68.973  1.00  0.00    -0.015 OA 
ENDROOT
BRANCH   3   6
HETATM    6  C   UNL     1      -6.963   4.985  66.985  1.00  0.00    -0.064 A  
HETATM    7  C   UNL     1      -8.072   5.737  67.348  1.00  0.00    -0.102 A  
HETATM    8  C   UNL     1      -8.702   6.486  66.362  1.00  0.00    -0.140 A  
HETATM    9  C   UNL     1      -8.248   6.411  65.049  1.00  0.00    -0.125 A  
HETATM   10  N   UNL     1      -6.479   4.906  65.714  1.00  0.00    -0.039 NA 
HETATM   11  C   UNL     1      -7.142   5.619  64.778  1.00  0.00    -0.060 A  
BRANCH   8  12
HETATM   12  O   UNL     1      -9.820   7.255  66.589  1.00  0.00    -0.208 OA 
BRANCH  12  13
HETATM   13  C   UNL     1      -9.746   8.623  66.435  1.00  0.00    -0.263 A  
HETATM   14  C   UNL     1      -9.907   9.108  65.136  1.00  0.00     0.301 A  
HETATM   15  C   UNL     1      -9.792  10.474  64.894  1.00  0.00    -0.315 A  
HETATM   16  F   UNL     1      -9.933  10.933  63.641  1.00  0.00    -0.282 F  
HETATM   17  C   UNL     1      -9.460  11.362  65.919  1.00  0.00    -0.228 A  
HETATM   18  C   UNL     1      -9.438   9.508  67.475  1.00  0.00    -0.155 A  
HETATM   19  C   UNL     1      -9.302  10.877  67.220  1.00  0.00    -0.168 A  
BRANCH  17  20
HETATM   20  N   UNL     1      -9.275  12.730  65.615  1.00  0.00    -0.419 N  
HETATM   21  H   UNL     1      -8.332  13.116  65.571  1.00  0.00     0.000 HD 
BRANCH  20  22
HETATM   22  C   UNL     1     -10.370  13.549  65.377  1.00  0.00    -0.319 C  
HETATM   23  O   UNL     1     -10.454  14.356  64.454  1.00  0.00    -0.228 OA 
BRANCH  22  24
HETATM   24  N   UNL     1     -11.355  13.344  66.325  1.00  0.00    -0.300 N  
HETATM   25  H   UNL     1     -12.075  12.643  66.149  1.00  0.00     0.000 HD 
BRANCH  24  26
HETATM   26  C   UNL     1     -11.390  14.077  67.526  1.00  0.00    -0.321 A  
HETATM   27  C   UNL     1     -12.035  13.520  68.626  1.00  0.00    -0.378 A  
HETATM   28  C   UNL     1     -12.088  14.226  69.827  1.00  0.00    -0.401 A  
HETATM   29  C   UNL     1     -11.562  15.522  69.922  1.00  0.00    -0.335 A  
HETATM   30 CL   UNL     1     -11.719  16.290  71.459  1.00  0.00    -0.517 Cl 
HETATM   31  C   UNL     1     -10.957  16.122  68.813  1.00  0.00    -0.330 A  
HETATM   32  C   UNL     1     -10.845  15.364  67.622  1.00  0.00    -0.304 A  
HETATM   33  C   UNL     1     -10.449  17.542  68.789  1.00  0.00    -0.318 C  
HETATM   34  F   UNL     1      -9.113  17.611  68.530  1.00  0.00    -0.255 F  
HETATM   35  F   UNL     1     -11.049  18.269  67.799  1.00  0.00    -0.389 F  
HETATM   36  F   UNL     1     -10.638  18.271  69.921  1.00  0.00     0.089 F  
ENDBRANCH  24  26
ENDBRANCH  22  24
ENDBRANCH  20  22
ENDBRANCH  17  20
ENDBRANCH  12  13
ENDBRANCH   8  12
ENDBRANCH   3   6
TORSDOF 7
ENDMDL
MODEL      299
REMARK 921   NORMALIZED FREE ENERGY PREDICTED BY IDOCK:   -3.83 KCAL/MOL
REMARK 922        TOTAL FREE ENERGY PREDICTED BY IDOCK:   -7.38 KCAL/MOL
REMARK 923 INTER-LIGAND FREE ENERGY PREDICTED BY IDOCK:   -6.78 KCAL/MOL
REMARK 924 INTRA-LIGAND FREE ENERGY PREDICTED BY IDOCK:   -0.60 KCAL/MOL
REMARK 927      BINDING AFFINITY PREDICTED BY RF-SCORE:    0.00 PKD
ROOT
HETATM    1  C   UNL     1      -8.271  15.463  69.349  1.00  0.00    -0.250 C  
HETATM    2  N   UNL     1      -8.164  14.140  68.798  1.00  0.00    -0.260 N  
HETATM    3  C   UNL     1      -7.211  13.838  67.849  1.00  0.00    -0.154 C  
HETATM    4  H   UNL     1      -8.804  13.411  69.114  1.00  0.00     0.000 HD 
HETATM    5  O   UNL     1      -6.371  14.639  67.453  1.00  0.00    -0.323 OA 
ENDROOT
BRANCH   3   6
HETATM    6  C   UNL     1      -7.267  12.442  67.312  1.00  0.00    -0.125 A  
HETATM    7  C   UNL     1      -8.508  11.851  67.124  1.00  0.00    -0.173 A  
HETATM    8  C   UNL     1      -8.545  10.571  66.587  1.00  0.00    -0.131 A  
HETATM    9  C   UNL     1      -7.353   9.906  66.316  1.00  0.00    -0.102 A  
HETATM   10  N   UNL     1      -6.081  11.830  67.037  1.00  0.00    -0.143 NA 
HETATM   11  C   UNL     1      -6.160  10.571  66.552  1.00  0.00    -0.079 A  
BRANCH   8  12
HETATM   12  O   UNL     1      -9.709   9.869  66.372  1.00  0.00    -0.186 OA 
BRANCH  12  13
HETATM   13  C   UNL     1     -10.152   8.978  67.326  1.00  0.00    -0.234 A  
HETATM   14  C   UNL     1     -10.223   9.460  68.635  1.00  0.00    -0.222 A  
HETATM   15  C   UNL     1     -10.611   8.604  69.661  1.00  0.00    -0.218 A  
HETATM   16  F   UNL     1     -10.663   9.068  70.919  1.00  0.00    -0.237 F  
HETATM   17  C   UNL     1     -10.872   7.255  69.414  1.00  0.00    -0.190 A  
HETATM   18  C   UNL     1     -10.436   7.633  67.063  1.00  0.00    -0.419 A  
HETATM   19  C   UNL     1     -10.803   6.773  68.104  1.00  0.00    -0.296 A  
BRANCH  17  20
HETATM   20  N   UNL     1     -11.185   6.402  70.497  1.00  0.00    -0.326 N  
HETATM   21  H   UNL     1     -10.687   5.518  70.608  1.00  0.00     0.000 HD 
BRANCH  20  22
HETATM   22  C   UNL     1     -12.166   6.762  71.412  1.00  0.00    -0.363 C  
HETATM   23  O   UNL     1     -13.310   7.096  71.116  1.00  0.00    -0.331 OA 
BRANCH  22  24
HETATM   24  N   UNL     1     -11.680   6.703  72.704  1.00  0.00    -0.486 N  
HETATM   25  H   UNL     1     -11.988   7.399  73.382  1.00  0.00     0.000 HD 
BRANCH  24  26
HETATM   26  C   UNL     1     -10.769   5.708  73.108  1.00  0.00    -0.267 A  
HETATM   27  C   UNL     1     -11.271   4.481  73.530  1.00  0.00    -0.388 A  
HETATM   28  C   UNL     1     -10.392   3.478  73.939  1.00  0.00    -0.236 A  
HETATM   29  C   UNL     1      -9.013   3.713  73.999  1.00  0.00    -0.087 A  
HETATM   30 CL   UNL     1      -8.044   2.396  74.548  1.00  0.00    -0.057 Cl 
HETATM   31  C   UNL     1      -8.491   4.958  73.630  1.00  0.00    -0.105 A  
HETATM   32  C   UNL     1      -9.389   5.941  73.147  1.00  0.00    -0.139 A  
HETATM   33  C   UNL     1      -7.036   5.337  73.751  1.00  0.00    -0.081 C  
HETATM   34  F   UNL     1      -6.484   5.664  72.549  1.00  0.00    -0.052 F  
HETATM   35  F   UNL     1      -6.873   6.444  74.538  1.00  0.00    -0.085 F  
HETATM   36  F   UNL     1      -6.210   4.402  74.289  1.00  0.00    -0.034 F  
ENDBRANCH  24  26
ENDBRANCH  22  24
ENDBRANCH  20  22
ENDBRANCH  17  20
ENDBRANCH  12  13
ENDBRANCH   8  12
ENDBRANCH   3   6
TORSDOF 7
ENDMDL
MODEL      300
REMARK 921   NORMALIZED FREE ENERGY PREDICTED BY IDOCK:   -3.79 KCAL/MOL
REMARK 922        TOTAL FREE ENERGY PREDICTED BY IDOCK:   -7.33 KCAL/MOL
REMARK 923 INTER-LIGAND FREE ENERGY PREDICTED BY IDOCK:   -6.50 KCAL/MOL
REMARK 924 INTRA-LIGAND FREE ENERGY PREDICTED BY IDOCK:   -0.84 KCAL/MOL
REMARK 927      BINDING AFFINITY PREDICTED BY RF-SCORE:    0.00 PKD
ROOT
HETATM    1  C   UNL     1     -13.338   8.123  71.896  1.00  0.00    -0.324 C  
HETATM    2  N   UNL     1     -12.405   7.288  71.191  1.00  0.00    -0.408 N  
HETATM    3  C   UNL     1     -11.661   6.335  71.853  1.00  0.00    -0.316 C  
HETATM    4  H   UNL     1     -12.292   7.402  70.184  1.00  0.00     0.000 HD 
HETATM    5  O   UNL     1     -11.774   6.097  73.051  1.00  0.00    -0.050 OA 
ENDROOT
BRANCH   3   6
HETATM    6  C   UNL     1     -10.677   5.592  71.003  1.00  0.00    -0.205 A  
HETATM    7  C   UNL     1     -10.108   6.246  69.919  1.00  0.00    -0.216 A  
HETATM    8  C   UNL     1      -9.167   5.557  69.165  1.00  0.00    -0.116 A  
HETATM    9  C   UNL     1      -8.875   4.232  69.476  1.00  0.00    -0.138 A  
HETATM   10  N   UNL     1     -10.399   4.305  71.349  1.00  0.00    -0.042 NA 
HETATM   11  C   UNL     1      -9.507   3.657  70.568  1.00  0.00    -0.185 A  
BRANCH   8  12
HETATM   12  O   UNL     1      -8.546   6.085  68.056  1.00  0.00    -0.115 OA 
BRANCH  12  13
HETATM   13  C   UNL     1      -8.246   7.430  68.021  1.00  0.00    -0.124 A  
HETATM   14  C   UNL     1      -7.136   7.835  68.764  1.00  0.00    -0.076 A  
HETATM   15  C   UNL     1      -6.802   9.185  68.820  1.00  0.00    -0.061 A  
HETATM   16  F   UNL     1      -5.742   9.570  69.548  1.00  0.00    -0.034 F  
HETATM   17  C   UNL     1      -7.595  10.149  68.195  1.00  0.00    -0.087 A  
HETATM   18  C   UNL     1      -9.034   8.387  67.369  1.00  0.00    -0.143 A  
HETATM   19  C   UNL     1      -8.705   9.744  67.449  1.00  0.00    -0.133 A  
BRANCH  17  20
HETATM   20  N   UNL     1      -7.266  11.516  68.344  1.00  0.00    -0.083 N  
HETATM   21  H   UNL     1      -7.274  11.942  69.270  1.00  0.00     0.000 HD 
BRANCH  20  22
HETATM   22  C   UNL     1      -6.931  12.281  67.234  1.00  0.00    -0.142 C  
HETATM   23  O   UNL     1      -5.795  12.402  66.784  1.00  0.00    -0.277 OA 
BRANCH  22  24
HETATM   24  N   UNL     1      -8.049  12.899  66.706  1.00  0.00    -0.400 N  
HETATM   25  H   UNL     1      -8.251  12.794  65.712  1.00  0.00     0.000 HD 
BRANCH  24  26
HETATM   26  C   UNL     1      -8.915  13.670  67.505  1.00  0.00    -0.209 A  
HETATM   27  C   UNL     1      -9.999  13.040  68.108  1.00  0.00    -0.231 A  
HETATM   28  C   UNL     1     -10.875  13.780  68.902  1.00  0.00    -0.268 A  
HETATM   29  C   UNL     1     -10.719  15.166  69.044  1.00  0.00    -0.239 A  
HETATM   30 CL   UNL     1     -11.887  15.961  70.033  1.00  0.00    -0.340 Cl 
HETATM   31  C   UNL     1      -9.665  15.827  68.403  1.00  0.00    -0.203 A  
HETATM   32  C   UNL     1      -8.742  15.051  67.661  1.00  0.00    -0.182 A  
HETATM   33  C   UNL     1      -9.470  17.323  68.418  1.00  0.00    -0.283 C  
HETATM   34  F   UNL     1      -8.280  17.685  68.972  1.00  0.00    -0.260 F  
HETATM   35  F   UNL     1      -9.451  17.835  67.150  1.00  0.00    -0.249 F  
HETATM   36  F   UNL     1     -10.414  18.050  69.073  1.00  0.00    -0.358 F  
ENDBRANCH  24  26
ENDBRANCH  22  24
ENDBRANCH  20  22
ENDBRANCH  17  20
ENDBRANCH  12  13
ENDBRANCH   8  12
ENDBRANCH   3   6
TORSDOF 7
ENDMDL
MODEL      301
REMARK 921   NORMALIZED FREE ENERGY PREDICTED BY IDOCK:   -3.75 KCAL/MOL
REMARK 922        TOTAL FREE ENERGY PREDICTED BY IDOCK:   -7.27 KCAL/MOL
REMARK 923 INTER-LIGAND FREE ENERGY PREDICTED BY IDOCK:   -6.73 KCAL/MOL
REMARK 924 INTRA-LIGAND FREE ENERGY PREDICTED BY IDOCK:   -0.54 KCAL/MOL
REMARK 927      BINDING AFFINITY PREDICTED BY RF-SCORE:    0.00 PKD
ROOT
HETATM    1  C   UNL     1      -7.080  18.411  69.160  1.00  0.00    -0.200 C  
HETATM    2  N   UNL     1      -8.182  17.497  69.278  1.00  0.00     0.089 N  
HETATM    3  C   UNL     1      -9.083  17.329  68.248  1.00  0.00    -0.262 C  
HETATM    4  H   UNL     1      -8.300  16.962  70.138  1.00  0.00     0.000 HD 
HETATM    5  O   UNL     1      -8.986  17.892  67.163  1.00  0.00    -0.243 OA 
ENDROOT
BRANCH   3   6
HETATM    6  C   UNL     1     -10.220  16.400  68.542  1.00  0.00    -0.257 A  
HETATM    7  C   UNL     1     -10.537  15.422  67.611  1.00  0.00    -0.280 A  
HETATM    8  C   UNL     1     -11.568  14.542  67.916  1.00  0.00    -0.344 A  
HETATM    9  C   UNL     1     -12.281  14.706  69.100  1.00  0.00    -0.223 A  
HETATM   10  N   UNL     1     -10.882  16.575  69.720  1.00  0.00    -0.336 NA 
HETATM   11  C   UNL     1     -11.902  15.723  69.962  1.00  0.00    -0.354 A  
BRANCH   8  12
HETATM   12  O   UNL     1     -11.992  13.543  67.070  1.00  0.00    -0.386 OA 
BRANCH  12  13
HETATM   13  C   UNL     1     -11.241  12.394  66.945  1.00  0.00    -0.305 A  
HETATM   14  C   UNL     1     -11.389  11.446  67.959  1.00  0.00    -0.372 A  
HETATM   15  C   UNL     1     -10.624  10.283  67.930  1.00  0.00    -0.239 A  
HETATM   16  F   UNL     1     -10.760   9.382  68.915  1.00  0.00    -0.227 F  
HETATM   17  C   UNL     1      -9.667  10.076  66.935  1.00  0.00    -0.189 A  
HETATM   18  C   UNL     1     -10.301  12.184  65.929  1.00  0.00    -0.286 A  
HETATM   19  C   UNL     1      -9.519  11.024  65.919  1.00  0.00    -0.244 A  
BRANCH  17  20
HETATM   20  N   UNL     1      -8.855   8.920  66.988  1.00  0.00    -0.125 N  
HETATM   21  H   UNL     1      -8.177   8.809  67.742  1.00  0.00     0.000 HD 
BRANCH  20  22
HETATM   22  C   UNL     1      -8.976   7.935  66.017  1.00  0.00    -0.154 C  
HETATM   23  O   UNL     1      -8.438   7.969  64.913  1.00  0.00    -0.136 OA 
BRANCH  22  24
HETATM   24  N   UNL     1      -9.795   6.910  66.454  1.00  0.00    -0.394 N  
HETATM   25  H   UNL     1     -10.676   6.739  65.971  1.00  0.00     0.000 HD 
BRANCH  24  26
HETATM   26  C   UNL     1      -9.443   6.098  67.549  1.00  0.00    -0.112 A  
HETATM   27  C   UNL     1      -9.087   6.714  68.745  1.00  0.00    -0.131 A  
HETATM   28  C   UNL     1      -8.731   5.934  69.845  1.00  0.00    -0.129 A  
HETATM   29  C   UNL     1      -8.658   4.538  69.742  1.00  0.00    -0.069 A  
HETATM   30 CL   UNL     1      -8.179   3.699  71.171  1.00  0.00    -0.069 Cl 
HETATM   31  C   UNL     1      -8.961   3.902  68.533  1.00  0.00    -0.167 A  
HETATM   32  C   UNL     1      -9.392   4.703  67.447  1.00  0.00    -0.162 A  
HETATM   33  C   UNL     1      -8.820   2.419  68.297  1.00  0.00    -0.113 C  
HETATM   34  F   UNL     1     -10.003   1.833  67.961  1.00  0.00    -0.193 F  
HETATM   35  F   UNL     1      -7.976   2.158  67.254  1.00  0.00    -0.063 F  
HETATM   36  F   UNL     1      -8.332   1.685  69.332  1.00  0.00    -0.054 F  
ENDBRANCH  24  26
ENDBRANCH  22  24
ENDBRANCH  20  22
ENDBRANCH  17  20
ENDBRANCH  12  13
ENDBRANCH   8  12
ENDBRANCH   3   6
TORSDOF 7
ENDMDL
MODEL      302
REMARK 921   NORMALIZED FREE ENERGY PREDICTED BY IDOCK:   -3.74 KCAL/MOL
REMARK 922        TOTAL FREE ENERGY PREDICTED BY IDOCK:   -7.26 KCAL/MOL
REMARK 923 INTER-LIGAND FREE ENERGY PREDICTED BY IDOCK:   -6.86 KCAL/MOL
REMARK 924 INTRA-LIGAND FREE ENERGY PREDICTED BY IDOCK:   -0.40 KCAL/MOL
REMARK 927      BINDING AFFINITY PREDICTED BY RF-SCORE:    0.00 PKD
ROOT
HETATM    1  C   UNL     1     -13.995   8.643  71.844  1.00  0.00    -0.442 C  
HETATM    2  N   UNL     1     -12.895   8.386  70.955  1.00  0.00    -0.488 N  
HETATM    3  C   UNL     1     -12.064   7.302  71.144  1.00  0.00    -0.340 C  
HETATM    4  H   UNL     1     -12.726   9.015  70.170  1.00  0.00     0.000 HD 
HETATM    5  O   UNL     1     -12.226   6.469  72.029  1.00  0.00    -0.338 OA 
ENDROOT
BRANCH   3   6
HETATM    6  C   UNL     1     -10.918   7.204  70.185  1.00  0.00    -0.267 A  
HETATM    7  C   UNL     1      -9.661   7.613  70.607  1.00  0.00    -0.163 A  
HETATM    8  C   UNL     1      -8.601   7.477  69.720  1.00  0.00    -0.140 A  
HETATM    9  C   UNL     1      -8.838   7.002  68.434  1.00  0.00    -0.123 A  
HETATM   10  N   UNL     1     -11.183   6.714  68.942  1.00  0.00    -0.238 NA 
HETATM   11  C   UNL     1     -10.132   6.633  68.097  1.00  0.00    -0.158 A  
BRANCH   8  12
HETATM   12  O   UNL     1      -7.312   7.864  70.009  1.00  0.00    -0.068 OA 
BRANCH  12  13
HETATM   13  C   UNL     1      -6.871   9.109  69.615  1.00  0.00    -0.054 A  
HETATM   14  C   UNL     1      -6.327   9.917  70.615  1.00  0.00    -0.104 A  
HETATM   15  C   UNL     1      -5.909  11.208  70.304  1.00  0.00    -0.137 A  
HETATM   16  F   UNL     1      -5.401  11.985  71.272  1.00  0.00    -0.138 F  
HETATM   17  C   UNL     1      -6.079  11.729  69.020  1.00  0.00    -0.066 A  
HETATM   18  C   UNL     1      -7.023   9.614  68.318  1.00  0.00    -0.073 A  
HETATM   19  C   UNL     1      -6.621  10.921  68.018  1.00  0.00    -0.062 A  
BRANCH  17  20
HETATM   20  N   UNL     1      -5.715  13.072  68.767  1.00  0.00    -0.070 N  
HETATM   21  H   UNL     1      -4.732  13.316  68.642  1.00  0.00     0.000 HD 
BRANCH  20  22
HETATM   22  C   UNL     1      -6.688  14.059  68.687  1.00  0.00    -0.096 C  
HETATM   23  O   UNL     1      -7.516  14.298  69.562  1.00  0.00    -0.044 OA 
BRANCH  22  24
HETATM   24  N   UNL     1      -6.609  14.733  67.483  1.00  0.00    -0.154 N  
HETATM   25  H   UNL     1      -6.159  14.278  66.688  1.00  0.00     0.000 HD 
BRANCH  24  26
HETATM   26  C   UNL     1      -7.132  16.030  67.325  1.00  0.00    -0.203 A  
HETATM   27  C   UNL     1      -6.292  17.033  66.852  1.00  0.00    -0.242 A  
HETATM   28  C   UNL     1      -6.783  18.327  66.689  1.00  0.00    -0.227 A  
HETATM   29  C   UNL     1      -8.094  18.650  67.064  1.00  0.00    -0.252 A  
HETATM   30 CL   UNL     1      -8.563  20.294  66.835  1.00  0.00    -0.383 Cl 
HETATM   31  C   UNL     1      -8.940  17.669  67.593  1.00  0.00    -0.240 A  
HETATM   32  C   UNL     1      -8.450  16.343  67.682  1.00  0.00    -0.178 A  
HETATM   33  C   UNL     1     -10.330  17.939  68.112  1.00  0.00    -0.389 C  
HETATM   34  F   UNL     1     -11.281  17.235  67.437  1.00  0.00    -0.189 F  
HETATM   35  F   UNL     1     -10.456  17.557  69.420  1.00  0.00    -0.344 F  
HETATM   36  F   UNL     1     -10.746  19.232  68.085  1.00  0.00    -0.448 F  
ENDBRANCH  24  26
ENDBRANCH  22  24
ENDBRANCH  20  22
ENDBRANCH  17  20
ENDBRANCH  12  13
ENDBRANCH   8  12
ENDBRANCH   3   6
TORSDOF 7
ENDMDL
MODEL      303
REMARK 921   NORMALIZED FREE ENERGY PREDICTED BY IDOCK:   -3.74 KCAL/MOL
REMARK 922        TOTAL FREE ENERGY PREDICTED BY IDOCK:   -7.25 KCAL/MOL
REMARK 923 INTER-LIGAND FREE ENERGY PREDICTED BY IDOCK:   -6.27 KCAL/MOL
REMARK 924 INTRA-LIGAND FREE ENERGY PREDICTED BY IDOCK:   -0.99 KCAL/MOL
REMARK 927      BINDING AFFINITY PREDICTED BY RF-SCORE:    0.00 PKD
ROOT
HETATM    1  C   UNL     1      -7.366   3.155  74.059  1.00  0.00    -0.048 C  
HETATM    2  N   UNL     1      -8.226   4.087  73.381  1.00  0.00    -0.089 N  
HETATM    3  C   UNL     1      -7.936   5.434  73.355  1.00  0.00    -0.111 C  
HETATM    4  H   UNL     1      -9.064   3.745  72.912  1.00  0.00     0.000 HD 
HETATM    5  O   UNL     1      -6.925   5.921  73.849  1.00  0.00    -0.080 OA 
ENDROOT
BRANCH   3   6
HETATM    6  C   UNL     1      -8.960   6.292  72.677  1.00  0.00    -0.129 A  
HETATM    7  C   UNL     1      -8.821   6.546  71.320  1.00  0.00    -0.137 A  
HETATM    8  C   UNL     1      -9.800   7.309  70.697  1.00  0.00    -0.179 A  
HETATM    9  C   UNL     1     -10.841   7.839  71.453  1.00  0.00    -0.257 A  
HETATM   10  N   UNL     1      -9.976   6.776  73.443  1.00  0.00    -0.198 NA 
HETATM   11  C   UNL     1     -10.887   7.545  72.807  1.00  0.00    -0.346 A  
BRANCH   8  12
HETATM   12  O   UNL     1      -9.767   7.648  69.364  1.00  0.00    -0.163 OA 
BRANCH  12  13
HETATM   13  C   UNL     1      -9.764   8.978  69.000  1.00  0.00    -0.167 A  
HETATM   14  C   UNL     1      -8.700   9.745  69.478  1.00  0.00    -0.193 A  
HETATM   15  C   UNL     1      -8.656  11.108  69.197  1.00  0.00     0.057 A  
HETATM   16  F   UNL     1      -7.638  11.843  69.671  1.00  0.00     0.110 F  
HETATM   17  C   UNL     1      -9.689  11.732  68.496  1.00  0.00    -0.178 A  
HETATM   18  C   UNL     1     -10.793   9.589  68.274  1.00  0.00    -0.194 A  
HETATM   19  C   UNL     1     -10.752  10.964  68.016  1.00  0.00    -0.263 A  
BRANCH  17  20
HETATM   20  N   UNL     1      -9.644  13.132  68.302  1.00  0.00    -0.225 N  
HETATM   21  H   UNL     1     -10.194  13.745  68.903  1.00  0.00     0.000 HD 
BRANCH  20  22
HETATM   22  C   UNL     1      -8.856  13.675  67.296  1.00  0.00    -0.224 C  
HETATM   23  O   UNL     1      -8.955  13.400  66.103  1.00  0.00     0.027 OA 
BRANCH  22  24
HETATM   24  N   UNL     1      -7.933  14.561  67.819  1.00  0.00    -0.144 N  
HETATM   25  H   UNL     1      -7.297  14.243  68.549  1.00  0.00     0.000 HD 
BRANCH  24  26
HETATM   26  C   UNL     1      -7.849  15.893  67.368  1.00  0.00    -0.168 A  
HETATM   27  C   UNL     1      -6.623  16.363  66.910  1.00  0.00    -0.170 A  
HETATM   28  C   UNL     1      -6.511  17.679  66.462  1.00  0.00    -0.257 A  
HETATM   29  C   UNL     1      -7.600  18.557  66.533  1.00  0.00    -0.246 A  
HETATM   30 CL   UNL     1      -7.315  20.162  65.969  1.00  0.00    -0.312 Cl 
HETATM   31  C   UNL     1      -8.828  18.119  67.040  1.00  0.00    -0.265 A  
HETATM   32  C   UNL     1      -8.947  16.761  67.422  1.00  0.00    -0.211 A  
HETATM   33  C   UNL     1     -10.027  19.012  67.245  1.00  0.00    -0.344 C  
HETATM   34  F   UNL     1     -11.107  18.604  66.521  1.00  0.00    -0.271 F  
HETATM   35  F   UNL     1     -10.439  19.002  68.549  1.00  0.00    -0.409 F  
HETATM   36  F   UNL     1      -9.861  20.326  66.941  1.00  0.00    -0.486 F  
ENDBRANCH  24  26
ENDBRANCH  22  24
ENDBRANCH  20  22
ENDBRANCH  17  20
ENDBRANCH  12  13
ENDBRANCH   8  12
ENDBRANCH   3   6
TORSDOF 7
ENDMDL
MODEL      304
REMARK 921   NORMALIZED FREE ENERGY PREDICTED BY IDOCK:   -3.72 KCAL/MOL
REMARK 922        TOTAL FREE ENERGY PREDICTED BY IDOCK:   -7.23 KCAL/MOL
REMARK 923 INTER-LIGAND FREE ENERGY PREDICTED BY IDOCK:   -7.41 KCAL/MOL
REMARK 924 INTRA-LIGAND FREE ENERGY PREDICTED BY IDOCK:    0.18 KCAL/MOL
REMARK 927      BINDING AFFINITY PREDICTED BY RF-SCORE:    0.00 PKD
ROOT
HETATM    1  C   UNL     1      -5.126  18.446  65.079  1.00  0.00    -0.155 C  
HETATM    2  N   UNL     1      -6.371  18.496  65.796  1.00  0.00    -0.233 N  
HETATM    3  C   UNL     1      -7.206  19.588  65.699  1.00  0.00    -0.262 C  
HETATM    4  H   UNL     1      -6.641  17.709  66.387  1.00  0.00     0.000 HD 
HETATM    5  O   UNL     1      -6.983  20.551  64.973  1.00  0.00    -0.263 OA 
ENDROOT
BRANCH   3   6
HETATM    6  C   UNL     1      -8.430  19.531  66.560  1.00  0.00    -0.342 A  
HETATM    7  C   UNL     1      -9.006  18.294  66.817  1.00  0.00    -0.289 A  
HETATM    8  C   UNL     1     -10.116  18.254  67.651  1.00  0.00    -0.356 A  
HETATM    9  C   UNL     1     -10.647  19.441  68.144  1.00  0.00    -0.391 A  
HETATM   10  N   UNL     1      -8.910  20.710  67.044  1.00  0.00    -0.235 NA 
HETATM   11  C   UNL     1     -10.013  20.631  67.819  1.00  0.00    -0.186 A  
BRANCH   8  12
HETATM   12  O   UNL     1     -10.789  17.096  67.966  1.00  0.00    -0.378 OA 
BRANCH  12  13
HETATM   13  C   UNL     1     -10.294  15.883  67.536  1.00  0.00    -0.283 A  
HETATM   14  C   UNL     1     -10.568  15.540  66.210  1.00  0.00    -0.310 A  
HETATM   15  C   UNL     1     -10.148  14.307  65.719  1.00  0.00    -0.335 A  
HETATM   16  F   UNL     1     -10.427  13.977  64.449  1.00  0.00    -0.431 F  
HETATM   17  C   UNL     1      -9.509  13.382  66.547  1.00  0.00    -0.245 A  
HETATM   18  C   UNL     1      -9.632  14.973  68.367  1.00  0.00    -0.212 A  
HETATM   19  C   UNL     1      -9.232  13.726  67.872  1.00  0.00    -0.200 A  
BRANCH  17  20
HETATM   20  N   UNL     1      -9.170  12.111  66.030  1.00  0.00    -0.392 N  
HETATM   21  H   UNL     1      -9.104  11.975  65.021  1.00  0.00     0.000 HD 
BRANCH  20  22
HETATM   22  C   UNL     1      -8.927  11.048  66.888  1.00  0.00    -0.157 C  
HETATM   23  O   UNL     1      -8.825  11.142  68.109  1.00  0.00    -0.136 OA 
BRANCH  22  24
HETATM   24  N   UNL     1      -8.805   9.864  66.185  1.00  0.00    -0.141 N  
HETATM   25  H   UNL     1      -8.615   9.899  65.184  1.00  0.00     0.000 HD 
BRANCH  24  26
HETATM   26  C   UNL     1      -8.936   8.612  66.815  1.00  0.00    -0.141 A  
HETATM   27  C   UNL     1     -10.110   7.891  66.622  1.00  0.00    -0.310 A  
HETATM   28  C   UNL     1     -10.268   6.649  67.237  1.00  0.00    -0.256 A  
HETATM   29  C   UNL     1      -9.289   6.148  68.105  1.00  0.00    -0.115 A  
HETATM   30 CL   UNL     1      -9.625   4.614  68.818  1.00  0.00    -0.217 Cl 
HETATM   31  C   UNL     1      -8.124   6.882  68.356  1.00  0.00    -0.120 A  
HETATM   32  C   UNL     1      -7.946   8.107  67.667  1.00  0.00    -0.122 A  
HETATM   33  C   UNL     1      -7.061   6.473  69.345  1.00  0.00    -0.077 C  
HETATM   34  F   UNL     1      -5.846   6.295  68.756  1.00  0.00    -0.016 F  
HETATM   35  F   UNL     1      -6.867   7.438  70.295  1.00  0.00    -0.047 F  
HETATM   36  F   UNL     1      -7.295   5.334  70.048  1.00  0.00    -0.057 F  
ENDBRANCH  24  26
ENDBRANCH  22  24
ENDBRANCH  20  22
ENDBRANCH  17  20
ENDBRANCH  12  13
ENDBRANCH   8  12
ENDBRANCH   3   6
TORSDOF 7
ENDMDL
MODEL      305
REMARK 921   NORMALIZED FREE ENERGY PREDICTED BY IDOCK:   -3.72 KCAL/MOL
REMARK 922        TOTAL FREE ENERGY PREDICTED BY IDOCK:   -7.22 KCAL/MOL
REMARK 923 INTER-LIGAND FREE ENERGY PREDICTED BY IDOCK:   -6.60 KCAL/MOL
REMARK 924 INTRA-LIGAND FREE ENERGY PREDICTED BY IDOCK:   -0.63 KCAL/MOL
REMARK 927      BINDING AFFINITY PREDICTED BY RF-SCORE:    0.00 PKD
ROOT
HETATM    1  C   UNL     1     -12.774  14.700  70.266  1.00  0.00    -0.273 C  
HETATM    2  N   UNL     1     -12.574  14.502  68.857  1.00  0.00    -0.462 N  
HETATM    3  C   UNL     1     -12.066  13.317  68.368  1.00  0.00    -0.209 C  
HETATM    4  H   UNL     1     -12.812  15.251  68.207  1.00  0.00     0.000 HD 
HETATM    5  O   UNL     1     -11.804  12.349  69.074  1.00  0.00    -0.302 OA 
ENDROOT
BRANCH   3   6
HETATM    6  C   UNL     1     -11.842  13.283  66.888  1.00  0.00    -0.392 A  
HETATM    7  C   UNL     1     -10.706  12.651  66.402  1.00  0.00    -0.278 A  
HETATM    8  C   UNL     1     -10.534  12.592  65.025  1.00  0.00    -0.308 A  
HETATM    9  C   UNL     1     -11.457  13.214  64.190  1.00  0.00    -0.449 A  
HETATM   10  N   UNL     1     -12.778  13.883  66.100  1.00  0.00    -0.385 NA 
HETATM   11  C   UNL     1     -12.553  13.836  64.769  1.00  0.00    -0.290 A  
BRANCH   8  12
HETATM   12  O   UNL     1      -9.443  12.013  64.419  1.00  0.00    -0.024 OA 
BRANCH  12  13
HETATM   13  C   UNL     1      -9.198  10.668  64.601  1.00  0.00    -0.227 A  
HETATM   14  C   UNL     1      -9.964  10.028  65.577  1.00  0.00    -0.367 A  
HETATM   15  C   UNL     1      -9.737   8.683  65.855  1.00  0.00    -0.084 A  
HETATM   16  F   UNL     1     -10.467   8.077  66.804  1.00  0.00    -0.353 F  
HETATM   17  C   UNL     1      -8.715   7.978  65.216  1.00  0.00    -0.029 A  
HETATM   18  C   UNL     1      -8.187   9.964  63.937  1.00  0.00    -0.156 A  
HETATM   19  C   UNL     1      -7.950   8.618  64.238  1.00  0.00    -0.148 A  
BRANCH  17  20
HETATM   20  N   UNL     1      -8.466   6.637  65.586  1.00  0.00    -0.150 N  
HETATM   21  H   UNL     1      -9.143   5.911  65.350  1.00  0.00     0.000 HD 
BRANCH  20  22
HETATM   22  C   UNL     1      -7.304   6.303  66.267  1.00  0.00    -0.081 C  
HETATM   23  O   UNL     1      -6.613   5.314  66.032  1.00  0.00    -0.046 OA 
BRANCH  22  24
HETATM   24  N   UNL     1      -7.030   7.227  67.257  1.00  0.00    -0.076 N  
HETATM   25  H   UNL     1      -6.355   7.969  67.071  1.00  0.00     0.000 HD 
BRANCH  24  26
HETATM   26  C   UNL     1      -7.658   7.171  68.517  1.00  0.00    -0.115 A  
HETATM   27  C   UNL     1      -7.505   8.249  69.383  1.00  0.00    -0.090 A  
HETATM   28  C   UNL     1      -8.113   8.218  70.638  1.00  0.00    -0.110 A  
HETATM   29  C   UNL     1      -8.818   7.086  71.067  1.00  0.00    -0.146 A  
HETATM   30 CL   UNL     1      -9.497   7.173  72.650  1.00  0.00    -0.166 Cl 
HETATM   31  C   UNL     1      -8.938   5.970  70.231  1.00  0.00    -0.152 A  
HETATM   32  C   UNL     1      -8.378   6.045  68.933  1.00  0.00    -0.107 A  
HETATM   33  C   UNL     1      -9.593   4.673  70.638  1.00  0.00    -0.191 C  
HETATM   34  F   UNL     1     -10.658   4.360  69.849  1.00  0.00    -0.120 F  
HETATM   35  F   UNL     1      -8.729   3.620  70.518  1.00  0.00    -0.088 F  
HETATM   36  F   UNL     1     -10.053   4.602  71.915  1.00  0.00    -0.225 F  
ENDBRANCH  24  26
ENDBRANCH  22  24
ENDBRANCH  20  22
ENDBRANCH  17  20
ENDBRANCH  12  13
ENDBRANCH   8  12
ENDBRANCH   3   6
TORSDOF 7
ENDMDL
MODEL      306
REMARK 921   NORMALIZED FREE ENERGY PREDICTED BY IDOCK:   -3.70 KCAL/MOL
REMARK 922        TOTAL FREE ENERGY PREDICTED BY IDOCK:   -7.20 KCAL/MOL
REMARK 923 INTER-LIGAND FREE ENERGY PREDICTED BY IDOCK:   -6.03 KCAL/MOL
REMARK 924 INTRA-LIGAND FREE ENERGY PREDICTED BY IDOCK:   -1.17 KCAL/MOL
REMARK 927      BINDING AFFINITY PREDICTED BY RF-SCORE:    0.00 PKD
ROOT
HETATM    1  C   UNL     1      -7.887  19.654  66.298  1.00  0.00    -0.321 C  
HETATM    2  N   UNL     1      -8.198  18.298  66.661  1.00  0.00    -0.254 N  
HETATM    3  C   UNL     1      -9.503  17.863  66.740  1.00  0.00    -0.287 C  
HETATM    4  H   UNL     1      -7.439  17.647  66.864  1.00  0.00     0.000 HD 
HETATM    5  O   UNL     1     -10.470  18.564  66.463  1.00  0.00    -0.389 OA 
ENDROOT
BRANCH   3   6
HETATM    6  C   UNL     1      -9.676  16.449  67.203  1.00  0.00    -0.239 A  
HETATM    7  C   UNL     1      -8.577  15.782  67.727  1.00  0.00    -0.164 A  
HETATM    8  C   UNL     1      -8.763  14.486  68.189  1.00  0.00    -0.171 A  
HETATM    9  C   UNL     1     -10.010  13.882  68.057  1.00  0.00    -0.241 A  
HETATM   10  N   UNL     1     -10.915  15.898  67.078  1.00  0.00    -0.248 NA 
HETATM   11  C   UNL     1     -11.044  14.622  67.505  1.00  0.00    -0.313 A  
BRANCH   8  12
HETATM   12  O   UNL     1      -7.752  13.712  68.712  1.00  0.00    -0.127 OA 
BRANCH  12  13
HETATM   13  C   UNL     1      -7.633  12.395  68.321  1.00  0.00    -0.131 A  
HETATM   14  C   UNL     1      -7.585  12.161  66.945  1.00  0.00    -0.029 A  
HETATM   15  C   UNL     1      -7.519  10.854  66.473  1.00  0.00    -0.142 A  
HETATM   16  F   UNL     1      -7.489  10.634  65.150  1.00  0.00    -0.141 F  
HETATM   17  C   UNL     1      -7.560   9.768  67.351  1.00  0.00    -0.091 A  
HETATM   18  C   UNL     1      -7.649  11.315  69.211  1.00  0.00    -0.022 A  
HETATM   19  C   UNL     1      -7.605  10.002  68.727  1.00  0.00    -0.083 A  
BRANCH  17  20
HETATM   20  N   UNL     1      -7.571   8.456  66.826  1.00  0.00    -0.090 N  
HETATM   21  H   UNL     1      -6.696   8.013  66.548  1.00  0.00     0.000 HD 
BRANCH  20  22
HETATM   22  C   UNL     1      -8.769   7.767  66.688  1.00  0.00    -0.140 C  
HETATM   23  O   UNL     1      -9.670   8.078  65.913  1.00  0.00    -0.029 OA 
BRANCH  22  24
HETATM   24  N   UNL     1      -8.819   6.688  67.549  1.00  0.00    -0.117 N  
HETATM   25  H   UNL     1      -8.468   5.784  67.233  1.00  0.00     0.000 HD 
BRANCH  24  26
HETATM   26  C   UNL     1      -9.342   6.803  68.852  1.00  0.00    -0.129 A  
HETATM   27  C   UNL     1     -10.703   6.587  69.043  1.00  0.00    -0.324 A  
HETATM   28  C   UNL     1     -11.247   6.698  70.322  1.00  0.00    -0.408 A  
HETATM   29  C   UNL     1     -10.456   7.096  71.407  1.00  0.00    -0.204 A  
HETATM   30 CL   UNL     1     -11.263   7.219  72.927  1.00  0.00    -0.343 Cl 
HETATM   31  C   UNL     1      -9.096   7.370  71.227  1.00  0.00    -0.145 A  
HETATM   32  C   UNL     1      -8.542   7.181  69.937  1.00  0.00    -0.141 A  
HETATM   33  C   UNL     1      -8.186   7.895  72.310  1.00  0.00    -0.129 C  
HETATM   34  F   UNL     1      -7.146   7.053  72.566  1.00  0.00    -0.068 F  
HETATM   35  F   UNL     1      -7.613   9.082  71.947  1.00  0.00    -0.118 F  
HETATM   36  F   UNL     1      -8.761   8.140  73.517  1.00  0.00    -0.250 F  
ENDBRANCH  24  26
ENDBRANCH  22  24
ENDBRANCH  20  22
ENDBRANCH  17  20
ENDBRANCH  12  13
ENDBRANCH   8  12
ENDBRANCH   3   6
TORSDOF 7
ENDMDL
MODEL      307
REMARK 921   NORMALIZED FREE ENERGY PREDICTED BY IDOCK:   -3.68 KCAL/MOL
REMARK 922        TOTAL FREE ENERGY PREDICTED BY IDOCK:   -7.17 KCAL/MOL
REMARK 923 INTER-LIGAND FREE ENERGY PREDICTED BY IDOCK:   -6.25 KCAL/MOL
REMARK 924 INTRA-LIGAND FREE ENERGY PREDICTED BY IDOCK:   -0.93 KCAL/MOL
REMARK 927      BINDING AFFINITY PREDICTED BY RF-SCORE:    0.00 PKD
ROOT
HETATM    1  C   UNL     1      -9.541   3.805  62.342  1.00  0.00    -0.107 C  
HETATM    2  N   UNL     1      -9.390   3.951  63.763  1.00  0.00    -0.138 N  
HETATM    3  C   UNL     1      -8.626   4.966  64.298  1.00  0.00    -0.141 C  
HETATM    4  H   UNL     1      -9.857   3.294  64.388  1.00  0.00     0.000 HD 
HETATM    5  O   UNL     1      -8.074   5.828  63.623  1.00  0.00    -0.117 OA 
ENDROOT
BRANCH   3   6
HETATM    6  C   UNL     1      -8.499   4.949  65.790  1.00  0.00    -0.121 A  
HETATM    7  C   UNL     1      -8.832   6.095  66.499  1.00  0.00    -0.134 A  
HETATM    8  C   UNL     1      -8.749   6.050  67.885  1.00  0.00    -0.112 A  
HETATM    9  C   UNL     1      -8.281   4.897  68.507  1.00  0.00    -0.084 A  
HETATM   10  N   UNL     1      -8.059   3.796  66.367  1.00  0.00    -0.096 NA 
HETATM   11  C   UNL     1      -7.956   3.806  67.714  1.00  0.00    -0.085 A  
BRANCH   8  12
HETATM   12  O   UNL     1      -9.031   7.122  68.699  1.00  0.00    -0.132 OA 
BRANCH  12  13
HETATM   13  C   UNL     1      -8.302   8.285  68.569  1.00  0.00    -0.129 A  
HETATM   14  C   UNL     1      -7.911   8.905  69.758  1.00  0.00    -0.100 A  
HETATM   15  C   UNL     1      -7.219  10.111  69.708  1.00  0.00    -0.141 A  
HETATM   16  F   UNL     1      -6.859  10.710  70.854  1.00  0.00     0.003 F  
HETATM   17  C   UNL     1      -6.960  10.743  68.490  1.00  0.00    -0.068 A  
HETATM   18  C   UNL     1      -8.025   8.898  67.341  1.00  0.00    -0.101 A  
HETATM   19  C   UNL     1      -7.348  10.122  67.301  1.00  0.00    -0.090 A  
BRANCH  17  20
HETATM   20  N   UNL     1      -6.325  12.006  68.489  1.00  0.00    -0.052 N  
HETATM   21  H   UNL     1      -5.351  12.085  68.782  1.00  0.00     0.000 HD 
BRANCH  20  22
HETATM   22  C   UNL     1      -7.021  13.139  68.090  1.00  0.00    -0.108 C  
HETATM   23  O   UNL     1      -6.569  14.018  67.360  1.00  0.00    -0.278 OA 
BRANCH  22  24
HETATM   24  N   UNL     1      -8.291  13.154  68.633  1.00  0.00    -0.339 N  
HETATM   25  H   UNL     1      -8.402  13.031  69.639  1.00  0.00     0.000 HD 
BRANCH  24  26
HETATM   26  C   UNL     1      -9.436  13.334  67.833  1.00  0.00    -0.214 A  
HETATM   27  C   UNL     1     -10.500  14.067  68.351  1.00  0.00    -0.254 A  
HETATM   28  C   UNL     1     -11.647  14.258  67.582  1.00  0.00    -0.396 A  
HETATM   29  C   UNL     1     -11.773  13.661  66.320  1.00  0.00    -0.367 A  
HETATM   30 CL   UNL     1     -13.255  13.958  65.488  1.00  0.00    -0.270 Cl 
HETATM   31  C   UNL     1     -10.737  12.876  65.803  1.00  0.00    -0.293 A  
HETATM   32  C   UNL     1      -9.549  12.753  66.564  1.00  0.00    -0.257 A  
HETATM   33  C   UNL     1     -10.817  12.117  64.501  1.00  0.00    -0.312 C  
HETATM   34  F   UNL     1      -9.864  12.512  63.612  1.00  0.00    -0.372 F  
HETATM   35  F   UNL     1     -10.605  10.780  64.691  1.00  0.00    -0.399 F  
HETATM   36  F   UNL     1     -11.996  12.192  63.829  1.00  0.00    -0.444 F  
ENDBRANCH  24  26
ENDBRANCH  22  24
ENDBRANCH  20  22
ENDBRANCH  17  20
ENDBRANCH  12  13
ENDBRANCH   8  12
ENDBRANCH   3   6
TORSDOF 7
ENDMDL
MODEL      308
REMARK 921   NORMALIZED FREE ENERGY PREDICTED BY IDOCK:   -3.67 KCAL/MOL
REMARK 922        TOTAL FREE ENERGY PREDICTED BY IDOCK:   -7.16 KCAL/MOL
REMARK 923 INTER-LIGAND FREE ENERGY PREDICTED BY IDOCK:   -7.27 KCAL/MOL
REMARK 924 INTRA-LIGAND FREE ENERGY PREDICTED BY IDOCK:    0.11 KCAL/MOL
REMARK 927      BINDING AFFINITY PREDICTED BY RF-SCORE:    0.00 PKD
ROOT
HETATM    1  C   UNL     1      -9.585  20.504  66.911  1.00  0.00    -0.356 C  
HETATM    2  N   UNL     1      -9.432  19.169  67.419  1.00  0.00    -0.301 N  
HETATM    3  C   UNL     1      -9.988  18.090  66.766  1.00  0.00    -0.346 C  
HETATM    4  H   UNL     1      -8.903  19.016  68.278  1.00  0.00     0.000 HD 
HETATM    5  O   UNL     1     -10.594  18.178  65.704  1.00  0.00    -0.611 OA 
ENDROOT
BRANCH   3   6
HETATM    6  C   UNL     1      -9.811  16.770  67.452  1.00  0.00    -0.252 A  
HETATM    7  C   UNL     1      -8.906  15.862  66.922  1.00  0.00    -0.264 A  
HETATM    8  C   UNL     1      -8.722  14.659  67.592  1.00  0.00    -0.177 A  
HETATM    9  C   UNL     1      -9.486  14.380  68.721  1.00  0.00    -0.161 A  
HETATM   10  N   UNL     1     -10.559  16.540  68.567  1.00  0.00    -0.298 NA 
HETATM   11  C   UNL     1     -10.379  15.343  69.167  1.00  0.00    -0.240 A  
BRANCH   8  12
HETATM   12  O   UNL     1      -7.871  13.669  67.160  1.00  0.00    -0.129 OA 
BRANCH  12  13
HETATM   13  C   UNL     1      -8.358  12.396  66.951  1.00  0.00    -0.117 A  
HETATM   14  C   UNL     1      -9.726  12.217  67.163  1.00  0.00    -0.203 A  
HETATM   15  C   UNL     1     -10.282  10.948  67.025  1.00  0.00    -0.214 A  
HETATM   16  F   UNL     1     -11.595  10.779  67.243  1.00  0.00    -0.343 F  
HETATM   17  C   UNL     1      -9.483   9.840  66.736  1.00  0.00    -0.163 A  
HETATM   18  C   UNL     1      -7.552  11.296  66.637  1.00  0.00    -0.140 A  
HETATM   19  C   UNL     1      -8.115  10.020  66.522  1.00  0.00    -0.119 A  
BRANCH  17  20
HETATM   20  N   UNL     1     -10.075   8.557  66.683  1.00  0.00    -0.288 N  
HETATM   21  H   UNL     1     -11.059   8.462  66.433  1.00  0.00     0.000 HD 
BRANCH  20  22
HETATM   22  C   UNL     1      -9.322   7.426  66.971  1.00  0.00    -0.149 C  
HETATM   23  O   UNL     1      -9.190   6.464  66.219  1.00  0.00    -0.158 OA 
BRANCH  22  24
HETATM   24  N   UNL     1      -8.748   7.522  68.224  1.00  0.00    -0.124 N  
HETATM   25  H   UNL     1      -7.831   7.959  68.318  1.00  0.00     0.000 HD 
BRANCH  24  26
HETATM   26  C   UNL     1      -9.395   7.032  69.374  1.00  0.00    -0.146 A  
HETATM   27  C   UNL     1      -8.896   5.882  69.978  1.00  0.00    -0.139 A  
HETATM   28  C   UNL     1      -9.520   5.373  71.117  1.00  0.00    -0.200 A  
HETATM   29  C   UNL     1     -10.686   5.963  71.621  1.00  0.00    -0.252 A  
HETATM   30 CL   UNL     1     -11.369   5.215  73.018  1.00  0.00    -0.385 Cl 
HETATM   31  C   UNL     1     -11.236   7.088  70.997  1.00  0.00    -0.309 A  
HETATM   32  C   UNL     1     -10.549   7.637  69.886  1.00  0.00    -0.237 A  
HETATM   33  C   UNL     1     -12.536   7.734  71.406  1.00  0.00    -0.317 C  
HETATM   34  F   UNL     1     -12.374   9.033  71.783  1.00  0.00    -0.336 F  
HETATM   35  F   UNL     1     -13.425   7.766  70.367  1.00  0.00     0.309 F  
HETATM   36  F   UNL     1     -13.212   7.141  72.426  1.00  0.00    -0.103 F  
ENDBRANCH  24  26
ENDBRANCH  22  24
ENDBRANCH  20  22
ENDBRANCH  17  20
ENDBRANCH  12  13
ENDBRANCH   8  12
ENDBRANCH   3   6
TORSDOF 7
ENDMDL
MODEL      309
REMARK 921   NORMALIZED FREE ENERGY PREDICTED BY IDOCK:   -3.66 KCAL/MOL
REMARK 922        TOTAL FREE ENERGY PREDICTED BY IDOCK:   -7.14 KCAL/MOL
REMARK 923 INTER-LIGAND FREE ENERGY PREDICTED BY IDOCK:   -6.01 KCAL/MOL
REMARK 924 INTRA-LIGAND FREE ENERGY PREDICTED BY IDOCK:   -1.13 KCAL/MOL
REMARK 927      BINDING AFFINITY PREDICTED BY RF-SCORE:    0.00 PKD
ROOT
HETATM    1  C   UNL     1      -9.325  10.034  63.644  1.00  0.00    -0.253 C  
HETATM    2  N   UNL     1      -9.080  10.390  65.014  1.00  0.00    -0.188 N  
HETATM    3  C   UNL     1      -8.575   9.472  65.910  1.00  0.00    -0.132 C  
HETATM    4  H   UNL     1      -9.283  11.339  65.330  1.00  0.00     0.000 HD 
HETATM    5  O   UNL     1      -8.256   8.329  65.603  1.00  0.00    -0.118 OA 
ENDROOT
BRANCH   3   6
HETATM    6  C   UNL     1      -8.443   9.964  67.319  1.00  0.00    -0.121 A  
HETATM    7  C   UNL     1      -7.512  10.957  67.592  1.00  0.00    -0.095 A  
HETATM    8  C   UNL     1      -7.430  11.431  68.895  1.00  0.00    -0.113 A  
HETATM    9  C   UNL     1      -8.226  10.861  69.884  1.00  0.00     0.642 A  
HETATM   10  N   UNL     1      -9.253   9.399  68.256  1.00  0.00    -0.131 NA 
HETATM   11  C   UNL     1      -9.115   9.861  69.518  1.00  0.00    -0.223 A  
BRANCH   8  12
HETATM   12  O   UNL     1      -6.537  12.397  69.298  1.00  0.00    -0.102 OA 
BRANCH  12  13
HETATM   13  C   UNL     1      -6.639  13.673  68.787  1.00  0.00    -0.101 A  
HETATM   14  C   UNL     1      -6.281  14.713  69.646  1.00  0.00    -0.133 A  
HETATM   15  C   UNL     1      -6.408  16.032  69.220  1.00  0.00    -0.158 A  
HETATM   16  F   UNL     1      -6.075  17.027  70.056  1.00  0.00    -0.223 F  
HETATM   17  C   UNL     1      -6.944  16.334  67.967  1.00  0.00    -0.130 A  
HETATM   18  C   UNL     1      -7.155  13.965  67.518  1.00  0.00    -0.175 A  
HETATM   19  C   UNL     1      -7.301  15.294  67.105  1.00  0.00    -0.178 A  
BRANCH  17  20
HETATM   20  N   UNL     1      -7.131  17.688  67.604  1.00  0.00    -0.175 N  
HETATM   21  H   UNL     1      -6.390  18.367  67.779  1.00  0.00     0.000 HD 
BRANCH  20  22
HETATM   22  C   UNL     1      -8.318  18.097  67.012  1.00  0.00    -0.240 C  
HETATM   23  O   UNL     1      -8.439  18.413  65.831  1.00  0.00    -0.497 OA 
BRANCH  22  24
HETATM   24  N   UNL     1      -9.349  18.113  67.933  1.00  0.00    -0.267 N  
HETATM   25  H   UNL     1      -9.568  18.983  68.418  1.00  0.00     0.000 HD 
BRANCH  24  26
HETATM   26  C   UNL     1     -10.104  16.959  68.219  1.00  0.00    -0.302 A  
HETATM   27  C   UNL     1     -10.576  16.194  67.157  1.00  0.00    -0.294 A  
HETATM   28  C   UNL     1     -11.329  15.049  67.411  1.00  0.00    -0.338 A  
HETATM   29  C   UNL     1     -11.678  14.695  68.721  1.00  0.00    -0.324 A  
HETATM   30 CL   UNL     1     -12.634  13.269  68.890  1.00  0.00     0.309 Cl 
HETATM   31  C   UNL     1     -11.258  15.479  69.801  1.00  0.00    -0.307 A  
HETATM   32  C   UNL     1     -10.432  16.598  69.531  1.00  0.00    -0.281 A  
HETATM   33  C   UNL     1     -11.661  15.235  71.234  1.00  0.00    -0.380 C  
HETATM   34  F   UNL     1     -10.588  15.000  72.041  1.00  0.00    -0.143 F  
HETATM   35  F   UNL     1     -12.286  16.327  71.768  1.00  0.00    -0.480 F  
HETATM   36  F   UNL     1     -12.515  14.201  71.454  1.00  0.00    -0.363 F  
ENDBRANCH  24  26
ENDBRANCH  22  24
ENDBRANCH  20  22
ENDBRANCH  17  20
ENDBRANCH  12  13
ENDBRANCH   8  12
ENDBRANCH   3   6
TORSDOF 7
ENDMDL
MODEL      310
REMARK 921   NORMALIZED FREE ENERGY PREDICTED BY IDOCK:   -3.61 KCAL/MOL
REMARK 922        TOTAL FREE ENERGY PREDICTED BY IDOCK:   -7.08 KCAL/MOL
REMARK 923 INTER-LIGAND FREE ENERGY PREDICTED BY IDOCK:   -6.97 KCAL/MOL
REMARK 924 INTRA-LIGAND FREE ENERGY PREDICTED BY IDOCK:   -0.11 KCAL/MOL
REMARK 927      BINDING AFFINITY PREDICTED BY RF-SCORE:    0.00 PKD
ROOT
HETATM    1  C   UNL     1     -11.324  16.048  68.492  1.00  0.00    -0.382 C  
HETATM    2  N   UNL     1     -11.395  15.256  67.296  1.00  0.00    -0.310 N  
HETATM    3  C   UNL     1     -11.840  13.951  67.330  1.00  0.00    -0.407 C  
HETATM    4  H   UNL     1     -11.113  15.666  66.405  1.00  0.00     0.000 HD 
HETATM    5  O   UNL     1     -12.247  13.400  68.347  1.00  0.00    -0.293 OA 
ENDROOT
BRANCH   3   6
HETATM    6  C   UNL     1     -11.788  13.227  66.020  1.00  0.00    -0.395 A  
HETATM    7  C   UNL     1     -10.871  12.197  65.866  1.00  0.00    -0.316 A  
HETATM    8  C   UNL     1     -10.863  11.508  64.660  1.00  0.00    -0.310 A  
HETATM    9  C   UNL     1     -11.719  11.906  63.637  1.00  0.00    -0.572 A  
HETATM   10  N   UNL     1     -12.655  13.628  65.049  1.00  0.00    -0.626 NA 
HETATM   11  C   UNL     1     -12.590  12.957  63.879  1.00  0.00    -0.247 A  
BRANCH   8  12
HETATM   12  O   UNL     1      -9.991  10.483  64.375  1.00  0.00    -0.321 OA 
BRANCH  12  13
HETATM   13  C   UNL     1      -9.309   9.865  65.401  1.00  0.00    -0.239 A  
HETATM   14  C   UNL     1     -10.085   9.148  66.314  1.00  0.00    -0.319 A  
HETATM   15  C   UNL     1      -9.474   8.541  67.407  1.00  0.00    -0.150 A  
HETATM   16  F   UNL     1     -10.226   7.866  68.289  1.00  0.00    -0.189 F  
HETATM   17  C   UNL     1      -8.105   8.687  67.640  1.00  0.00    -0.107 A  
HETATM   18  C   UNL     1      -7.931   9.997  65.611  1.00  0.00    -0.140 A  
HETATM   19  C   UNL     1      -7.328   9.403  66.725  1.00  0.00    -0.086 A  
BRANCH  17  20
HETATM   20  N   UNL     1      -7.538   8.123  68.805  1.00  0.00    -0.103 N  
HETATM   21  H   UNL     1      -7.736   7.151  69.046  1.00  0.00     0.000 HD 
BRANCH  20  22
HETATM   22  C   UNL     1      -6.713   8.884  69.622  1.00  0.00    -0.046 C  
HETATM   23  O   UNL     1      -5.642   9.376  69.273  1.00  0.00    -0.035 OA 
BRANCH  22  24
HETATM   24  N   UNL     1      -7.251   9.006  70.889  1.00  0.00    -0.092 N  
HETATM   25  H   UNL     1      -7.183   9.901  71.373  1.00  0.00     0.000 HD 
BRANCH  24  26
HETATM   26  C   UNL     1      -7.891   7.927  71.529  1.00  0.00    -0.095 A  
HETATM   27  C   UNL     1      -8.770   8.200  72.572  1.00  0.00    -0.266 A  
HETATM   28  C   UNL     1      -9.414   7.150  73.225  1.00  0.00    -0.218 A  
HETATM   29  C   UNL     1      -9.135   5.818  72.893  1.00  0.00    -0.122 A  
HETATM   30 CL   UNL     1      -9.982   4.619  73.799  1.00  0.00    -0.173 Cl 
HETATM   31  C   UNL     1      -8.213   5.520  71.883  1.00  0.00    -0.119 A  
HETATM   32  C   UNL     1      -7.623   6.598  71.179  1.00  0.00    -0.089 A  
HETATM   33  C   UNL     1      -7.776   4.122  71.520  1.00  0.00    -0.065 C  
HETATM   34  F   UNL     1      -8.061   3.810  70.226  1.00  0.00    -0.050 F  
HETATM   35  F   UNL     1      -6.421   3.978  71.639  1.00  0.00    -0.013 F  
HETATM   36  F   UNL     1      -8.300   3.112  72.263  1.00  0.00    -0.069 F  
ENDBRANCH  24  26
ENDBRANCH  22  24
ENDBRANCH  20  22
ENDBRANCH  17  20
ENDBRANCH  12  13
ENDBRANCH   8  12
ENDBRANCH   3   6
TORSDOF 7
ENDMDL
MODEL      311
REMARK 921   NORMALIZED FREE ENERGY PREDICTED BY IDOCK:   -3.57 KCAL/MOL
REMARK 922        TOTAL FREE ENERGY PREDICTED BY IDOCK:   -7.01 KCAL/MOL
REMARK 923 INTER-LIGAND FREE ENERGY PREDICTED BY IDOCK:   -6.85 KCAL/MOL
REMARK 924 INTRA-LIGAND FREE ENERGY PREDICTED BY IDOCK:   -0.16 KCAL/MOL
REMARK 927      BINDING AFFINITY PREDICTED BY RF-SCORE:    0.00 PKD
ROOT
HETATM    1  C   UNL     1      -8.815   4.356  62.909  1.00  0.00    -0.118 C  
HETATM    2  N   UNL     1      -9.274   4.681  64.231  1.00  0.00    -0.282 N  
HETATM    3  C   UNL     1      -8.642   5.643  64.990  1.00  0.00    -0.108 C  
HETATM    4  H   UNL     1     -10.083   4.192  64.615  1.00  0.00     0.000 HD 
HETATM    5  O   UNL     1      -7.697   6.313  64.586  1.00  0.00    -0.091 OA 
ENDROOT
BRANCH   3   6
HETATM    6  C   UNL     1      -9.185   5.821  66.374  1.00  0.00    -0.151 A  
HETATM    7  C   UNL     1      -9.137   7.082  66.950  1.00  0.00    -0.156 A  
HETATM    8  C   UNL     1      -9.682   7.240  68.218  1.00  0.00    -0.147 A  
HETATM    9  C   UNL     1     -10.194   6.133  68.887  1.00  0.00    -0.232 A  
HETATM   10  N   UNL     1      -9.699   4.720  66.990  1.00  0.00    -0.171 NA 
HETATM   11  C   UNL     1     -10.185   4.908  68.237  1.00  0.00    -0.032 A  
BRANCH   8  12
HETATM   12  O   UNL     1      -9.678   8.432  68.905  1.00  0.00    -0.162 OA 
BRANCH  12  13
HETATM   13  C   UNL     1      -8.753   9.401  68.580  1.00  0.00    -0.131 A  
HETATM   14  C   UNL     1      -8.039   9.955  69.645  1.00  0.00    -0.171 A  
HETATM   15  C   UNL     1      -7.127  10.977  69.403  1.00  0.00    -0.128 A  
HETATM   16  F   UNL     1      -6.454  11.516  70.432  1.00  0.00    -0.164 F  
HETATM   17  C   UNL     1      -6.955  11.499  68.119  1.00  0.00    -0.070 A  
HETATM   18  C   UNL     1      -8.570   9.901  67.285  1.00  0.00    -0.125 A  
HETATM   19  C   UNL     1      -7.666  10.944  67.053  1.00  0.00    -0.129 A  
BRANCH  17  20
HETATM   20  N   UNL     1      -6.076  12.591  67.930  1.00  0.00    -0.087 N  
HETATM   21  H   UNL     1      -5.070  12.431  67.887  1.00  0.00     0.000 HD 
BRANCH  20  22
HETATM   22  C   UNL     1      -6.578  13.879  67.801  1.00  0.00    -0.176 C  
HETATM   23  O   UNL     1      -5.910  14.863  67.494  1.00  0.00    -0.325 OA 
BRANCH  22  24
HETATM   24  N   UNL     1      -7.932  13.910  68.075  1.00  0.00    -0.140 N  
HETATM   25  H   UNL     1      -8.270  13.518  68.954  1.00  0.00     0.000 HD 
BRANCH  24  26
HETATM   26  C   UNL     1      -8.857  14.470  67.173  1.00  0.00    -0.229 A  
HETATM   27  C   UNL     1      -9.441  13.640  66.221  1.00  0.00    -0.209 A  
HETATM   28  C   UNL     1     -10.358  14.169  65.314  1.00  0.00    -0.409 A  
HETATM   29  C   UNL     1     -10.647  15.540  65.300  1.00  0.00    -0.424 A  
HETATM   30 CL   UNL     1     -11.778  16.063  64.107  1.00  0.00    -0.207 Cl 
HETATM   31  C   UNL     1     -10.030  16.401  66.214  1.00  0.00    -0.341 A  
HETATM   32  C   UNL     1      -9.157  15.838  67.177  1.00  0.00    -0.228 A  
HETATM   33  C   UNL     1     -10.202  17.900  66.216  1.00  0.00    -0.363 C  
HETATM   34  F   UNL     1     -10.730  18.359  67.384  1.00  0.00    -0.398 F  
HETATM   35  F   UNL     1      -9.000  18.539  66.084  1.00  0.00    -0.295 F  
HETATM   36  F   UNL     1     -10.983  18.420  65.233  1.00  0.00    -0.457 F  
ENDBRANCH  24  26
ENDBRANCH  22  24
ENDBRANCH  20  22
ENDBRANCH  17  20
ENDBRANCH  12  13
ENDBRANCH   8  12
ENDBRANCH   3   6
TORSDOF 7
ENDMDL
MODEL      312
REMARK 921   NORMALIZED FREE ENERGY PREDICTED BY IDOCK:   -3.56 KCAL/MOL
REMARK 922        TOTAL FREE ENERGY PREDICTED BY IDOCK:   -7.00 KCAL/MOL
REMARK 923 INTER-LIGAND FREE ENERGY PREDICTED BY IDOCK:   -7.10 KCAL/MOL
REMARK 924 INTRA-LIGAND FREE ENERGY PREDICTED BY IDOCK:    0.09 KCAL/MOL
REMARK 927      BINDING AFFINITY PREDICTED BY RF-SCORE:    0.00 PKD
ROOT
HETATM    1  C   UNL     1      -7.580  10.327  65.110  1.00  0.00    -0.133 C  
HETATM    2  N   UNL     1      -8.165  11.495  65.709  1.00  0.00    -0.367 N  
HETATM    3  C   UNL     1      -7.508  12.193  66.700  1.00  0.00     0.182 C  
HETATM    4  H   UNL     1      -9.082  11.814  65.395  1.00  0.00     0.000 HD 
HETATM    5  O   UNL     1      -6.383  11.910  67.098  1.00  0.00    -0.127 OA 
ENDROOT
BRANCH   3   6
HETATM    6  C   UNL     1      -8.271  13.343  67.281  1.00  0.00    -0.154 A  
HETATM    7  C   UNL     1      -9.465  13.084  67.940  1.00  0.00    -0.219 A  
HETATM    8  C   UNL     1     -10.140  14.156  68.509  1.00  0.00    -0.243 A  
HETATM    9  C   UNL     1      -9.639  15.445  68.350  1.00  0.00    -0.200 A  
HETATM   10  N   UNL     1      -7.741  14.588  67.126  1.00  0.00    -0.142 NA 
HETATM   11  C   UNL     1      -8.447  15.608  67.661  1.00  0.00    -0.157 A  
BRANCH   8  12
HETATM   12  O   UNL     1     -11.340  14.035  69.170  1.00  0.00    -0.254 OA 
BRANCH  12  13
HETATM   13  C   UNL     1     -11.768  12.790  69.582  1.00  0.00    -0.302 A  
HETATM   14  C   UNL     1     -12.517  12.753  70.760  1.00  0.00    -0.357 A  
HETATM   15  C   UNL     1     -12.937  11.528  71.268  1.00  0.00    -0.297 A  
HETATM   16  F   UNL     1     -13.645  11.497  72.408  1.00  0.00    -0.519 F  
HETATM   17  C   UNL     1     -12.573  10.329  70.651  1.00  0.00    -0.304 A  
HETATM   18  C   UNL     1     -11.417  11.596  68.942  1.00  0.00    -0.349 A  
HETATM   19  C   UNL     1     -11.826  10.366  69.471  1.00  0.00    -0.218 A  
BRANCH  17  20
HETATM   20  N   UNL     1     -12.954   9.104  71.244  1.00  0.00    -0.464 N  
HETATM   21  H   UNL     1     -13.887   8.728  71.078  1.00  0.00     0.000 HD 
BRANCH  20  22
HETATM   22  C   UNL     1     -12.062   8.409  72.050  1.00  0.00    -0.356 C  
HETATM   23  O   UNL     1     -12.305   8.022  73.191  1.00  0.00    -0.016 OA 
BRANCH  22  24
HETATM   24  N   UNL     1     -10.856   8.219  71.402  1.00  0.00    -0.231 N  
HETATM   25  H   UNL     1     -10.148   8.952  71.446  1.00  0.00     0.000 HD 
BRANCH  24  26
HETATM   26  C   UNL     1     -10.580   7.041  70.682  1.00  0.00    -0.225 A  
HETATM   27  C   UNL     1     -11.026   6.945  69.368  1.00  0.00    -0.274 A  
HETATM   28  C   UNL     1     -10.770   5.788  68.634  1.00  0.00    -0.303 A  
HETATM   29  C   UNL     1     -10.131   4.690  69.224  1.00  0.00    -0.100 A  
HETATM   30 CL   UNL     1      -9.901   3.314  68.209  1.00  0.00     0.006 Cl 
HETATM   31  C   UNL     1      -9.721   4.745  70.561  1.00  0.00    -0.281 A  
HETATM   32  C   UNL     1      -9.923   5.953  71.271  1.00  0.00    -0.232 A  
HETATM   33  C   UNL     1      -9.114   3.585  71.310  1.00  0.00    -0.112 C  
HETATM   34  F   UNL     1      -7.861   3.861  71.765  1.00  0.00    -0.062 F  
HETATM   35  F   UNL     1      -9.845   3.273  72.422  1.00  0.00    -0.176 F  
HETATM   36  F   UNL     1      -9.003   2.415  70.626  1.00  0.00    -0.109 F  
ENDBRANCH  24  26
ENDBRANCH  22  24
ENDBRANCH  20  22
ENDBRANCH  17  20
ENDBRANCH  12  13
ENDBRANCH   8  12
ENDBRANCH   3   6
TORSDOF 7
ENDMDL
MODEL      313
REMARK 921   NORMALIZED FREE ENERGY PREDICTED BY IDOCK:   -3.55 KCAL/MOL
REMARK 922        TOTAL FREE ENERGY PREDICTED BY IDOCK:   -6.99 KCAL/MOL
REMARK 923 INTER-LIGAND FREE ENERGY PREDICTED BY IDOCK:   -6.23 KCAL/MOL
REMARK 924 INTRA-LIGAND FREE ENERGY PREDICTED BY IDOCK:   -0.76 KCAL/MOL
REMARK 927      BINDING AFFINITY PREDICTED BY RF-SCORE:    0.00 PKD
ROOT
HETATM    1  C   UNL     1      -6.591   4.030  63.755  1.00  0.00    -0.042 C  
HETATM    2  N   UNL     1      -7.005   4.481  65.055  1.00  0.00    -0.060 N  
HETATM    3  C   UNL     1      -7.411   5.782  65.262  1.00  0.00    -0.078 C  
HETATM    4  H   UNL     1      -6.998   3.828  65.839  1.00  0.00     0.000 HD 
HETATM    5  O   UNL     1      -7.499   6.616  64.367  1.00  0.00    -0.081 OA 
ENDROOT
BRANCH   3   6
HETATM    6  C   UNL     1      -7.742   6.127  66.681  1.00  0.00    -0.103 A  
HETATM    7  C   UNL     1      -8.113   7.431  66.979  1.00  0.00    -0.113 A  
HETATM    8  C   UNL     1      -8.457   7.726  68.292  1.00  0.00    -0.124 A  
HETATM    9  C   UNL     1      -8.358   6.737  69.266  1.00  0.00    -0.125 A  
HETATM   10  N   UNL     1      -7.656   5.129  67.604  1.00  0.00    -0.086 NA 
HETATM   11  C   UNL     1      -7.961   5.466  68.876  1.00  0.00    -0.094 A  
BRANCH   8  12
HETATM   12  O   UNL     1      -8.822   8.981  68.720  1.00  0.00    -0.135 OA 
BRANCH  12  13
HETATM   13  C   UNL     1      -7.981  10.050  68.490  1.00  0.00    -0.102 A  
HETATM   14  C   UNL     1      -7.478  10.694  69.622  1.00  0.00    -0.121 A  
HETATM   15  C   UNL     1      -6.665  11.813  69.471  1.00  0.00    -0.067 A  
HETATM   16  F   UNL     1      -6.196  12.437  70.563  1.00  0.00    -0.154 F  
HETATM   17  C   UNL     1      -6.392  12.340  68.207  1.00  0.00    -0.055 A  
HETATM   18  C   UNL     1      -7.693  10.555  67.217  1.00  0.00    -0.106 A  
HETATM   19  C   UNL     1      -6.893  11.694  67.074  1.00  0.00    -0.144 A  
BRANCH  17  20
HETATM   20  N   UNL     1      -5.629  13.525  68.103  1.00  0.00    -0.103 N  
HETATM   21  H   UNL     1      -4.624  13.499  68.280  1.00  0.00     0.000 HD 
BRANCH  20  22
HETATM   22  C   UNL     1      -6.239  14.723  67.760  1.00  0.00    -0.139 C  
HETATM   23  O   UNL     1      -5.688  15.645  67.164  1.00  0.00    -0.331 OA 
BRANCH  22  24
HETATM   24  N   UNL     1      -7.553  14.747  68.188  1.00  0.00    -0.111 N  
HETATM   25  H   UNL     1      -7.750  14.708  69.188  1.00  0.00     0.000 HD 
BRANCH  24  26
HETATM   26  C   UNL     1      -8.627  14.824  67.280  1.00  0.00    -0.212 A  
HETATM   27  C   UNL     1      -8.777  15.984  66.526  1.00  0.00    -0.338 A  
HETATM   28  C   UNL     1      -9.833  16.088  65.622  1.00  0.00    -0.309 A  
HETATM   29  C   UNL     1     -10.788  15.069  65.512  1.00  0.00    -0.351 A  
HETATM   30 CL   UNL     1     -12.056  15.340  64.374  1.00  0.00    -0.367 Cl 
HETATM   31  C   UNL     1     -10.686  13.917  66.300  1.00  0.00    -0.285 A  
HETATM   32  C   UNL     1      -9.567  13.794  67.160  1.00  0.00    -0.244 A  
HETATM   33  C   UNL     1     -11.713  12.812  66.323  1.00  0.00    -0.402 C  
HETATM   34  F   UNL     1     -11.191  11.612  65.944  1.00  0.00    -0.347 F  
HETATM   35  F   UNL     1     -12.202  12.614  67.584  1.00  0.00    -0.387 F  
HETATM   36  F   UNL     1     -12.813  12.993  65.546  1.00  0.00    -0.518 F  
ENDBRANCH  24  26
ENDBRANCH  22  24
ENDBRANCH  20  22
ENDBRANCH  17  20
ENDBRANCH  12  13
ENDBRANCH   8  12
ENDBRANCH   3   6
TORSDOF 7
ENDMDL
MODEL      314
REMARK 921   NORMALIZED FREE ENERGY PREDICTED BY IDOCK:   -3.55 KCAL/MOL
REMARK 922        TOTAL FREE ENERGY PREDICTED BY IDOCK:   -6.99 KCAL/MOL
REMARK 923 INTER-LIGAND FREE ENERGY PREDICTED BY IDOCK:   -5.49 KCAL/MOL
REMARK 924 INTRA-LIGAND FREE ENERGY PREDICTED BY IDOCK:   -1.51 KCAL/MOL
REMARK 927      BINDING AFFINITY PREDICTED BY RF-SCORE:    0.00 PKD
ROOT
HETATM    1  C   UNL     1     -14.157   9.439  72.070  1.00  0.00    -0.184 C  
HETATM    2  N   UNL     1     -13.198   8.804  71.209  1.00  0.00    -0.514 N  
HETATM    3  C   UNL     1     -12.056   8.224  71.718  1.00  0.00    -0.319 C  
HETATM    4  H   UNL     1     -13.366   8.781  70.203  1.00  0.00     0.000 HD 
HETATM    5  O   UNL     1     -11.803   8.162  72.916  1.00  0.00    -0.352 OA 
ENDROOT
BRANCH   3   6
HETATM    6  C   UNL     1     -11.114   7.668  70.695  1.00  0.00    -0.257 A  
HETATM    7  C   UNL     1      -9.751   7.866  70.869  1.00  0.00    -0.177 A  
HETATM    8  C   UNL     1      -8.889   7.308  69.934  1.00  0.00    -0.142 A  
HETATM    9  C   UNL     1      -9.412   6.633  68.835  1.00  0.00    -0.130 A  
HETATM   10  N   UNL     1     -11.659   6.994  69.645  1.00  0.00    -0.076 NA 
HETATM   11  C   UNL     1     -10.788   6.500  68.738  1.00  0.00    -0.299 A  
BRANCH   8  12
HETATM   12  O   UNL     1      -7.521   7.449  69.981  1.00  0.00    -0.081 OA 
BRANCH  12  13
HETATM   13  C   UNL     1      -6.948   8.649  69.618  1.00  0.00    -0.050 A  
HETATM   14  C   UNL     1      -6.589   9.503  70.663  1.00  0.00    -0.103 A  
HETATM   15  C   UNL     1      -6.054  10.755  70.373  1.00  0.00    -0.135 A  
HETATM   16  F   UNL     1      -5.724  11.577  71.381  1.00  0.00    -0.037 F  
HETATM   17  C   UNL     1      -5.925  11.196  69.055  1.00  0.00    -0.042 A  
HETATM   18  C   UNL     1      -6.800   9.072  68.291  1.00  0.00    -0.065 A  
HETATM   19  C   UNL     1      -6.282  10.341  68.009  1.00  0.00    -0.056 A  
BRANCH  17  20
HETATM   20  N   UNL     1      -5.453  12.505  68.807  1.00  0.00    -0.057 N  
HETATM   21  H   UNL     1      -4.457  12.664  68.650  1.00  0.00     0.000 HD 
BRANCH  20  22
HETATM   22  C   UNL     1      -6.337  13.575  68.776  1.00  0.00    -0.093 C  
HETATM   23  O   UNL     1      -6.684  14.225  69.759  1.00  0.00    -0.136 OA 
BRANCH  22  24
HETATM   24  N   UNL     1      -6.786  13.806  67.490  1.00  0.00    -0.218 N  
HETATM   25  H   UNL     1      -6.139  14.187  66.799  1.00  0.00     0.000 HD 
BRANCH  24  26
HETATM   26  C   UNL     1      -8.113  13.529  67.108  1.00  0.00    -0.082 A  
HETATM   27  C   UNL     1      -8.370  12.362  66.395  1.00  0.00     0.208 A  
HETATM   28  C   UNL     1      -9.674  12.065  66.002  1.00  0.00    -0.256 A  
HETATM   29  C   UNL     1     -10.721  12.961  66.252  1.00  0.00    -0.274 A  
HETATM   30 CL   UNL     1     -12.279  12.481  65.688  1.00  0.00    -0.468 Cl 
HETATM   31  C   UNL     1     -10.476  14.166  66.921  1.00  0.00    -0.272 A  
HETATM   32  C   UNL     1      -9.160  14.419  67.379  1.00  0.00    -0.202 A  
HETATM   33  C   UNL     1     -11.516  15.234  67.151  1.00  0.00    -0.200 C  
HETATM   34  F   UNL     1     -11.716  15.485  68.475  1.00  0.00    -0.328 F  
HETATM   35  F   UNL     1     -11.130  16.429  66.609  1.00  0.00    -0.210 F  
HETATM   36  F   UNL     1     -12.750  14.999  66.634  1.00  0.00     0.122 F  
ENDBRANCH  24  26
ENDBRANCH  22  24
ENDBRANCH  20  22
ENDBRANCH  17  20
ENDBRANCH  12  13
ENDBRANCH   8  12
ENDBRANCH   3   6
TORSDOF 7
ENDMDL
MODEL      315
REMARK 921   NORMALIZED FREE ENERGY PREDICTED BY IDOCK:   -3.53 KCAL/MOL
REMARK 922        TOTAL FREE ENERGY PREDICTED BY IDOCK:   -6.97 KCAL/MOL
REMARK 923 INTER-LIGAND FREE ENERGY PREDICTED BY IDOCK:   -7.36 KCAL/MOL
REMARK 924 INTRA-LIGAND FREE ENERGY PREDICTED BY IDOCK:    0.40 KCAL/MOL
REMARK 927      BINDING AFFINITY PREDICTED BY RF-SCORE:    0.00 PKD
ROOT
HETATM    1  C   UNL     1      -7.752  10.327  65.876  1.00  0.00    -0.137 C  
HETATM    2  N   UNL     1      -8.735  11.160  66.512  1.00  0.00    -0.168 N  
HETATM    3  C   UNL     1      -8.362  12.243  67.280  1.00  0.00    -0.182 C  
HETATM    4  H   UNL     1      -9.725  10.948  66.394  1.00  0.00     0.000 HD 
HETATM    5  O   UNL     1      -7.198  12.599  67.431  1.00  0.00    -0.141 OA 
ENDROOT
BRANCH   3   6
HETATM    6  C   UNL     1      -9.489  12.973  67.941  1.00  0.00    -0.219 A  
HETATM    7  C   UNL     1     -10.437  12.240  68.641  1.00  0.00    -0.228 A  
HETATM    8  C   UNL     1     -11.454  12.935  69.283  1.00  0.00    -0.282 A  
HETATM    9  C   UNL     1     -11.526  14.318  69.155  1.00  0.00    -0.330 A  
HETATM   10  N   UNL     1      -9.516  14.329  67.813  1.00  0.00    -0.211 NA 
HETATM   11  C   UNL     1     -10.542  14.964  68.421  1.00  0.00    -0.244 A  
BRANCH   8  12
HETATM   12  O   UNL     1     -12.464  12.325  69.991  1.00  0.00    -0.117 OA 
BRANCH  12  13
HETATM   13  C   UNL     1     -12.280  11.046  70.472  1.00  0.00    -0.381 A  
HETATM   14  C   UNL     1     -13.081  10.672  71.553  1.00  0.00    -0.527 A  
HETATM   15  C   UNL     1     -12.915   9.416  72.129  1.00  0.00    -0.421 A  
HETATM   16  F   UNL     1     -13.678   9.068  73.177  1.00  0.00    -0.398 F  
HETATM   17  C   UNL     1     -11.921   8.544  71.680  1.00  0.00    -0.316 A  
HETATM   18  C   UNL     1     -11.296  10.169  69.999  1.00  0.00    -0.351 A  
HETATM   19  C   UNL     1     -11.121   8.916  70.597  1.00  0.00    -0.306 A  
BRANCH  17  20
HETATM   20  N   UNL     1     -11.734   7.310  72.344  1.00  0.00    -0.403 N  
HETATM   21  H   UNL     1     -12.462   6.596  72.304  1.00  0.00     0.000 HD 
BRANCH  20  22
HETATM   22  C   UNL     1     -10.564   7.065  73.051  1.00  0.00    -0.292 C  
HETATM   23  O   UNL     1     -10.512   6.531  74.156  1.00  0.00    -0.337 OA 
BRANCH  22  24
HETATM   24  N   UNL     1      -9.461   7.512  72.348  1.00  0.00    -0.151 N  
HETATM   25  H   UNL     1      -9.215   8.501  72.389  1.00  0.00     0.000 HD 
BRANCH  24  26
HETATM   26  C   UNL     1      -8.670   6.639  71.578  1.00  0.00    -0.131 A  
HETATM   27  C   UNL     1      -7.288   6.796  71.605  1.00  0.00    -0.085 A  
HETATM   28  C   UNL     1      -6.481   5.946  70.849  1.00  0.00    -0.040 A  
HETATM   29  C   UNL     1      -7.046   4.981  70.005  1.00  0.00    -0.054 A  
HETATM   30 CL   UNL     1      -5.933   4.017  69.107  1.00  0.00    -0.022 Cl 
HETATM   31  C   UNL     1      -8.436   4.842  69.922  1.00  0.00    -0.088 A  
HETATM   32  C   UNL     1      -9.240   5.662  70.751  1.00  0.00    -0.175 A  
HETATM   33  C   UNL     1      -9.139   3.901  68.974  1.00  0.00    -0.137 C  
HETATM   34  F   UNL     1      -9.904   2.984  69.628  1.00  0.00    -0.205 F  
HETATM   35  F   UNL     1      -9.999   4.574  68.152  1.00  0.00    -0.208 F  
HETATM   36  F   UNL     1      -8.345   3.183  68.137  1.00  0.00    -0.076 F  
ENDBRANCH  24  26
ENDBRANCH  22  24
ENDBRANCH  20  22
ENDBRANCH  17  20
ENDBRANCH  12  13
ENDBRANCH   8  12
ENDBRANCH   3   6
TORSDOF 7
ENDMDL
MODEL      316
REMARK 921   NORMALIZED FREE ENERGY PREDICTED BY IDOCK:   -3.39 KCAL/MOL
REMARK 922        TOTAL FREE ENERGY PREDICTED BY IDOCK:   -6.77 KCAL/MOL
REMARK 923 INTER-LIGAND FREE ENERGY PREDICTED BY IDOCK:   -5.75 KCAL/MOL
REMARK 924 INTRA-LIGAND FREE ENERGY PREDICTED BY IDOCK:   -1.02 KCAL/MOL
REMARK 927      BINDING AFFINITY PREDICTED BY RF-SCORE:    0.00 PKD
ROOT
HETATM    1  C   UNL     1      -9.540   3.914  72.214  1.00  0.00    -0.142 C  
HETATM    2  N   UNL     1      -9.808   4.859  71.165  1.00  0.00    -0.181 N  
HETATM    3  C   UNL     1      -9.847   4.467  69.844  1.00  0.00    -0.220 C  
HETATM    4  H   UNL     1      -9.972   5.837  71.402  1.00  0.00     0.000 HD 
HETATM    5  O   UNL     1      -9.712   3.304  69.478  1.00  0.00    -0.116 OA 
ENDROOT
BRANCH   3   6
HETATM    6  C   UNL     1     -10.062   5.572  68.858  1.00  0.00    -0.198 A  
HETATM    7  C   UNL     1     -10.184   6.871  69.331  1.00  0.00    -0.194 A  
HETATM    8  C   UNL     1     -10.342   7.891  68.401  1.00  0.00    -0.199 A  
HETATM    9  C   UNL     1     -10.435   7.577  67.049  1.00  0.00    -0.409 A  
HETATM   10  N   UNL     1     -10.126   5.231  67.541  1.00  0.00    -0.175 NA 
HETATM   11  C   UNL     1     -10.318   6.247  66.671  1.00  0.00    -0.170 A  
BRANCH   8  12
HETATM   12  O   UNL     1     -10.494   9.215  68.742  1.00  0.00    -0.215 OA 
BRANCH  12  13
HETATM   13  C   UNL     1      -9.421  10.073  68.632  1.00  0.00    -0.156 A  
HETATM   14  C   UNL     1      -8.154   9.493  68.728  1.00  0.00    -0.096 A  
HETATM   15  C   UNL     1      -7.023  10.302  68.680  1.00  0.00    -0.066 A  
HETATM   16  F   UNL     1      -5.809   9.741  68.787  1.00  0.00    -0.039 F  
HETATM   17  C   UNL     1      -7.135  11.692  68.598  1.00  0.00    -0.099 A  
HETATM   18  C   UNL     1      -9.543  11.463  68.525  1.00  0.00    -0.190 A  
HETATM   19  C   UNL     1      -8.401  12.272  68.500  1.00  0.00    -0.084 A  
BRANCH  17  20
HETATM   20  N   UNL     1      -5.963  12.482  68.633  1.00  0.00    -0.061 N  
HETATM   21  H   UNL     1      -5.277  12.407  67.882  1.00  0.00     0.000 HD 
BRANCH  20  22
HETATM   22  C   UNL     1      -5.742  13.359  69.686  1.00  0.00    -0.105 C  
HETATM   23  O   UNL     1      -5.825  13.062  70.875  1.00  0.00    -0.223 OA 
BRANCH  22  24
HETATM   24  N   UNL     1      -5.424  14.620  69.218  1.00  0.00    -0.088 N  
HETATM   25  H   UNL     1      -4.451  14.841  69.007  1.00  0.00     0.000 HD 
BRANCH  24  26
HETATM   26  C   UNL     1      -6.409  15.608  69.026  1.00  0.00    -0.123 A  
HETATM   27  C   UNL     1      -6.011  16.866  68.583  1.00  0.00    -0.146 A  
HETATM   28  C   UNL     1      -6.965  17.864  68.388  1.00  0.00    -0.234 A  
HETATM   29  C   UNL     1      -8.312  17.640  68.700  1.00  0.00    -0.267 A  
HETATM   30 CL   UNL     1      -9.381  18.969  68.436  1.00  0.00    -0.384 Cl 
HETATM   31  C   UNL     1      -8.726  16.399  69.198  1.00  0.00    -0.185 A  
HETATM   32  C   UNL     1      -7.758  15.373  69.321  1.00  0.00    -0.221 A  
HETATM   33  C   UNL     1     -10.132  16.094  69.652  1.00  0.00    -0.212 C  
HETATM   34  F   UNL     1     -10.697  15.080  68.939  1.00  0.00    -0.213 F  
HETATM   35  F   UNL     1     -10.156  15.680  70.955  1.00  0.00    -0.081 F  
HETATM   36  F   UNL     1     -11.022  17.120  69.594  1.00  0.00    -0.258 F  
ENDBRANCH  24  26
ENDBRANCH  22  24
ENDBRANCH  20  22
ENDBRANCH  17  20
ENDBRANCH  12  13
ENDBRANCH   8  12
ENDBRANCH   3   6
TORSDOF 7
ENDMDL
MODEL      317
REMARK 921   NORMALIZED FREE ENERGY PREDICTED BY IDOCK:   -3.34 KCAL/MOL
REMARK 922        TOTAL FREE ENERGY PREDICTED BY IDOCK:   -6.69 KCAL/MOL
REMARK 923 INTER-LIGAND FREE ENERGY PREDICTED BY IDOCK:   -6.04 KCAL/MOL
REMARK 924 INTRA-LIGAND FREE ENERGY PREDICTED BY IDOCK:   -0.66 KCAL/MOL
REMARK 927      BINDING AFFINITY PREDICTED BY RF-SCORE:    0.00 PKD
ROOT
HETATM    1  C   UNL     1      -6.490  10.209  65.425  1.00  0.00    -0.117 C  
HETATM    2  N   UNL     1      -7.096  11.384  65.987  1.00  0.00    -0.367 N  
HETATM    3  C   UNL     1      -6.522  12.042  67.054  1.00  0.00    -0.114 C  
HETATM    4  H   UNL     1      -7.967  11.739  65.590  1.00  0.00     0.000 HD 
HETATM    5  O   UNL     1      -5.453  11.714  67.557  1.00  0.00    -0.052 OA 
ENDROOT
BRANCH   3   6
HETATM    6  C   UNL     1      -7.304  13.205  67.581  1.00  0.00    -0.154 A  
HETATM    7  C   UNL     1      -8.689  13.116  67.612  1.00  0.00    -0.192 A  
HETATM    8  C   UNL     1      -9.398  14.186  68.142  1.00  0.00    -0.206 A  
HETATM    9  C   UNL     1      -8.713  15.323  68.560  1.00  0.00    -0.176 A  
HETATM   10  N   UNL     1      -6.600  14.292  68.002  1.00  0.00    -0.134 NA 
HETATM   11  C   UNL     1      -7.329  15.327  68.474  1.00  0.00    -0.119 A  
BRANCH   8  12
HETATM   12  O   UNL     1     -10.771  14.229  68.210  1.00  0.00    -0.237 OA 
BRANCH  12  13
HETATM   13  C   UNL     1     -11.454  13.203  68.827  1.00  0.00    -0.307 A  
HETATM   14  C   UNL     1     -12.073  13.514  70.040  1.00  0.00    -0.411 A  
HETATM   15  C   UNL     1     -12.736  12.516  70.749  1.00  0.00    -0.125 A  
HETATM   16  F   UNL     1     -13.316  12.818  71.920  1.00  0.00    -0.491 F  
HETATM   17  C   UNL     1     -12.742  11.195  70.297  1.00  0.00    -0.139 A  
HETATM   18  C   UNL     1     -11.476  11.886  68.353  1.00  0.00    -0.357 A  
HETATM   19  C   UNL     1     -12.125  10.884  69.083  1.00  0.00    -0.292 A  
BRANCH  17  20
HETATM   20  N   UNL     1     -13.358  10.198  71.087  1.00  0.00    -0.351 N  
HETATM   21  H   UNL     1     -14.264   9.818  70.810  1.00  0.00     0.000 HD 
BRANCH  20  22
HETATM   22  C   UNL     1     -12.737   9.734  72.238  1.00  0.00    -0.251 C  
HETATM   23  O   UNL     1     -13.308   9.519  73.305  1.00  0.00     0.356 OA 
BRANCH  22  24
HETATM   24  N   UNL     1     -11.382   9.554  72.029  1.00  0.00    -0.094 N  
HETATM   25  H   UNL     1     -10.782  10.373  71.930  1.00  0.00     0.000 HD 
BRANCH  24  26
HETATM   26  C   UNL     1     -10.810   8.270  71.948  1.00  0.00    -0.283 A  
HETATM   27  C   UNL     1      -9.727   8.078  71.096  1.00  0.00    -0.190 A  
HETATM   28  C   UNL     1      -9.143   6.816  70.994  1.00  0.00    -0.156 A  
HETATM   29  C   UNL     1      -9.677   5.719  71.684  1.00  0.00    -0.161 A  
HETATM   30 CL   UNL     1      -8.873   4.212  71.447  1.00  0.00    -0.137 Cl 
HETATM   31  C   UNL     1     -10.799   5.880  72.505  1.00  0.00    -0.289 A  
HETATM   32  C   UNL     1     -11.336   7.182  72.656  1.00  0.00    -0.306 A  
HETATM   33  C   UNL     1     -11.502   4.746  73.210  1.00  0.00    -0.273 C  
HETATM   34  F   UNL     1     -11.504   4.900  74.564  1.00  0.00     0.374 F  
HETATM   35  F   UNL     1     -12.819   4.676  72.850  1.00  0.00    -0.040 F  
HETATM   36  F   UNL     1     -11.012   3.498  72.986  1.00  0.00    -0.250 F  
ENDBRANCH  24  26
ENDBRANCH  22  24
ENDBRANCH  20  22
ENDBRANCH  17  20
ENDBRANCH  12  13
ENDBRANCH   8  12
ENDBRANCH   3   6
TORSDOF 7
ENDMDL
MODEL      318
REMARK 921   NORMALIZED FREE ENERGY PREDICTED BY IDOCK:   -3.32 KCAL/MOL
REMARK 922        TOTAL FREE ENERGY PREDICTED BY IDOCK:   -6.67 KCAL/MOL
REMARK 923 INTER-LIGAND FREE ENERGY PREDICTED BY IDOCK:   -6.36 KCAL/MOL
REMARK 924 INTRA-LIGAND FREE ENERGY PREDICTED BY IDOCK:   -0.32 KCAL/MOL
REMARK 927      BINDING AFFINITY PREDICTED BY RF-SCORE:    0.00 PKD
ROOT
HETATM    1  C   UNL     1     -10.811  20.841  68.884  1.00  0.00     1.042 C  
HETATM    2  N   UNL     1      -9.668  20.175  68.323  1.00  0.00    -0.300 N  
HETATM    3  C   UNL     1      -9.805  19.274  67.289  1.00  0.00    -0.338 C  
HETATM    4  H   UNL     1      -8.740  20.371  68.696  1.00  0.00     0.000 HD 
HETATM    5  O   UNL     1     -10.876  19.019  66.748  1.00  0.00    -0.394 OA 
ENDROOT
BRANCH   3   6
HETATM    6  C   UNL     1      -8.538  18.603  66.857  1.00  0.00    -0.281 A  
HETATM    7  C   UNL     1      -8.409  17.235  67.055  1.00  0.00    -0.231 A  
HETATM    8  C   UNL     1      -7.245  16.620  66.613  1.00  0.00    -0.241 A  
HETATM    9  C   UNL     1      -6.233  17.392  66.051  1.00  0.00    -0.120 A  
HETATM   10  N   UNL     1      -7.577  19.385  66.291  1.00  0.00    -0.274 NA 
HETATM   11  C   UNL     1      -6.445  18.755  65.909  1.00  0.00    -0.235 A  
BRANCH   8  12
HETATM   12  O   UNL     1      -6.988  15.277  66.767  1.00  0.00    -0.080 OA 
BRANCH  12  13
HETATM   13  C   UNL     1      -7.999  14.434  67.175  1.00  0.00    -0.119 A  
HETATM   14  C   UNL     1      -9.208  14.538  66.483  1.00  0.00    -0.282 A  
HETATM   15  C   UNL     1     -10.292  13.757  66.873  1.00  0.00    -0.266 A  
HETATM   16  F   UNL     1     -11.455  13.873  66.213  1.00  0.00    -0.309 F  
HETATM   17  C   UNL     1     -10.209  12.913  67.982  1.00  0.00    -0.229 A  
HETATM   18  C   UNL     1      -7.899  13.572  68.274  1.00  0.00    -0.145 A  
HETATM   19  C   UNL     1      -9.000  12.807  68.673  1.00  0.00     0.048 A  
BRANCH  17  20
HETATM   20  N   UNL     1     -11.358  12.198  68.392  1.00  0.00    -0.260 N  
HETATM   21  H   UNL     1     -12.110  12.683  68.881  1.00  0.00     0.000 HD 
BRANCH  20  22
HETATM   22  C   UNL     1     -11.467  10.839  68.130  1.00  0.00    -0.271 C  
HETATM   23  O   UNL     1     -11.377  10.330  67.016  1.00  0.00    -0.177 OA 
BRANCH  22  24
HETATM   24  N   UNL     1     -11.701  10.130  69.294  1.00  0.00    -0.490 N  
HETATM   25  H   UNL     1     -12.656  10.045  69.639  1.00  0.00     0.000 HD 
BRANCH  24  26
HETATM   26  C   UNL     1     -10.654   9.524  70.015  1.00  0.00    -0.244 A  
HETATM   27  C   UNL     1      -9.345   9.743  69.596  1.00  0.00    -0.237 A  
HETATM   28  C   UNL     1      -8.290   9.152  70.290  1.00  0.00    -0.187 A  
HETATM   29  C   UNL     1      -8.532   8.282  71.360  1.00  0.00    -0.138 A  
HETATM   30 CL   UNL     1      -7.136   7.600  72.111  1.00  0.00    -0.063 Cl 
HETATM   31  C   UNL     1      -9.843   8.006  71.764  1.00  0.00    -0.240 A  
HETATM   32  C   UNL     1     -10.901   8.671  71.097  1.00  0.00    -0.320 A  
HETATM   33  C   UNL     1     -10.207   7.012  72.840  1.00  0.00    -0.215 C  
HETATM   34  F   UNL     1     -10.878   7.591  73.874  1.00  0.00    -0.375 F  
HETATM   35  F   UNL     1     -11.044   6.044  72.359  1.00  0.00    -0.254 F  
HETATM   36  F   UNL     1      -9.177   6.333  73.409  1.00  0.00    -0.132 F  
ENDBRANCH  24  26
ENDBRANCH  22  24
ENDBRANCH  20  22
ENDBRANCH  17  20
ENDBRANCH  12  13
ENDBRANCH   8  12
ENDBRANCH   3   6
TORSDOF 7
ENDMDL
MODEL      319
REMARK 921   NORMALIZED FREE ENERGY PREDICTED BY IDOCK:   -3.29 KCAL/MOL
REMARK 922        TOTAL FREE ENERGY PREDICTED BY IDOCK:   -6.63 KCAL/MOL
REMARK 923 INTER-LIGAND FREE ENERGY PREDICTED BY IDOCK:   -6.75 KCAL/MOL
REMARK 924 INTRA-LIGAND FREE ENERGY PREDICTED BY IDOCK:    0.12 KCAL/MOL
REMARK 927      BINDING AFFINITY PREDICTED BY RF-SCORE:    0.00 PKD
ROOT
HETATM    1  C   UNL     1      -6.333  19.330  65.680  1.00  0.00    -0.233 C  
HETATM    2  N   UNL     1      -7.401  18.510  66.181  1.00  0.00    -0.257 N  
HETATM    3  C   UNL     1      -8.286  18.989  67.124  1.00  0.00    -0.269 C  
HETATM    4  H   UNL     1      -7.508  17.558  65.832  1.00  0.00     0.000 HD 
HETATM    5  O   UNL     1      -8.261  20.136  67.556  1.00  0.00    -0.317 OA 
ENDROOT
BRANCH   3   6
HETATM    6  C   UNL     1      -9.300  17.999  67.606  1.00  0.00    -0.259 A  
HETATM    7  C   UNL     1     -10.009  17.262  66.667  1.00  0.00    -0.296 A  
HETATM    8  C   UNL     1     -10.917  16.319  67.131  1.00  0.00    -0.114 A  
HETATM    9  C   UNL     1     -11.130  16.187  68.499  1.00  0.00    -0.357 A  
HETATM   10  N   UNL     1      -9.467  17.880  68.952  1.00  0.00    -0.231 NA 
HETATM   11  C   UNL     1     -10.386  16.979  69.361  1.00  0.00    -0.230 A  
BRANCH   8  12
HETATM   12  O   UNL     1     -11.694  15.541  66.304  1.00  0.00     0.079 OA 
BRANCH  12  13
HETATM   13  C   UNL     1     -11.152  14.415  65.721  1.00  0.00    -0.316 A  
HETATM   14  C   UNL     1     -11.883  13.848  64.676  1.00  0.00    -0.428 A  
HETATM   15  C   UNL     1     -11.427  12.680  64.073  1.00  0.00    -0.411 A  
HETATM   16  F   UNL     1     -12.141  12.131  63.078  1.00  0.00    -0.475 F  
HETATM   17  C   UNL     1     -10.280  12.031  64.536  1.00  0.00    -0.286 A  
HETATM   18  C   UNL     1      -9.987  13.786  66.177  1.00  0.00    -0.318 A  
HETATM   19  C   UNL     1      -9.547  12.599  65.581  1.00  0.00    -0.076 A  
BRANCH  17  20
HETATM   20  N   UNL     1      -9.896  10.804  63.949  1.00  0.00    -0.305 N  
HETATM   21  H   UNL     1      -9.852  10.720  62.933  1.00  0.00     0.000 HD 
BRANCH  20  22
HETATM   22  C   UNL     1      -9.579   9.714  64.748  1.00  0.00    -0.127 C  
HETATM   23  O   UNL     1      -9.861   9.613  65.939  1.00  0.00    -0.258 OA 
BRANCH  22  24
HETATM   24  N   UNL     1      -8.892   8.757  64.025  1.00  0.00    -0.419 N  
HETATM   25  H   UNL     1      -8.920   8.789  63.006  1.00  0.00     0.000 HD 
BRANCH  24  26
HETATM   26  C   UNL     1      -8.155   7.738  64.660  1.00  0.00    -0.123 A  
HETATM   27  C   UNL     1      -7.585   6.742  63.873  1.00  0.00    -0.105 A  
HETATM   28  C   UNL     1      -6.853   5.720  64.476  1.00  0.00    -0.050 A  
HETATM   29  C   UNL     1      -6.742   5.641  65.870  1.00  0.00    -0.056 A  
HETATM   30 CL   UNL     1      -5.831   4.311  66.483  1.00  0.00    -0.022 Cl 
HETATM   31  C   UNL     1      -7.352   6.604  66.682  1.00  0.00    -0.078 A  
HETATM   32  C   UNL     1      -8.030   7.676  66.053  1.00  0.00    -0.112 A  
HETATM   33  C   UNL     1      -7.370   6.552  68.190  1.00  0.00    -0.090 C  
HETATM   34  F   UNL     1      -6.771   7.638  68.753  1.00  0.00    -0.047 F  
HETATM   35  F   UNL     1      -8.649   6.550  68.673  1.00  0.00    -0.121 F  
HETATM   36  F   UNL     1      -6.778   5.472  68.765  1.00  0.00    -0.045 F  
ENDBRANCH  24  26
ENDBRANCH  22  24
ENDBRANCH  20  22
ENDBRANCH  17  20
ENDBRANCH  12  13
ENDBRANCH   8  12
ENDBRANCH   3   6
TORSDOF 7
ENDMDL
MODEL      320
REMARK 921   NORMALIZED FREE ENERGY PREDICTED BY IDOCK:   -3.25 KCAL/MOL
REMARK 922        TOTAL FREE ENERGY PREDICTED BY IDOCK:   -6.57 KCAL/MOL
REMARK 923 INTER-LIGAND FREE ENERGY PREDICTED BY IDOCK:   -5.99 KCAL/MOL
REMARK 924 INTRA-LIGAND FREE ENERGY PREDICTED BY IDOCK:   -0.58 KCAL/MOL
REMARK 927      BINDING AFFINITY PREDICTED BY RF-SCORE:    0.00 PKD
ROOT
HETATM    1  C   UNL     1     -10.838   3.912  62.340  1.00  0.00    -0.127 C  
HETATM    2  N   UNL     1     -10.412   4.091  63.700  1.00  0.00    -0.397 N  
HETATM    3  C   UNL     1      -9.095   4.365  64.005  1.00  0.00    -0.143 C  
HETATM    4  H   UNL     1     -11.094   4.015  64.454  1.00  0.00     0.000 HD 
HETATM    5  O   UNL     1      -8.222   4.524  63.158  1.00  0.00    -0.086 OA 
ENDROOT
BRANCH   3   6
HETATM    6  C   UNL     1      -8.785   4.451  65.467  1.00  0.00    -0.123 A  
HETATM    7  C   UNL     1      -8.140   5.584  65.944  1.00  0.00    -0.110 A  
HETATM    8  C   UNL     1      -7.896   5.668  67.309  1.00  0.00    -0.101 A  
HETATM    9  C   UNL     1      -8.242   4.602  68.134  1.00  0.00    -0.091 A  
HETATM   10  N   UNL     1      -9.157   3.400  66.249  1.00  0.00    -0.148 NA 
HETATM   11  C   UNL     1      -8.868   3.504  67.564  1.00  0.00    -0.126 A  
BRANCH   8  12
HETATM   12  O   UNL     1      -7.249   6.727  67.902  1.00  0.00    -0.086 OA 
BRANCH  12  13
HETATM   13  C   UNL     1      -7.978   7.816  68.331  1.00  0.00    -0.122 A  
HETATM   14  C   UNL     1      -8.143   7.944  69.711  1.00  0.00    -0.116 A  
HETATM   15  C   UNL     1      -8.912   8.988  70.217  1.00  0.00    -0.198 A  
HETATM   16  F   UNL     1      -9.079   9.097  71.544  1.00  0.00    -0.293 F  
HETATM   17  C   UNL     1      -9.570   9.876  69.364  1.00  0.00    -0.215 A  
HETATM   18  C   UNL     1      -8.614   8.716  67.468  1.00  0.00    -0.135 A  
HETATM   19  C   UNL     1      -9.403   9.749  67.983  1.00  0.00    -0.138 A  
BRANCH  17  20
HETATM   20  N   UNL     1     -10.406  10.873  69.917  1.00  0.00    -0.418 N  
HETATM   21  H   UNL     1     -10.006  11.765  70.210  1.00  0.00     0.000 HD 
BRANCH  20  22
HETATM   22  C   UNL     1     -11.767  10.644  70.064  1.00  0.00    -0.324 C  
HETATM   23  O   UNL     1     -12.259   9.807  70.817  1.00  0.00    -0.286 OA 
BRANCH  22  24
HETATM   24  N   UNL     1     -12.499  11.477  69.240  1.00  0.00    -0.034 N  
HETATM   25  H   UNL     1     -13.516  11.487  69.321  1.00  0.00     0.000 HD 
BRANCH  24  26
HETATM   26  C   UNL     1     -11.878  12.313  68.293  1.00  0.00    -0.310 A  
HETATM   27  C   UNL     1     -12.254  12.199  66.958  1.00  0.00     0.331 A  
HETATM   28  C   UNL     1     -11.652  13.012  65.999  1.00  0.00    -0.409 A  
HETATM   29  C   UNL     1     -10.621  13.894  66.349  1.00  0.00    -0.280 A  
HETATM   30 CL   UNL     1      -9.948  14.820  65.059  1.00  0.00    -0.307 Cl 
HETATM   31  C   UNL     1     -10.191  13.987  67.677  1.00  0.00    -0.241 A  
HETATM   32  C   UNL     1     -10.862  13.208  68.652  1.00  0.00    -0.287 A  
HETATM   33  C   UNL     1      -9.029  14.833  68.135  1.00  0.00    -0.179 C  
HETATM   34  F   UNL     1      -9.402  15.775  69.046  1.00  0.00    -0.184 F  
HETATM   35  F   UNL     1      -8.078  14.076  68.761  1.00  0.00    -0.136 F  
HETATM   36  F   UNL     1      -8.356  15.510  67.167  1.00  0.00    -0.169 F  
ENDBRANCH  24  26
ENDBRANCH  22  24
ENDBRANCH  20  22
ENDBRANCH  17  20
ENDBRANCH  12  13
ENDBRANCH   8  12
ENDBRANCH   3   6
TORSDOF 7
ENDMDL
MODEL      321
REMARK 921   NORMALIZED FREE ENERGY PREDICTED BY IDOCK:   -3.23 KCAL/MOL
REMARK 922        TOTAL FREE ENERGY PREDICTED BY IDOCK:   -6.54 KCAL/MOL
REMARK 923 INTER-LIGAND FREE ENERGY PREDICTED BY IDOCK:   -5.83 KCAL/MOL
REMARK 924 INTRA-LIGAND FREE ENERGY PREDICTED BY IDOCK:   -0.71 KCAL/MOL
REMARK 927      BINDING AFFINITY PREDICTED BY RF-SCORE:    0.00 PKD
ROOT
HETATM    1  C   UNL     1      -6.581  12.794  69.990  1.00  0.00     0.221 C  
HETATM    2  N   UNL     1      -7.581  13.090  69.001  1.00  0.00    -0.323 N  
HETATM    3  C   UNL     1      -8.116  14.356  68.884  1.00  0.00    -0.095 C  
HETATM    4  H   UNL     1      -7.901  12.352  68.374  1.00  0.00     0.000 HD 
HETATM    5  O   UNL     1      -7.751  15.312  69.561  1.00  0.00    -0.212 OA 
ENDROOT
BRANCH   3   6
HETATM    6  C   UNL     1      -9.200  14.497  67.861  1.00  0.00    -0.196 A  
HETATM    7  C   UNL     1      -9.631  13.362  67.189  1.00  0.00    -0.241 A  
HETATM    8  C   UNL     1     -10.666  13.502  66.273  1.00  0.00    -0.288 A  
HETATM    9  C   UNL     1     -11.187  14.766  66.015  1.00  0.00    -0.341 A  
HETATM   10  N   UNL     1      -9.702  15.745  67.650  1.00  0.00    -0.222 NA 
HETATM   11  C   UNL     1     -10.681  15.845  66.725  1.00  0.00    -0.281 A  
BRANCH   8  12
HETATM   12  O   UNL     1     -11.169  12.461  65.528  1.00  0.00    -0.302 OA 
BRANCH  12  13
HETATM   13  C   UNL     1     -10.323  11.460  65.099  1.00  0.00    -0.290 A  
HETATM   14  C   UNL     1      -9.472  10.916  66.062  1.00  0.00    -0.235 A  
HETATM   15  C   UNL     1      -8.551   9.940  65.692  1.00  0.00    -0.145 A  
HETATM   16  F   UNL     1      -7.725   9.431  66.619  1.00  0.00    -0.094 F  
HETATM   17  C   UNL     1      -8.425   9.537  64.361  1.00  0.00    -0.181 A  
HETATM   18  C   UNL     1     -10.221  11.045  63.766  1.00  0.00    -0.425 A  
HETATM   19  C   UNL     1      -9.278  10.079  63.398  1.00  0.00    -0.317 A  
BRANCH  17  20
HETATM   20  N   UNL     1      -7.423   8.601  64.016  1.00  0.00    -0.113 N  
HETATM   21  H   UNL     1      -6.444   8.886  64.007  1.00  0.00     0.000 HD 
BRANCH  20  22
HETATM   22  C   UNL     1      -7.767   7.296  63.688  1.00  0.00    -0.120 C  
HETATM   23  O   UNL     1      -8.378   6.967  62.674  1.00  0.00    -0.062 OA 
BRANCH  22  24
HETATM   24  N   UNL     1      -7.338   6.414  64.661  1.00  0.00    -0.068 N  
HETATM   25  H   UNL     1      -6.468   5.902  64.518  1.00  0.00     0.000 HD 
BRANCH  24  26
HETATM   26  C   UNL     1      -8.071   6.205  65.845  1.00  0.00    -0.121 A  
HETATM   27  C   UNL     1      -9.350   5.667  65.748  1.00  0.00    -0.078 A  
HETATM   28  C   UNL     1     -10.100   5.452  66.904  1.00  0.00    -0.240 A  
HETATM   29  C   UNL     1      -9.610   5.837  68.159  1.00  0.00    -0.116 A  
HETATM   30 CL   UNL     1     -10.651   5.537  69.501  1.00  0.00    -0.376 Cl 
HETATM   31  C   UNL     1      -8.347   6.428  68.273  1.00  0.00    -0.116 A  
HETATM   32  C   UNL     1      -7.568   6.572  67.099  1.00  0.00    -0.096 A  
HETATM   33  C   UNL     1      -7.775   6.962  69.564  1.00  0.00    -0.104 C  
HETATM   34  F   UNL     1      -6.614   6.339  69.912  1.00  0.00    -0.040 F  
HETATM   35  F   UNL     1      -7.459   8.288  69.457  1.00  0.00    -0.076 F  
HETATM   36  F   UNL     1      -8.575   6.880  70.659  1.00  0.00    -0.133 F  
ENDBRANCH  24  26
ENDBRANCH  22  24
ENDBRANCH  20  22
ENDBRANCH  17  20
ENDBRANCH  12  13
ENDBRANCH   8  12
ENDBRANCH   3   6
TORSDOF 7
ENDMDL
MODEL      322
REMARK 921   NORMALIZED FREE ENERGY PREDICTED BY IDOCK:   -3.18 KCAL/MOL
REMARK 922        TOTAL FREE ENERGY PREDICTED BY IDOCK:   -6.47 KCAL/MOL
REMARK 923 INTER-LIGAND FREE ENERGY PREDICTED BY IDOCK:   -5.80 KCAL/MOL
REMARK 924 INTRA-LIGAND FREE ENERGY PREDICTED BY IDOCK:   -0.67 KCAL/MOL
REMARK 927      BINDING AFFINITY PREDICTED BY RF-SCORE:    0.00 PKD
ROOT
HETATM    1  C   UNL     1     -12.108  14.156  67.867  1.00  0.00    -0.274 C  
HETATM    2  N   UNL     1     -11.224  13.487  66.953  1.00  0.00    -0.303 N  
HETATM    3  C   UNL     1     -11.710  12.624  65.994  1.00  0.00    -0.417 C  
HETATM    4  H   UNL     1     -10.220  13.653  67.015  1.00  0.00     0.000 HD 
HETATM    5  O   UNL     1     -12.904  12.408  65.818  1.00  0.00    -0.205 OA 
ENDROOT
BRANCH   3   6
HETATM    6  C   UNL     1     -10.667  11.943  65.163  1.00  0.00    -0.291 A  
HETATM    7  C   UNL     1      -9.734  11.135  65.798  1.00  0.00    -0.266 A  
HETATM    8  C   UNL     1      -8.798  10.478  65.010  1.00  0.00    -0.191 A  
HETATM    9  C   UNL     1      -8.785  10.696  63.635  1.00  0.00    -0.146 A  
HETATM   10  N   UNL     1     -10.698  12.161  63.819  1.00  0.00    -0.395 NA 
HETATM   11  C   UNL     1      -9.748  11.534  63.092  1.00  0.00    -0.390 A  
BRANCH   8  12
HETATM   12  O   UNL     1      -7.810   9.667  65.518  1.00  0.00    -0.106 OA 
BRANCH  12  13
HETATM   13  C   UNL     1      -8.149   8.459  66.090  1.00  0.00    -0.106 A  
HETATM   14  C   UNL     1      -9.501   8.272  66.382  1.00  0.00    -0.287 A  
HETATM   15  C   UNL     1      -9.912   7.100  67.010  1.00  0.00    -0.217 A  
HETATM   16  F   UNL     1     -11.211   6.932  67.301  1.00  0.00    -0.390 F  
HETATM   17  C   UNL     1      -8.987   6.133  67.406  1.00  0.00    -0.112 A  
HETATM   18  C   UNL     1      -7.215   7.485  66.461  1.00  0.00    -0.076 A  
HETATM   19  C   UNL     1      -7.634   6.319  67.112  1.00  0.00    -0.096 A  
BRANCH  17  20
HETATM   20  N   UNL     1      -9.437   4.995  68.113  1.00  0.00    -0.126 N  
HETATM   21  H   UNL     1      -9.406   4.076  67.669  1.00  0.00     0.000 HD 
BRANCH  20  22
HETATM   22  C   UNL     1      -9.923   5.120  69.408  1.00  0.00    -0.222 C  
HETATM   23  O   UNL     1     -11.039   5.542  69.699  1.00  0.00    -0.249 OA 
BRANCH  22  24
HETATM   24  N   UNL     1      -8.977   4.716  70.330  1.00  0.00    -0.097 N  
HETATM   25  H   UNL     1      -8.782   3.721  70.438  1.00  0.00     0.000 HD 
BRANCH  24  26
HETATM   26  C   UNL     1      -8.275   5.642  71.125  1.00  0.00    -0.121 A  
HETATM   27  C   UNL     1      -8.401   5.561  72.508  1.00  0.00    -0.114 A  
HETATM   28  C   UNL     1      -7.720   6.468  73.319  1.00  0.00    -0.092 A  
HETATM   29  C   UNL     1      -6.965   7.507  72.758  1.00  0.00    -0.071 A  
HETATM   30 CL   UNL     1      -6.197   8.572  73.876  1.00  0.00    -0.133 Cl 
HETATM   31  C   UNL     1      -6.868   7.638  71.369  1.00  0.00    -0.049 A  
HETATM   32  C   UNL     1      -7.505   6.666  70.559  1.00  0.00    -0.087 A  
HETATM   33  C   UNL     1      -6.160   8.775  70.673  1.00  0.00    -0.035 C  
HETATM   34  F   UNL     1      -5.136   8.343  69.885  1.00  0.00    -0.022 F  
HETATM   35  F   UNL     1      -7.005   9.448  69.834  1.00  0.00    -0.051 F  
HETATM   36  F   UNL     1      -5.624   9.734  71.473  1.00  0.00    -0.066 F  
ENDBRANCH  24  26
ENDBRANCH  22  24
ENDBRANCH  20  22
ENDBRANCH  17  20
ENDBRANCH  12  13
ENDBRANCH   8  12
ENDBRANCH   3   6
TORSDOF 7
ENDMDL
MODEL      323
REMARK 921   NORMALIZED FREE ENERGY PREDICTED BY IDOCK:   -3.18 KCAL/MOL
REMARK 922        TOTAL FREE ENERGY PREDICTED BY IDOCK:   -6.47 KCAL/MOL
REMARK 923 INTER-LIGAND FREE ENERGY PREDICTED BY IDOCK:   -4.73 KCAL/MOL
REMARK 924 INTRA-LIGAND FREE ENERGY PREDICTED BY IDOCK:   -1.74 KCAL/MOL
REMARK 927      BINDING AFFINITY PREDICTED BY RF-SCORE:    0.00 PKD
ROOT
HETATM    1  C   UNL     1     -12.780   8.243  72.118  1.00  0.00    -0.329 C  
HETATM    2  N   UNL     1     -11.381   8.057  71.847  1.00  0.00    -0.267 N  
HETATM    3  C   UNL     1     -10.512   7.647  72.836  1.00  0.00    -0.336 C  
HETATM    4  H   UNL     1     -11.025   8.230  70.907  1.00  0.00     0.000 HD 
HETATM    5  O   UNL     1     -10.865   7.368  73.977  1.00  0.00    -0.176 OA 
ENDROOT
BRANCH   3   6
HETATM    6  C   UNL     1      -9.074   7.569  72.427  1.00  0.00    -0.136 A  
HETATM    7  C   UNL     1      -8.685   6.563  71.553  1.00  0.00    -0.132 A  
HETATM    8  C   UNL     1      -7.356   6.529  71.151  1.00  0.00    -0.080 A  
HETATM    9  C   UNL     1      -6.456   7.450  71.677  1.00  0.00    -0.039 A  
HETATM   10  N   UNL     1      -8.225   8.500  72.944  1.00  0.00    -0.387 NA 
HETATM   11  C   UNL     1      -6.934   8.409  72.557  1.00  0.00    -0.082 A  
BRANCH   8  12
HETATM   12  O   UNL     1      -6.842   5.573  70.306  1.00  0.00    -0.049 OA 
BRANCH  12  13
HETATM   13  C   UNL     1      -6.947   5.743  68.942  1.00  0.00    -0.068 A  
HETATM   14  C   UNL     1      -7.813   4.873  68.276  1.00  0.00    -0.082 A  
HETATM   15  C   UNL     1      -7.931   4.948  66.891  1.00  0.00    -0.103 A  
HETATM   16  F   UNL     1      -8.754   4.100  66.255  1.00  0.00    -0.111 F  
HETATM   17  C   UNL     1      -7.154   5.840  66.150  1.00  0.00    -0.071 A  
HETATM   18  C   UNL     1      -6.181   6.658  68.209  1.00  0.00    -0.030 A  
HETATM   19  C   UNL     1      -6.289   6.712  66.815  1.00  0.00    -0.042 A  
BRANCH  17  20
HETATM   20  N   UNL     1      -7.246   5.828  64.739  1.00  0.00    -0.063 N  
HETATM   21  H   UNL     1      -7.319   4.940  64.242  1.00  0.00     0.000 HD 
BRANCH  20  22
HETATM   22  C   UNL     1      -7.239   7.020  64.027  1.00  0.00    -0.069 C  
HETATM   23  O   UNL     1      -6.234   7.549  63.557  1.00  0.00    -0.052 OA 
BRANCH  22  24
HETATM   24  N   UNL     1      -8.515   7.541  63.924  1.00  0.00    -0.356 N  
HETATM   25  H   UNL     1      -9.222   7.023  63.403  1.00  0.00     0.000 HD 
BRANCH  24  26
HETATM   26  C   UNL     1      -8.864   8.768  64.520  1.00  0.00     0.033 A  
HETATM   27  C   UNL     1      -8.561   9.945  63.844  1.00  0.00    -0.202 A  
HETATM   28  C   UNL     1      -8.892  11.174  64.413  1.00  0.00     0.095 A  
HETATM   29  C   UNL     1      -9.463  11.244  65.690  1.00  0.00    -0.229 A  
HETATM   30 CL   UNL     1      -9.797  12.829  66.284  1.00  0.00    -0.264 Cl 
HETATM   31  C   UNL     1      -9.727  10.074  66.410  1.00  0.00    -0.266 A  
HETATM   32  C   UNL     1      -9.453   8.831  65.789  1.00  0.00    -0.239 A  
HETATM   33  C   UNL     1     -10.249  10.049  67.826  1.00  0.00    -0.192 C  
HETATM   34  F   UNL     1     -11.447   9.409  67.925  1.00  0.00    -0.094 F  
HETATM   35  F   UNL     1      -9.403   9.369  68.657  1.00  0.00    -0.138 F  
HETATM   36  F   UNL     1     -10.430  11.256  68.424  1.00  0.00    -0.172 F  
ENDBRANCH  24  26
ENDBRANCH  22  24
ENDBRANCH  20  22
ENDBRANCH  17  20
ENDBRANCH  12  13
ENDBRANCH   8  12
ENDBRANCH   3   6
TORSDOF 7
ENDMDL
MODEL      324
REMARK 921   NORMALIZED FREE ENERGY PREDICTED BY IDOCK:   -3.16 KCAL/MOL
REMARK 922        TOTAL FREE ENERGY PREDICTED BY IDOCK:   -6.44 KCAL/MOL
REMARK 923 INTER-LIGAND FREE ENERGY PREDICTED BY IDOCK:   -5.65 KCAL/MOL
REMARK 924 INTRA-LIGAND FREE ENERGY PREDICTED BY IDOCK:   -0.79 KCAL/MOL
REMARK 927      BINDING AFFINITY PREDICTED BY RF-SCORE:    0.00 PKD
ROOT
HETATM    1  C   UNL     1     -10.812  20.844  68.885  1.00  0.00     1.170 C  
HETATM    2  N   UNL     1      -9.676  20.170  68.319  1.00  0.00    -0.300 N  
HETATM    3  C   UNL     1      -9.823  19.271  67.284  1.00  0.00    -0.338 C  
HETATM    4  H   UNL     1      -8.744  20.360  68.689  1.00  0.00     0.000 HD 
HETATM    5  O   UNL     1     -10.898  19.024  66.748  1.00  0.00    -0.394 OA 
ENDROOT
BRANCH   3   6
HETATM    6  C   UNL     1      -8.562  18.591  66.848  1.00  0.00    -0.278 A  
HETATM    7  C   UNL     1      -8.449  17.220  67.028  1.00  0.00    -0.240 A  
HETATM    8  C   UNL     1      -7.291  16.598  66.581  1.00  0.00    -0.255 A  
HETATM    9  C   UNL     1      -6.269  17.365  66.031  1.00  0.00    -0.120 A  
HETATM   10  N   UNL     1      -7.592  19.370  66.294  1.00  0.00    -0.274 NA 
HETATM   11  C   UNL     1      -6.466  18.732  65.906  1.00  0.00    -0.235 A  
BRANCH   8  12
HETATM   12  O   UNL     1      -7.049  15.250  66.719  1.00  0.00    -0.094 OA 
BRANCH  12  13
HETATM   13  C   UNL     1      -8.073  14.411  67.102  1.00  0.00    -0.145 A  
HETATM   14  C   UNL     1      -9.273  14.540  66.400  1.00  0.00    -0.264 A  
HETATM   15  C   UNL     1     -10.370  13.765  66.765  1.00  0.00    -0.272 A  
HETATM   16  F   UNL     1     -11.524  13.903  66.096  1.00  0.00    -0.317 F  
HETATM   17  C   UNL     1     -10.308  12.902  67.861  1.00  0.00    -0.231 A  
HETATM   18  C   UNL     1      -7.994  13.531  68.188  1.00  0.00    -0.149 A  
HETATM   19  C   UNL     1      -9.107  12.771  68.563  1.00  0.00    -0.049 A  
BRANCH  17  20
HETATM   20  N   UNL     1     -11.468  12.192  68.248  1.00  0.00    -0.282 N  
HETATM   21  H   UNL     1     -12.218  12.676  68.742  1.00  0.00     0.000 HD 
BRANCH  20  22
HETATM   22  C   UNL     1     -11.591  10.840  67.958  1.00  0.00    -0.163 C  
HETATM   23  O   UNL     1     -11.494  10.353  66.834  1.00  0.00    -0.110 OA 
BRANCH  22  24
HETATM   24  N   UNL     1     -11.849  10.112  69.104  1.00  0.00    -0.495 N  
HETATM   25  H   UNL     1     -12.810  10.034  69.437  1.00  0.00     0.000 HD 
BRANCH  24  26
HETATM   26  C   UNL     1     -10.820   9.475  69.823  1.00  0.00    -0.243 A  
HETATM   27  C   UNL     1     -10.984   9.287  71.192  1.00  0.00    -0.409 A  
HETATM   28  C   UNL     1      -9.979   8.662  71.929  1.00  0.00    -0.392 A  
HETATM   29  C   UNL     1      -8.773   8.284  71.324  1.00  0.00    -0.152 A  
HETATM   30 CL   UNL     1      -7.607   7.545  72.358  1.00  0.00    -0.089 Cl 
HETATM   31  C   UNL     1      -8.566   8.512  69.959  1.00  0.00    -0.134 A  
HETATM   32  C   UNL     1      -9.625   9.080  69.209  1.00  0.00    -0.162 A  
HETATM   33  C   UNL     1      -7.271   8.228  69.239  1.00  0.00    -0.064 C  
HETATM   34  F   UNL     1      -7.425   7.325  68.231  1.00  0.00    -0.090 F  
HETATM   35  F   UNL     1      -6.775   9.355  68.644  1.00  0.00    -0.052 F  
HETATM   36  F   UNL     1      -6.248   7.755  69.998  1.00  0.00    -0.029 F  
ENDBRANCH  24  26
ENDBRANCH  22  24
ENDBRANCH  20  22
ENDBRANCH  17  20
ENDBRANCH  12  13
ENDBRANCH   8  12
ENDBRANCH   3   6
TORSDOF 7
ENDMDL
MODEL      325
REMARK 921   NORMALIZED FREE ENERGY PREDICTED BY IDOCK:   -3.08 KCAL/MOL
REMARK 922        TOTAL FREE ENERGY PREDICTED BY IDOCK:   -6.32 KCAL/MOL
REMARK 923 INTER-LIGAND FREE ENERGY PREDICTED BY IDOCK:   -5.96 KCAL/MOL
REMARK 924 INTRA-LIGAND FREE ENERGY PREDICTED BY IDOCK:   -0.36 KCAL/MOL
REMARK 927      BINDING AFFINITY PREDICTED BY RF-SCORE:    0.00 PKD
ROOT
HETATM    1  C   UNL     1     -11.032   2.291  62.994  1.00  0.00    -0.238 C  
HETATM    2  N   UNL     1     -10.673   3.088  64.135  1.00  0.00    -0.458 N  
HETATM    3  C   UNL     1      -9.358   3.221  64.527  1.00  0.00    -0.143 C  
HETATM    4  H   UNL     1     -11.404   3.565  64.663  1.00  0.00     0.000 HD 
HETATM    5  O   UNL     1      -8.416   2.725  63.919  1.00  0.00    -0.085 OA 
ENDROOT
BRANCH   3   6
HETATM    6  C   UNL     1      -9.144   4.019  65.776  1.00  0.00    -0.142 A  
HETATM    7  C   UNL     1      -8.223   5.057  65.751  1.00  0.00    -0.115 A  
HETATM    8  C   UNL     1      -8.066   5.815  66.905  1.00  0.00    -0.102 A  
HETATM    9  C   UNL     1      -8.778   5.475  68.051  1.00  0.00    -0.106 A  
HETATM   10  N   UNL     1      -9.874   3.673  66.872  1.00  0.00    -0.061 NA 
HETATM   11  C   UNL     1      -9.664   4.410  67.985  1.00  0.00    -0.123 A  
BRANCH   8  12
HETATM   12  O   UNL     1      -7.173   6.855  67.016  1.00  0.00    -0.080 OA 
BRANCH  12  13
HETATM   13  C   UNL     1      -7.618   8.152  66.867  1.00  0.00    -0.095 A  
HETATM   14  C   UNL     1      -8.015   8.525  65.582  1.00  0.00    -0.107 A  
HETATM   15  C   UNL     1      -8.425   9.833  65.342  1.00  0.00    -0.145 A  
HETATM   16  F   UNL     1      -8.792  10.189  64.101  1.00  0.00    -0.161 F  
HETATM   17  C   UNL     1      -8.390  10.795  66.353  1.00  0.00    -0.153 A  
HETATM   18  C   UNL     1      -7.602   9.103  67.894  1.00  0.00    -0.085 A  
HETATM   19  C   UNL     1      -7.995  10.422  67.640  1.00  0.00    -0.106 A  
BRANCH  17  20
HETATM   20  N   UNL     1      -8.739  12.131  66.048  1.00  0.00    -0.404 N  
HETATM   21  H   UNL     1      -8.030  12.863  66.089  1.00  0.00     0.000 HD 
BRANCH  20  22
HETATM   22  C   UNL     1     -10.042  12.450  65.691  1.00  0.00    -0.257 C  
HETATM   23  O   UNL     1     -10.493  12.384  64.550  1.00  0.00    -0.293 OA 
BRANCH  22  24
HETATM   24  N   UNL     1     -10.767  12.864  66.793  1.00  0.00    -0.260 N  
HETATM   25  H   UNL     1     -11.526  12.277  67.137  1.00  0.00     0.000 HD 
BRANCH  24  26
HETATM   26  C   UNL     1     -10.484  14.076  67.452  1.00  0.00    -0.263 A  
HETATM   27  C   UNL     1     -11.496  14.684  68.188  1.00  0.00    -0.346 A  
HETATM   28  C   UNL     1     -11.244  15.887  68.848  1.00  0.00    -0.343 A  
HETATM   29  C   UNL     1     -10.005  16.529  68.722  1.00  0.00    -0.255 A  
HETATM   30 CL   UNL     1      -9.838  18.022  69.569  1.00  0.00     0.112 Cl 
HETATM   31  C   UNL     1      -8.991  15.961  67.943  1.00  0.00    -0.181 A  
HETATM   32  C   UNL     1      -9.237  14.704  67.339  1.00  0.00    -0.201 A  
HETATM   33  C   UNL     1      -7.662  16.622  67.669  1.00  0.00    -0.166 C  
HETATM   34  F   UNL     1      -6.612  15.878  68.117  1.00  0.00    -0.106 F  
HETATM   35  F   UNL     1      -7.450  16.778  66.327  1.00  0.00    -0.273 F  
HETATM   36  F   UNL     1      -7.482  17.861  68.197  1.00  0.00    -0.218 F  
ENDBRANCH  24  26
ENDBRANCH  22  24
ENDBRANCH  20  22
ENDBRANCH  17  20
ENDBRANCH  12  13
ENDBRANCH   8  12
ENDBRANCH   3   6
TORSDOF 7
ENDMDL
MODEL      326
REMARK 921   NORMALIZED FREE ENERGY PREDICTED BY IDOCK:   -3.07 KCAL/MOL
REMARK 922        TOTAL FREE ENERGY PREDICTED BY IDOCK:   -6.31 KCAL/MOL
REMARK 923 INTER-LIGAND FREE ENERGY PREDICTED BY IDOCK:   -6.38 KCAL/MOL
REMARK 924 INTRA-LIGAND FREE ENERGY PREDICTED BY IDOCK:    0.07 KCAL/MOL
REMARK 927      BINDING AFFINITY PREDICTED BY RF-SCORE:    0.00 PKD
ROOT
HETATM    1  C   UNL     1     -12.393   7.872  70.533  1.00  0.00     0.274 C  
HETATM    2  N   UNL     1     -12.247   9.300  70.602  1.00  0.00    -0.483 N  
HETATM    3  C   UNL     1     -13.023  10.055  71.455  1.00  0.00    -0.418 C  
HETATM    4  H   UNL     1     -11.558   9.763  70.009  1.00  0.00     0.000 HD 
HETATM    5  O   UNL     1     -13.837   9.575  72.237  1.00  0.00    -0.416 OA 
ENDROOT
BRANCH   3   6
HETATM    6  C   UNL     1     -12.813  11.535  71.364  1.00  0.00    -0.384 A  
HETATM    7  C   UNL     1     -12.594  12.100  70.115  1.00  0.00     0.022 A  
HETATM    8  C   UNL     1     -12.442  13.478  70.042  1.00  0.00    -0.167 A  
HETATM    9  C   UNL     1     -12.452  14.232  71.212  1.00  0.00    -0.439 A  
HETATM   10  N   UNL     1     -12.851  12.244  72.526  1.00  0.00     0.167 NA 
HETATM   11  C   UNL     1     -12.662  13.577  72.416  1.00  0.00    -0.064 A  
BRANCH   8  12
HETATM   12  O   UNL     1     -12.199  14.156  68.870  1.00  0.00    -0.328 OA 
BRANCH  12  13
HETATM   13  C   UNL     1     -11.493  13.537  67.860  1.00  0.00    -0.318 A  
HETATM   14  C   UNL     1     -11.935  13.782  66.558  1.00  0.00    -0.470 A  
HETATM   15  C   UNL     1     -11.306  13.150  65.490  1.00  0.00    -0.299 A  
HETATM   16  F   UNL     1     -11.744  13.378  64.242  1.00  0.00    -0.364 F  
HETATM   17  C   UNL     1     -10.278  12.229  65.702  1.00  0.00    -0.261 A  
HETATM   18  C   UNL     1     -10.447  12.634  68.082  1.00  0.00    -0.239 A  
HETATM   19  C   UNL     1      -9.835  11.986  67.004  1.00  0.00    -0.205 A  
BRANCH  17  20
HETATM   20  N   UNL     1      -9.721  11.550  64.594  1.00  0.00    -0.306 N  
HETATM   21  H   UNL     1      -9.950  11.849  63.647  1.00  0.00     0.000 HD 
BRANCH  20  22
HETATM   22  C   UNL     1      -8.862  10.476  64.791  1.00  0.00    -0.196 C  
HETATM   23  O   UNL     1      -9.067   9.333  64.392  1.00  0.00    -0.189 OA 
BRANCH  22  24
HETATM   24  N   UNL     1      -7.745  10.863  65.508  1.00  0.00    -0.354 N  
HETATM   25  H   UNL     1      -7.281  11.739  65.268  1.00  0.00     0.000 HD 
BRANCH  24  26
HETATM   26  C   UNL     1      -7.233  10.080  66.560  1.00  0.00    -0.101 A  
HETATM   27  C   UNL     1      -5.913  10.276  66.952  1.00  0.00    -0.052 A  
HETATM   28  C   UNL     1      -5.379   9.511  67.988  1.00  0.00    -0.040 A  
HETATM   29  C   UNL     1      -6.132   8.498  68.595  1.00  0.00    -0.045 A  
HETATM   30 CL   UNL     1      -5.340   7.612  69.845  1.00  0.00    -0.023 Cl 
HETATM   31  C   UNL     1      -7.445   8.248  68.180  1.00  0.00    -0.097 A  
HETATM   32  C   UNL     1      -7.998   9.082  67.177  1.00  0.00    -0.102 A  
HETATM   33  C   UNL     1      -8.300   7.121  68.703  1.00  0.00    -0.125 C  
HETATM   34  F   UNL     1      -9.440   7.569  69.299  1.00  0.00    -0.153 F  
HETATM   35  F   UNL     1      -8.717   6.301  67.692  1.00  0.00    -0.115 F  
HETATM   36  F   UNL     1      -7.718   6.291  69.609  1.00  0.00    -0.089 F  
ENDBRANCH  24  26
ENDBRANCH  22  24
ENDBRANCH  20  22
ENDBRANCH  17  20
ENDBRANCH  12  13
ENDBRANCH   8  12
ENDBRANCH   3   6
TORSDOF 7
ENDMDL
MODEL      327
REMARK 921   NORMALIZED FREE ENERGY PREDICTED BY IDOCK:   -2.96 KCAL/MOL
REMARK 922        TOTAL FREE ENERGY PREDICTED BY IDOCK:   -6.16 KCAL/MOL
REMARK 923 INTER-LIGAND FREE ENERGY PREDICTED BY IDOCK:   -5.02 KCAL/MOL
REMARK 924 INTRA-LIGAND FREE ENERGY PREDICTED BY IDOCK:   -1.14 KCAL/MOL
REMARK 927      BINDING AFFINITY PREDICTED BY RF-SCORE:    0.00 PKD
ROOT
HETATM    1  C   UNL     1     -11.953  14.213  67.690  1.00  0.00    -0.370 C  
HETATM    2  N   UNL     1     -11.045  13.606  66.756  1.00  0.00    -0.303 N  
HETATM    3  C   UNL     1     -11.478  12.654  65.858  1.00  0.00    -0.363 C  
HETATM    4  H   UNL     1     -10.064  13.884  66.758  1.00  0.00     0.000 HD 
HETATM    5  O   UNL     1     -12.648  12.302  65.753  1.00  0.00    -0.455 OA 
ENDROOT
BRANCH   3   6
HETATM    6  C   UNL     1     -10.407  12.056  64.999  1.00  0.00    -0.281 A  
HETATM    7  C   UNL     1      -9.280  11.527  65.613  1.00  0.00    -0.184 A  
HETATM    8  C   UNL     1      -8.315  10.939  64.806  1.00  0.00     0.094 A  
HETATM    9  C   UNL     1      -8.474  10.955  63.424  1.00  0.00     0.028 A  
HETATM   10  N   UNL     1     -10.606  12.069  63.652  1.00  0.00    -0.411 NA 
HETATM   11  C   UNL     1      -9.626  11.522  62.900  1.00  0.00    -0.283 A  
BRANCH   8  12
HETATM   12  O   UNL     1      -7.146  10.398  65.289  1.00  0.00    -0.136 OA 
BRANCH  12  13
HETATM   13  C   UNL     1      -6.885   9.058  65.095  1.00  0.00    -0.076 A  
HETATM   14  C   UNL     1      -7.944   8.288  64.610  1.00  0.00    -0.145 A  
HETATM   15  C   UNL     1      -7.773   6.917  64.440  1.00  0.00    -0.113 A  
HETATM   16  F   UNL     1      -8.798   6.179  63.986  1.00  0.00     0.094 F  
HETATM   17  C   UNL     1      -6.580   6.289  64.802  1.00  0.00    -0.038 A  
HETATM   18  C   UNL     1      -5.676   8.442  65.438  1.00  0.00    -0.044 A  
HETATM   19  C   UNL     1      -5.520   7.060  65.285  1.00  0.00    -0.028 A  
BRANCH  17  20
HETATM   20  N   UNL     1      -6.477   4.884  64.688  1.00  0.00    -0.038 N  
HETATM   21  H   UNL     1      -5.926   4.475  63.933  1.00  0.00     0.000 HD 
BRANCH  20  22
HETATM   22  C   UNL     1      -7.121   4.058  65.599  1.00  0.00    -0.063 C  
HETATM   23  O   UNL     1      -7.939   3.191  65.301  1.00  0.00    -0.081 OA 
BRANCH  22  24
HETATM   24  N   UNL     1      -6.728   4.349  66.892  1.00  0.00    -0.050 N  
HETATM   25  H   UNL     1      -5.764   4.169  67.169  1.00  0.00     0.000 HD 
BRANCH  24  26
HETATM   26  C   UNL     1      -7.625   4.886  67.835  1.00  0.00    -0.083 A  
HETATM   27  C   UNL     1      -7.883   4.160  68.994  1.00  0.00    -0.057 A  
HETATM   28  C   UNL     1      -8.770   4.667  69.943  1.00  0.00    -0.116 A  
HETATM   29  C   UNL     1      -9.461   5.864  69.714  1.00  0.00    -0.148 A  
HETATM   30 CL   UNL     1     -10.546   6.362  70.959  1.00  0.00    -0.270 Cl 
HETATM   31  C   UNL     1      -9.256   6.583  68.531  1.00  0.00    -0.125 A  
HETATM   32  C   UNL     1      -8.298   6.093  67.610  1.00  0.00    -0.112 A  
HETATM   33  C   UNL     1     -10.020   7.827  68.151  1.00  0.00    -0.178 C  
HETATM   34  F   UNL     1      -9.205   8.906  67.986  1.00  0.00    -0.137 F  
HETATM   35  F   UNL     1     -10.664   7.671  66.955  1.00  0.00    -0.363 F  
HETATM   36  F   UNL     1     -10.987   8.231  69.018  1.00  0.00    -0.183 F  
ENDBRANCH  24  26
ENDBRANCH  22  24
ENDBRANCH  20  22
ENDBRANCH  17  20
ENDBRANCH  12  13
ENDBRANCH   8  12
ENDBRANCH   3   6
TORSDOF 7
ENDMDL
MODEL      328
REMARK 921   NORMALIZED FREE ENERGY PREDICTED BY IDOCK:   -2.95 KCAL/MOL
REMARK 922        TOTAL FREE ENERGY PREDICTED BY IDOCK:   -6.15 KCAL/MOL
REMARK 923 INTER-LIGAND FREE ENERGY PREDICTED BY IDOCK:   -5.23 KCAL/MOL
REMARK 924 INTRA-LIGAND FREE ENERGY PREDICTED BY IDOCK:   -0.92 KCAL/MOL
REMARK 927      BINDING AFFINITY PREDICTED BY RF-SCORE:    0.00 PKD
ROOT
HETATM    1  C   UNL     1      -9.815  19.962  70.821  1.00  0.00     1.551 C  
HETATM    2  N   UNL     1     -10.173  19.287  69.604  1.00  0.00    -0.338 N  
HETATM    3  C   UNL     1      -9.234  18.593  68.871  1.00  0.00    -0.216 C  
HETATM    4  H   UNL     1     -11.138  19.321  69.277  1.00  0.00     0.000 HD 
HETATM    5  O   UNL     1      -8.065  18.458  69.219  1.00  0.00    -0.027 OA 
ENDROOT
BRANCH   3   6
HETATM    6  C   UNL     1      -9.735  18.004  67.589  1.00  0.00    -0.291 A  
HETATM    7  C   UNL     1      -9.476  16.666  67.326  1.00  0.00    -0.234 A  
HETATM    8  C   UNL     1      -9.983  16.124  66.152  1.00  0.00    -0.335 A  
HETATM    9  C   UNL     1     -10.670  16.941  65.260  1.00  0.00    -0.147 A  
HETATM   10  N   UNL     1     -10.423  18.827  66.750  1.00  0.00    -0.404 NA 
HETATM   11  C   UNL     1     -10.866  18.271  65.601  1.00  0.00     0.091 A  
BRANCH   8  12
HETATM   12  O   UNL     1      -9.780  14.819  65.766  1.00  0.00    -0.325 OA 
BRANCH  12  13
HETATM   13  C   UNL     1     -10.445  13.805  66.422  1.00  0.00    -0.284 A  
HETATM   14  C   UNL     1     -10.986  14.125  67.668  1.00  0.00    -0.278 A  
HETATM   15  C   UNL     1     -11.625  13.139  68.414  1.00  0.00    -0.337 A  
HETATM   16  F   UNL     1     -12.131  13.450  69.617  1.00  0.00    -0.327 F  
HETATM   17  C   UNL     1     -11.683  11.819  67.962  1.00  0.00    -0.293 A  
HETATM   18  C   UNL     1     -10.520  12.489  65.948  1.00  0.00    -0.289 A  
HETATM   19  C   UNL     1     -11.145  11.499  66.714  1.00  0.00    -0.361 A  
BRANCH  17  20
HETATM   20  N   UNL     1     -12.271  10.833  68.786  1.00  0.00    -0.408 N  
HETATM   21  H   UNL     1     -13.265  10.620  68.693  1.00  0.00     0.000 HD 
BRANCH  20  22
HETATM   22  C   UNL     1     -11.503  10.153  69.721  1.00  0.00    -0.228 C  
HETATM   23  O   UNL     1     -11.298  10.535  70.871  1.00  0.00    -0.306 OA 
BRANCH  22  24
HETATM   24  N   UNL     1     -10.988   8.989  69.183  1.00  0.00    -0.426 N  
HETATM   25  H   UNL     1     -11.617   8.210  68.989  1.00  0.00     0.000 HD 
BRANCH  24  26
HETATM   26  C   UNL     1      -9.616   8.850  68.896  1.00  0.00    -0.160 A  
HETATM   27  C   UNL     1      -9.049   7.581  68.959  1.00  0.00    -0.140 A  
HETATM   28  C   UNL     1      -7.693   7.416  68.682  1.00  0.00    -0.120 A  
HETATM   29  C   UNL     1      -6.875   8.520  68.411  1.00  0.00    -0.065 A  
HETATM   30 CL   UNL     1      -5.211   8.175  68.114  1.00  0.00    -0.032 Cl 
HETATM   31  C   UNL     1      -7.414   9.812  68.396  1.00  0.00    -0.083 A  
HETATM   32  C   UNL     1      -8.807   9.956  68.605  1.00  0.00    -0.128 A  
HETATM   33  C   UNL     1      -6.600  11.068  68.209  1.00  0.00    -0.058 C  
HETATM   34  F   UNL     1      -6.983  11.775  67.110  1.00  0.00    -0.104 F  
HETATM   35  F   UNL     1      -6.755  11.923  69.265  1.00  0.00    -0.086 F  
HETATM   36  F   UNL     1      -5.256  10.905  68.087  1.00  0.00    -0.038 F  
ENDBRANCH  24  26
ENDBRANCH  22  24
ENDBRANCH  20  22
ENDBRANCH  17  20
ENDBRANCH  12  13
ENDBRANCH   8  12
ENDBRANCH   3   6
TORSDOF 7
ENDMDL
MODEL      329
REMARK 921   NORMALIZED FREE ENERGY PREDICTED BY IDOCK:   -2.93 KCAL/MOL
REMARK 922        TOTAL FREE ENERGY PREDICTED BY IDOCK:   -6.12 KCAL/MOL
REMARK 923 INTER-LIGAND FREE ENERGY PREDICTED BY IDOCK:   -5.45 KCAL/MOL
REMARK 924 INTRA-LIGAND FREE ENERGY PREDICTED BY IDOCK:   -0.66 KCAL/MOL
REMARK 927      BINDING AFFINITY PREDICTED BY RF-SCORE:    0.00 PKD
ROOT
HETATM    1  C   UNL     1     -10.171  20.120  66.751  1.00  0.00    -0.430 C  
HETATM    2  N   UNL     1      -9.211  19.386  67.528  1.00  0.00    -0.302 N  
HETATM    3  C   UNL     1      -8.029  19.966  67.934  1.00  0.00    -0.288 C  
HETATM    4  H   UNL     1      -9.408  18.418  67.784  1.00  0.00     0.000 HD 
HETATM    5  O   UNL     1      -7.737  21.137  67.715  1.00  0.00    -0.140 OA 
ENDROOT
BRANCH   3   6
HETATM    6  C   UNL     1      -7.094  19.058  68.672  1.00  0.00    -0.307 A  
HETATM    7  C   UNL     1      -6.670  17.893  68.050  1.00  0.00    -0.196 A  
HETATM    8  C   UNL     1      -5.771  17.082  68.730  1.00  0.00    -0.144 A  
HETATM    9  C   UNL     1      -5.378  17.425  70.020  1.00  0.00    -0.227 A  
HETATM   10  N   UNL     1      -6.713  19.437  69.924  1.00  0.00    -0.177 NA 
HETATM   11  C   UNL     1      -5.868  18.602  70.567  1.00  0.00    -0.077 A  
BRANCH   8  12
HETATM   12  O   UNL     1      -5.291  15.892  68.232  1.00  0.00    -0.094 OA 
BRANCH  12  13
HETATM   13  C   UNL     1      -6.057  14.751  68.341  1.00  0.00    -0.100 A  
HETATM   14  C   UNL     1      -7.212  14.705  67.557  1.00  0.00    -0.216 A  
HETATM   15  C   UNL     1      -8.064  13.609  67.654  1.00  0.00    -0.177 A  
HETATM   16  F   UNL     1      -9.179  13.576  66.909  1.00  0.00    -0.216 F  
HETATM   17  C   UNL     1      -7.814  12.581  68.565  1.00  0.00    -0.108 A  
HETATM   18  C   UNL     1      -5.785  13.713  69.241  1.00  0.00    -0.084 A  
HETATM   19  C   UNL     1      -6.658  12.625  69.348  1.00  0.00    -0.067 A  
BRANCH  17  20
HETATM   20  N   UNL     1      -8.747  11.525  68.688  1.00  0.00    -0.282 N  
HETATM   21  H   UNL     1      -9.387  11.503  69.482  1.00  0.00     0.000 HD 
BRANCH  20  22
HETATM   22  C   UNL     1      -8.796  10.519  67.732  1.00  0.00    -0.125 C  
HETATM   23  O   UNL     1      -7.979  10.373  66.827  1.00  0.00    -0.112 OA 
BRANCH  22  24
HETATM   24  N   UNL     1      -9.897   9.707  67.928  1.00  0.00    -0.149 N  
HETATM   25  H   UNL     1     -10.831  10.103  67.823  1.00  0.00     0.000 HD 
BRANCH  24  26
HETATM   26  C   UNL     1      -9.762   8.347  68.268  1.00  0.00    -0.155 A  
HETATM   27  C   UNL     1     -10.906   7.557  68.310  1.00  0.00    -0.052 A  
HETATM   28  C   UNL     1     -10.802   6.208  68.647  1.00  0.00    -0.403 A  
HETATM   29  C   UNL     1      -9.570   5.652  69.015  1.00  0.00    -0.135 A  
HETATM   30 CL   UNL     1      -9.589   3.979  69.434  1.00  0.00    -0.264 Cl 
HETATM   31  C   UNL     1      -8.415   6.443  69.031  1.00  0.00    -0.124 A  
HETATM   32  C   UNL     1      -8.524   7.792  68.615  1.00  0.00    -0.129 A  
HETATM   33  C   UNL     1      -7.065   5.962  69.502  1.00  0.00    -0.065 C  
HETATM   34  F   UNL     1      -6.118   6.038  68.526  1.00  0.00    -0.017 F  
HETATM   35  F   UNL     1      -6.592   6.733  70.528  1.00  0.00    -0.046 F  
HETATM   36  F   UNL     1      -7.006   4.687  69.968  1.00  0.00    -0.043 F  
ENDBRANCH  24  26
ENDBRANCH  22  24
ENDBRANCH  20  22
ENDBRANCH  17  20
ENDBRANCH  12  13
ENDBRANCH   8  12
ENDBRANCH   3   6
TORSDOF 7
ENDMDL
MODEL      330
REMARK 921   NORMALIZED FREE ENERGY PREDICTED BY IDOCK:   -2.92 KCAL/MOL
REMARK 922        TOTAL FREE ENERGY PREDICTED BY IDOCK:   -6.10 KCAL/MOL
REMARK 923 INTER-LIGAND FREE ENERGY PREDICTED BY IDOCK:   -5.33 KCAL/MOL
REMARK 924 INTRA-LIGAND FREE ENERGY PREDICTED BY IDOCK:   -0.77 KCAL/MOL
REMARK 927      BINDING AFFINITY PREDICTED BY RF-SCORE:    0.00 PKD
ROOT
HETATM    1  C   UNL     1      -6.477  11.587  70.402  1.00  0.00     0.238 C  
HETATM    2  N   UNL     1      -7.234  12.151  69.319  1.00  0.00    -0.320 N  
HETATM    3  C   UNL     1      -7.331  13.516  69.152  1.00  0.00     0.074 C  
HETATM    4  H   UNL     1      -7.708  11.531  68.662  1.00  0.00     0.000 HD 
HETATM    5  O   UNL     1      -6.751  14.329  69.863  1.00  0.00    -0.132 OA 
ENDROOT
BRANCH   3   6
HETATM    6  C   UNL     1      -8.213  13.958  68.026  1.00  0.00    -0.161 A  
HETATM    7  C   UNL     1      -8.856  12.991  67.265  1.00  0.00    -0.208 A  
HETATM    8  C   UNL     1      -9.703  13.418  66.250  1.00  0.00    -0.272 A  
HETATM    9  C   UNL     1      -9.831  14.779  65.991  1.00  0.00    -0.350 A  
HETATM   10  N   UNL     1      -8.333  15.298  67.814  1.00  0.00    -0.147 NA 
HETATM   11  C   UNL     1      -9.136  15.671  66.794  1.00  0.00    -0.254 A  
BRANCH   8  12
HETATM   12  O   UNL     1     -10.381  12.561  65.414  1.00  0.00    -0.272 OA 
BRANCH  12  13
HETATM   13  C   UNL     1      -9.706  11.518  64.817  1.00  0.00    -0.219 A  
HETATM   14  C   UNL     1      -8.459  11.199  65.358  1.00  0.00     0.043 A  
HETATM   15  C   UNL     1      -7.694  10.193  64.775  1.00  0.00    -0.141 A  
HETATM   16  F   UNL     1      -6.490   9.900  65.291  1.00  0.00    -0.076 F  
HETATM   17  C   UNL     1      -8.127   9.537  63.621  1.00  0.00    -0.151 A  
HETATM   18  C   UNL     1     -10.160  10.849  63.674  1.00  0.00    -0.414 A  
HETATM   19  C   UNL     1      -9.375   9.854  63.080  1.00  0.00    -0.217 A  
BRANCH  17  20
HETATM   20  N   UNL     1      -7.284   8.578  63.015  1.00  0.00    -0.094 N  
HETATM   21  H   UNL     1      -6.526   8.882  62.403  1.00  0.00     0.000 HD 
BRANCH  20  22
HETATM   22  C   UNL     1      -7.483   7.223  63.248  1.00  0.00    -0.097 C  
HETATM   23  O   UNL     1      -8.244   6.506  62.604  1.00  0.00    -0.098 OA 
BRANCH  22  24
HETATM   24  N   UNL     1      -6.716   6.789  64.312  1.00  0.00    -0.044 N  
HETATM   25  H   UNL     1      -5.729   6.581  64.161  1.00  0.00     0.000 HD 
BRANCH  24  26
HETATM   26  C   UNL     1      -7.262   6.626  65.600  1.00  0.00    -0.070 A  
HETATM   27  C   UNL     1      -6.407   6.293  66.646  1.00  0.00    -0.041 A  
HETATM   28  C   UNL     1      -6.922   6.122  67.931  1.00  0.00    -0.076 A  
HETATM   29  C   UNL     1      -8.299   6.211  68.171  1.00  0.00    -0.114 A  
HETATM   30 CL   UNL     1      -8.802   5.952  69.801  1.00  0.00    -0.127 Cl 
HETATM   31  C   UNL     1      -9.182   6.493  67.122  1.00  0.00    -0.134 A  
HETATM   32  C   UNL     1      -8.637   6.736  65.838  1.00  0.00    -0.153 A  
HETATM   33  C   UNL     1     -10.684   6.514  67.262  1.00  0.00    -0.356 C  
HETATM   34  F   UNL     1     -11.216   7.729  66.951  1.00  0.00    -0.303 F  
HETATM   35  F   UNL     1     -11.277   5.628  66.405  1.00  0.00    -0.288 F  
HETATM   36  F   UNL     1     -11.183   6.202  68.487  1.00  0.00    -0.354 F  
ENDBRANCH  24  26
ENDBRANCH  22  24
ENDBRANCH  20  22
ENDBRANCH  17  20
ENDBRANCH  12  13
ENDBRANCH   8  12
ENDBRANCH   3   6
TORSDOF 7
ENDMDL
MODEL      331
REMARK 921   NORMALIZED FREE ENERGY PREDICTED BY IDOCK:   -2.90 KCAL/MOL
REMARK 922        TOTAL FREE ENERGY PREDICTED BY IDOCK:   -6.07 KCAL/MOL
REMARK 923 INTER-LIGAND FREE ENERGY PREDICTED BY IDOCK:   -4.99 KCAL/MOL
REMARK 924 INTRA-LIGAND FREE ENERGY PREDICTED BY IDOCK:   -1.09 KCAL/MOL
REMARK 927      BINDING AFFINITY PREDICTED BY RF-SCORE:    0.00 PKD
ROOT
HETATM    1  C   UNL     1     -11.257   6.626  69.556  1.00  0.00    -0.326 C  
HETATM    2  N   UNL     1     -10.053   7.190  69.011  1.00  0.00    -0.178 N  
HETATM    3  C   UNL     1     -10.090   8.028  67.917  1.00  0.00    -0.194 C  
HETATM    4  H   UNL     1      -9.156   6.969  69.442  1.00  0.00     0.000 HD 
HETATM    5  O   UNL     1     -11.129   8.386  67.372  1.00  0.00     0.027 OA 
ENDROOT
BRANCH   3   6
HETATM    6  C   UNL     1      -8.754   8.479  67.415  1.00  0.00    -0.134 A  
HETATM    7  C   UNL     1      -7.910   9.154  68.286  1.00  0.00    -0.102 A  
HETATM    8  C   UNL     1      -6.657   9.530  67.818  1.00  0.00    -0.062 A  
HETATM    9  C   UNL     1      -6.316   9.279  66.492  1.00  0.00    -0.066 A  
HETATM   10  N   UNL     1      -8.444   8.197  66.119  1.00  0.00    -0.128 NA 
HETATM   11  C   UNL     1      -7.232   8.613  65.692  1.00  0.00    -0.084 A  
BRANCH   8  12
HETATM   12  O   UNL     1      -5.738  10.220  68.574  1.00  0.00    -0.038 OA 
BRANCH  12  13
HETATM   13  C   UNL     1      -5.825  11.594  68.663  1.00  0.00    -0.046 A  
HETATM   14  C   UNL     1      -6.111  12.114  69.926  1.00  0.00    -0.146 A  
HETATM   15  C   UNL     1      -6.267  13.488  70.084  1.00  0.00    -0.077 A  
HETATM   16  F   UNL     1      -6.557  13.981  71.298  1.00  0.00    -0.048 F  
HETATM   17  C   UNL     1      -6.201  14.350  68.988  1.00  0.00    -0.094 A  
HETATM   18  C   UNL     1      -5.732  12.453  67.561  1.00  0.00    -0.138 A  
HETATM   19  C   UNL     1      -5.912  13.831  67.724  1.00  0.00    -0.124 A  
BRANCH  17  20
HETATM   20  N   UNL     1      -6.445  15.730  69.180  1.00  0.00    -0.134 N  
HETATM   21  H   UNL     1      -5.710  16.327  69.559  1.00  0.00     0.000 HD 
BRANCH  20  22
HETATM   22  C   UNL     1      -7.679  16.274  68.853  1.00  0.00    -0.219 C  
HETATM   23  O   UNL     1      -8.025  17.427  69.104  1.00  0.00    -0.160 OA 
BRANCH  22  24
HETATM   24  N   UNL     1      -8.476  15.343  68.216  1.00  0.00    -0.156 N  
HETATM   25  H   UNL     1      -8.344  15.175  67.218  1.00  0.00     0.000 HD 
BRANCH  24  26
HETATM   26  C   UNL     1      -9.466  14.618  68.907  1.00  0.00    -0.173 A  
HETATM   27  C   UNL     1      -9.873  13.391  68.393  1.00  0.00    -0.216 A  
HETATM   28  C   UNL     1     -10.854  12.655  69.056  1.00  0.00    -0.192 A  
HETATM   29  C   UNL     1     -11.488  13.166  70.196  1.00  0.00     0.055 A  
HETATM   30 CL   UNL     1     -12.702  12.163  70.900  1.00  0.00    -0.337 Cl 
HETATM   31  C   UNL     1     -11.132  14.422  70.699  1.00  0.00     0.153 A  
HETATM   32  C   UNL     1     -10.083  15.125  70.058  1.00  0.00    -0.103 A  
HETATM   33  C   UNL     1     -11.821  15.097  71.859  1.00  0.00    -0.404 C  
HETATM   34  F   UNL     1     -10.970  15.347  72.893  1.00  0.00    -0.312 F  
HETATM   35  F   UNL     1     -12.323  16.317  71.499  1.00  0.00    -0.472 F  
HETATM   36  F   UNL     1     -12.874  14.434  72.406  1.00  0.00    -0.361 F  
ENDBRANCH  24  26
ENDBRANCH  22  24
ENDBRANCH  20  22
ENDBRANCH  17  20
ENDBRANCH  12  13
ENDBRANCH   8  12
ENDBRANCH   3   6
TORSDOF 7
ENDMDL
MODEL      332
REMARK 921   NORMALIZED FREE ENERGY PREDICTED BY IDOCK:   -2.89 KCAL/MOL
REMARK 922        TOTAL FREE ENERGY PREDICTED BY IDOCK:   -6.05 KCAL/MOL
REMARK 923 INTER-LIGAND FREE ENERGY PREDICTED BY IDOCK:   -5.87 KCAL/MOL
REMARK 924 INTRA-LIGAND FREE ENERGY PREDICTED BY IDOCK:   -0.19 KCAL/MOL
REMARK 927      BINDING AFFINITY PREDICTED BY RF-SCORE:    0.00 PKD
ROOT
HETATM    1  C   UNL     1      -9.476   7.279  66.650  1.00  0.00    -0.177 C  
HETATM    2  N   UNL     1      -9.890   8.611  66.303  1.00  0.00    -0.373 N  
HETATM    3  C   UNL     1      -9.596   9.150  65.068  1.00  0.00     0.165 C  
HETATM    4  H   UNL     1     -10.410   9.168  66.981  1.00  0.00     0.000 HD 
HETATM    5  O   UNL     1      -9.021   8.532  64.178  1.00  0.00     0.155 OA 
ENDROOT
BRANCH   3   6
HETATM    6  C   UNL     1     -10.024  10.571  64.876  1.00  0.00    -0.334 A  
HETATM    7  C   UNL     1     -10.102  11.399  65.987  1.00  0.00    -0.275 A  
HETATM    8  C   UNL     1     -10.461  12.726  65.787  1.00  0.00    -0.276 A  
HETATM    9  C   UNL     1     -10.788  13.162  64.507  1.00  0.00    -0.400 A  
HETATM   10  N   UNL     1     -10.315  10.970  63.607  1.00  0.00    -0.361 NA 
HETATM   11  C   UNL     1     -10.697  12.258  63.460  1.00  0.00    -0.451 A  
BRANCH   8  12
HETATM   12  O   UNL     1     -10.593  13.640  66.806  1.00  0.00    -0.270 OA 
BRANCH  12  13
HETATM   13  C   UNL     1      -9.548  13.837  67.683  1.00  0.00    -0.219 A  
HETATM   14  C   UNL     1      -8.515  12.898  67.634  1.00  0.00    -0.183 A  
HETATM   15  C   UNL     1      -7.451  13.000  68.526  1.00  0.00    -0.123 A  
HETATM   16  F   UNL     1      -6.469  12.086  68.483  1.00  0.00    -0.051 F  
HETATM   17  C   UNL     1      -7.428  13.990  69.509  1.00  0.00     0.226 A  
HETATM   18  C   UNL     1      -9.522  14.849  68.650  1.00  0.00    -0.208 A  
HETATM   19  C   UNL     1      -8.460  14.931  69.558  1.00  0.00    -0.004 A  
BRANCH  17  20
HETATM   20  N   UNL     1      -6.370  14.009  70.446  1.00  0.00    -0.364 N  
HETATM   21  H   UNL     1      -6.116  13.155  70.942  1.00  0.00     0.000 HD 
BRANCH  20  22
HETATM   22  C   UNL     1      -5.674  15.185  70.692  1.00  0.00    -0.102 C  
HETATM   23  O   UNL     1      -5.500  15.676  71.805  1.00  0.00     0.120 OA 
BRANCH  22  24
HETATM   24  N   UNL     1      -5.209  15.739  69.515  1.00  0.00    -0.103 N  
HETATM   25  H   UNL     1      -4.516  15.229  68.966  1.00  0.00     0.000 HD 
BRANCH  24  26
HETATM   26  C   UNL     1      -5.666  16.988  69.053  1.00  0.00    -0.154 A  
HETATM   27  C   UNL     1      -6.030  17.950  69.990  1.00  0.00    -0.179 A  
HETATM   28  C   UNL     1      -6.489  19.194  69.560  1.00  0.00    -0.319 A  
HETATM   29  C   UNL     1      -6.658  19.465  68.196  1.00  0.00    -0.246 A  
HETATM   30 CL   UNL     1      -7.259  21.035  67.806  1.00  0.00    -0.258 Cl 
HETATM   31  C   UNL     1      -6.349  18.493  67.239  1.00  0.00    -0.193 A  
HETATM   32  C   UNL     1      -5.813  17.261  67.687  1.00  0.00    -0.144 A  
HETATM   33  C   UNL     1      -6.586  18.656  65.758  1.00  0.00    -0.269 C  
HETATM   34  F   UNL     1      -5.435  18.564  65.035  1.00  0.00    -0.186 F  
HETATM   35  F   UNL     1      -7.400  17.670  65.272  1.00  0.00    -0.016 F  
HETATM   36  F   UNL     1      -7.171  19.818  65.363  1.00  0.00    -0.295 F  
ENDBRANCH  24  26
ENDBRANCH  22  24
ENDBRANCH  20  22
ENDBRANCH  17  20
ENDBRANCH  12  13
ENDBRANCH   8  12
ENDBRANCH   3   6
TORSDOF 7
ENDMDL
MODEL      333
REMARK 921   NORMALIZED FREE ENERGY PREDICTED BY IDOCK:   -2.74 KCAL/MOL
REMARK 922        TOTAL FREE ENERGY PREDICTED BY IDOCK:   -5.85 KCAL/MOL
REMARK 923 INTER-LIGAND FREE ENERGY PREDICTED BY IDOCK:   -5.09 KCAL/MOL
REMARK 924 INTRA-LIGAND FREE ENERGY PREDICTED BY IDOCK:   -0.76 KCAL/MOL
REMARK 927      BINDING AFFINITY PREDICTED BY RF-SCORE:    0.00 PKD
ROOT
HETATM    1  C   UNL     1      -9.673  20.242  71.070  1.00  0.00     1.927 C  
HETATM    2  N   UNL     1     -10.076  19.808  69.761  1.00  0.00    -0.409 N  
HETATM    3  C   UNL     1      -9.202  19.139  68.931  1.00  0.00    -0.318 C  
HETATM    4  H   UNL     1     -11.026  19.996  69.440  1.00  0.00     0.000 HD 
HETATM    5  O   UNL     1      -8.062  18.827  69.257  1.00  0.00    -0.089 OA 
ENDROOT
BRANCH   3   6
HETATM    6  C   UNL     1      -9.737  18.816  67.571  1.00  0.00    -0.307 A  
HETATM    7  C   UNL     1      -9.498  17.554  67.045  1.00  0.00    -0.268 A  
HETATM    8  C   UNL     1     -10.036  17.255  65.800  1.00  0.00    -0.141 A  
HETATM    9  C   UNL     1     -10.734  18.235  65.101  1.00  0.00     0.735 A  
HETATM   10  N   UNL     1     -10.434  19.791  66.925  1.00  0.00    -0.457 NA 
HETATM   11  C   UNL     1     -10.908  19.473  65.700  1.00  0.00    -0.256 A  
BRANCH   8  12
HETATM   12  O   UNL     1      -9.855  16.050  65.162  1.00  0.00    -0.397 OA 
BRANCH  12  13
HETATM   13  C   UNL     1     -10.471  14.919  65.656  1.00  0.00    -0.349 A  
HETATM   14  C   UNL     1     -11.029  15.027  66.931  1.00  0.00    -0.324 A  
HETATM   15  C   UNL     1     -11.620  13.913  67.519  1.00  0.00    -0.360 A  
HETATM   16  F   UNL     1     -12.142  14.019  68.751  1.00  0.00    -0.353 F  
HETATM   17  C   UNL     1     -11.613  12.672  66.879  1.00  0.00    -0.373 A  
HETATM   18  C   UNL     1     -10.480  13.685  64.995  1.00  0.00    -0.406 A  
HETATM   19  C   UNL     1     -11.057  12.564  65.602  1.00  0.00    -0.338 A  
BRANCH  17  20
HETATM   20  N   UNL     1     -12.153  11.549  67.545  1.00  0.00     0.104 N  
HETATM   21  H   UNL     1     -13.137  11.309  67.420  1.00  0.00     0.000 HD 
BRANCH  20  22
HETATM   22  C   UNL     1     -11.350  10.769  68.367  1.00  0.00    -0.302 C  
HETATM   23  O   UNL     1     -11.141  10.992  69.556  1.00  0.00    -0.238 OA 
BRANCH  22  24
HETATM   24  N   UNL     1     -10.808   9.709  67.664  1.00  0.00    -0.416 N  
HETATM   25  H   UNL     1     -11.294   8.813  67.664  1.00  0.00     0.000 HD 
BRANCH  24  26
HETATM   26  C   UNL     1      -9.601   9.836  66.949  1.00  0.00    -0.180 A  
HETATM   27  C   UNL     1      -8.628  10.702  67.437  1.00  0.00    -0.122 A  
HETATM   28  C   UNL     1      -7.425  10.849  66.748  1.00  0.00    -0.134 A  
HETATM   29  C   UNL     1      -7.210  10.191  65.529  1.00  0.00    -0.142 A  
HETATM   30 CL   UNL     1      -5.689  10.484  64.770  1.00  0.00    -0.132 Cl 
HETATM   31  C   UNL     1      -8.198   9.357  64.993  1.00  0.00    -0.139 A  
HETATM   32  C   UNL     1      -9.384   9.160  65.742  1.00  0.00    -0.309 A  
HETATM   33  C   UNL     1      -8.099   8.684  63.647  1.00  0.00    -0.163 C  
HETATM   34  F   UNL     1      -8.156   7.326  63.742  1.00  0.00    -0.135 F  
HETATM   35  F   UNL     1      -9.143   9.036  62.837  1.00  0.00    -0.209 F  
HETATM   36  F   UNL     1      -6.984   8.952  62.917  1.00  0.00    -0.092 F  
ENDBRANCH  24  26
ENDBRANCH  22  24
ENDBRANCH  20  22
ENDBRANCH  17  20
ENDBRANCH  12  13
ENDBRANCH   8  12
ENDBRANCH   3   6
TORSDOF 7
ENDMDL
MODEL      334
REMARK 921   NORMALIZED FREE ENERGY PREDICTED BY IDOCK:   -2.73 KCAL/MOL
REMARK 922        TOTAL FREE ENERGY PREDICTED BY IDOCK:   -5.84 KCAL/MOL
REMARK 923 INTER-LIGAND FREE ENERGY PREDICTED BY IDOCK:   -5.19 KCAL/MOL
REMARK 924 INTRA-LIGAND FREE ENERGY PREDICTED BY IDOCK:   -0.64 KCAL/MOL
REMARK 927      BINDING AFFINITY PREDICTED BY RF-SCORE:    0.00 PKD
ROOT
HETATM    1  C   UNL     1      -9.815  19.962  70.821  1.00  0.00     1.551 C  
HETATM    2  N   UNL     1     -10.171  19.293  69.601  1.00  0.00    -0.338 N  
HETATM    3  C   UNL     1      -9.232  18.601  68.866  1.00  0.00    -0.216 C  
HETATM    4  H   UNL     1     -11.136  19.330  69.272  1.00  0.00     0.000 HD 
HETATM    5  O   UNL     1      -8.065  18.463  69.216  1.00  0.00    -0.027 OA 
ENDROOT
BRANCH   3   6
HETATM    6  C   UNL     1      -9.732  18.019  67.581  1.00  0.00    -0.291 A  
HETATM    7  C   UNL     1      -9.475  16.681  67.312  1.00  0.00    -0.234 A  
HETATM    8  C   UNL     1      -9.981  16.146  66.134  1.00  0.00    -0.335 A  
HETATM    9  C   UNL     1     -10.665  16.968  65.244  1.00  0.00    -0.108 A  
HETATM   10  N   UNL     1     -10.416  18.847  66.744  1.00  0.00    -0.406 NA 
HETATM   11  C   UNL     1     -10.859  18.297  65.592  1.00  0.00     0.091 A  
BRANCH   8  12
HETATM   12  O   UNL     1      -9.778  14.842  65.743  1.00  0.00    -0.323 OA 
BRANCH  12  13
HETATM   13  C   UNL     1     -10.447  13.826  66.392  1.00  0.00    -0.284 A  
HETATM   14  C   UNL     1     -10.990  14.142  67.639  1.00  0.00    -0.278 A  
HETATM   15  C   UNL     1     -11.632  13.153  68.379  1.00  0.00    -0.337 A  
HETATM   16  F   UNL     1     -12.139  13.459  69.583  1.00  0.00    -0.327 F  
HETATM   17  C   UNL     1     -11.691  11.836  67.921  1.00  0.00    -0.276 A  
HETATM   18  C   UNL     1     -10.522  12.513  65.913  1.00  0.00    -0.289 A  
HETATM   19  C   UNL     1     -11.150  11.520  66.673  1.00  0.00    -0.355 A  
BRANCH  17  20
HETATM   20  N   UNL     1     -12.282  10.846  68.740  1.00  0.00    -0.398 N  
HETATM   21  H   UNL     1     -13.276  10.635  68.644  1.00  0.00     0.000 HD 
BRANCH  20  22
HETATM   22  C   UNL     1     -11.517  10.160  69.673  1.00  0.00    -0.198 C  
HETATM   23  O   UNL     1     -11.313  10.537  70.825  1.00  0.00    -0.327 OA 
BRANCH  22  24
HETATM   24  N   UNL     1     -11.002   8.998  69.131  1.00  0.00    -0.426 N  
HETATM   25  H   UNL     1     -11.633   8.222  68.932  1.00  0.00     0.000 HD 
BRANCH  24  26
HETATM   26  C   UNL     1      -9.630   8.859  68.845  1.00  0.00    -0.160 A  
HETATM   27  C   UNL     1      -8.742   9.785  69.383  1.00  0.00    -0.178 A  
HETATM   28  C   UNL     1      -7.379   9.672  69.114  1.00  0.00    -0.077 A  
HETATM   29  C   UNL     1      -6.897   8.680  68.251  1.00  0.00    -0.066 A  
HETATM   30 CL   UNL     1      -5.192   8.671  67.985  1.00  0.00    -0.034 Cl 
HETATM   31  C   UNL     1      -7.779   7.771  67.657  1.00  0.00    -0.121 A  
HETATM   32  C   UNL     1      -9.151   7.852  67.998  1.00  0.00    -0.132 A  
HETATM   33  C   UNL     1      -7.370   6.731  66.642  1.00  0.00    -0.074 C  
HETATM   34  F   UNL     1      -7.636   5.464  67.063  1.00  0.00    -0.086 F  
HETATM   35  F   UNL     1      -8.061   6.879  65.472  1.00  0.00    -0.103 F  
HETATM   36  F   UNL     1      -6.061   6.726  66.276  1.00  0.00    -0.029 F  
ENDBRANCH  24  26
ENDBRANCH  22  24
ENDBRANCH  20  22
ENDBRANCH  17  20
ENDBRANCH  12  13
ENDBRANCH   8  12
ENDBRANCH   3   6
TORSDOF 7
ENDMDL
MODEL      335
REMARK 921   NORMALIZED FREE ENERGY PREDICTED BY IDOCK:   -2.73 KCAL/MOL
REMARK 922        TOTAL FREE ENERGY PREDICTED BY IDOCK:   -5.83 KCAL/MOL
REMARK 923 INTER-LIGAND FREE ENERGY PREDICTED BY IDOCK:   -5.96 KCAL/MOL
REMARK 924 INTRA-LIGAND FREE ENERGY PREDICTED BY IDOCK:    0.13 KCAL/MOL
REMARK 927      BINDING AFFINITY PREDICTED BY RF-SCORE:    0.00 PKD
ROOT
HETATM    1  C   UNL     1     -10.615  20.467  68.623  1.00  0.00     0.369 C  
HETATM    2  N   UNL     1      -9.481  19.848  67.995  1.00  0.00    -0.356 N  
HETATM    3  C   UNL     1      -9.263  18.491  68.095  1.00  0.00    -0.309 C  
HETATM    4  H   UNL     1      -8.825  20.423  67.465  1.00  0.00     0.000 HD 
HETATM    5  O   UNL     1     -10.027  17.721  68.668  1.00  0.00    -0.342 OA 
ENDROOT
BRANCH   3   6
HETATM    6  C   UNL     1      -8.002  17.999  67.453  1.00  0.00    -0.221 A  
HETATM    7  C   UNL     1      -7.580  16.705  67.722  1.00  0.00    -0.172 A  
HETATM    8  C   UNL     1      -6.432  16.250  67.087  1.00  0.00    -0.179 A  
HETATM    9  C   UNL     1      -5.716  17.113  66.263  1.00  0.00    -0.070 A  
HETATM   10  N   UNL     1      -7.339  18.863  66.636  1.00  0.00    -0.217 NA 
HETATM   11  C   UNL     1      -6.207  18.395  66.068  1.00  0.00    -0.215 A  
BRANCH   8  12
HETATM   12  O   UNL     1      -5.899  14.997  67.284  1.00  0.00    -0.318 OA 
BRANCH  12  13
HETATM   13  C   UNL     1      -6.742  13.919  67.458  1.00  0.00    -0.114 A  
HETATM   14  C   UNL     1      -8.056  14.216  67.826  1.00  0.00    -0.170 A  
HETATM   15  C   UNL     1      -8.950  13.179  68.073  1.00  0.00    -0.195 A  
HETATM   16  F   UNL     1     -10.208  13.469  68.441  1.00  0.00    -0.221 F  
HETATM   17  C   UNL     1      -8.541  11.845  68.015  1.00  0.00    -0.168 A  
HETATM   18  C   UNL     1      -6.327  12.585  67.374  1.00  0.00    -0.157 A  
HETATM   19  C   UNL     1      -7.227  11.548  67.644  1.00  0.00    -0.103 A  
BRANCH  17  20
HETATM   20  N   UNL     1      -9.460  10.825  68.351  1.00  0.00    -0.166 N  
HETATM   21  H   UNL     1      -9.448  10.418  69.286  1.00  0.00     0.000 HD 
BRANCH  20  22
HETATM   22  C   UNL     1     -10.379  10.375  67.413  1.00  0.00    -0.228 C  
HETATM   23  O   UNL     1     -10.760  11.020  66.439  1.00  0.00    -0.262 OA 
BRANCH  22  24
HETATM   24  N   UNL     1     -10.820   9.103  67.726  1.00  0.00    -0.484 N  
HETATM   25  H   UNL     1     -11.559   8.990  68.419  1.00  0.00     0.000 HD 
BRANCH  24  26
HETATM   26  C   UNL     1     -10.274   7.959  67.112  1.00  0.00    -0.290 A  
HETATM   27  C   UNL     1     -11.081   6.835  66.966  1.00  0.00    -0.369 A  
HETATM   28  C   UNL     1     -10.565   5.687  66.365  1.00  0.00    -0.254 A  
HETATM   29  C   UNL     1      -9.222   5.625  65.971  1.00  0.00    -0.152 A  
HETATM   30 CL   UNL     1      -8.710   4.136  65.265  1.00  0.00    -0.118 Cl 
HETATM   31  C   UNL     1      -8.379   6.726  66.157  1.00  0.00    -0.130 A  
HETATM   32  C   UNL     1      -8.937   7.909  66.701  1.00  0.00    -0.179 A  
HETATM   33  C   UNL     1      -6.901   6.723  65.854  1.00  0.00    -0.056 C  
HETATM   34  F   UNL     1      -6.562   7.654  64.920  1.00  0.00    -0.045 F  
HETATM   35  F   UNL     1      -6.165   7.034  66.964  1.00  0.00    -0.034 F  
HETATM   36  F   UNL     1      -6.378   5.551  65.406  1.00  0.00    -0.033 F  
ENDBRANCH  24  26
ENDBRANCH  22  24
ENDBRANCH  20  22
ENDBRANCH  17  20
ENDBRANCH  12  13
ENDBRANCH   8  12
ENDBRANCH   3   6
TORSDOF 7
ENDMDL
MODEL      336
REMARK 921   NORMALIZED FREE ENERGY PREDICTED BY IDOCK:   -2.67 KCAL/MOL
REMARK 922        TOTAL FREE ENERGY PREDICTED BY IDOCK:   -5.75 KCAL/MOL
REMARK 923 INTER-LIGAND FREE ENERGY PREDICTED BY IDOCK:   -5.16 KCAL/MOL
REMARK 924 INTRA-LIGAND FREE ENERGY PREDICTED BY IDOCK:   -0.59 KCAL/MOL
REMARK 927      BINDING AFFINITY PREDICTED BY RF-SCORE:    0.00 PKD
ROOT
HETATM    1  C   UNL     1     -10.669   3.691  63.351  1.00  0.00    -0.227 C  
HETATM    2  N   UNL     1     -10.212   4.270  64.584  1.00  0.00    -0.381 N  
HETATM    3  C   UNL     1      -9.028   4.975  64.645  1.00  0.00    -0.073 C  
HETATM    4  H   UNL     1     -10.772   4.158  65.429  1.00  0.00     0.000 HD 
HETATM    5  O   UNL     1      -8.322   5.201  63.669  1.00  0.00    -0.125 OA 
ENDROOT
BRANCH   3   6
HETATM    6  C   UNL     1      -8.643   5.455  66.010  1.00  0.00    -0.127 A  
HETATM    7  C   UNL     1      -7.623   6.389  66.123  1.00  0.00    -0.090 A  
HETATM    8  C   UNL     1      -7.306   6.856  67.393  1.00  0.00    -0.092 A  
HETATM    9  C   UNL     1      -7.966   6.333  68.500  1.00  0.00    -0.105 A  
HETATM   10  N   UNL     1      -9.326   4.939  67.070  1.00  0.00    -0.123 NA 
HETATM   11  C   UNL     1      -8.961   5.391  68.290  1.00  0.00    -0.108 A  
BRANCH   8  12
HETATM   12  O   UNL     1      -6.303   7.765  67.641  1.00  0.00    -0.048 OA 
BRANCH  12  13
HETATM   13  C   UNL     1      -6.565   9.114  67.527  1.00  0.00    -0.065 A  
HETATM   14  C   UNL     1      -5.864   9.797  66.531  1.00  0.00    -0.054 A  
HETATM   15  C   UNL     1      -6.035  11.171  66.390  1.00  0.00    -0.145 A  
HETATM   16  F   UNL     1      -5.348  11.824  65.441  1.00  0.00     0.313 F  
HETATM   17  C   UNL     1      -6.851  11.888  67.267  1.00  0.00    -0.142 A  
HETATM   18  C   UNL     1      -7.405   9.820  68.396  1.00  0.00    -0.078 A  
HETATM   19  C   UNL     1      -7.554  11.205  68.262  1.00  0.00    -0.111 A  
BRANCH  17  20
HETATM   20  N   UNL     1      -6.934  13.293  67.140  1.00  0.00    -0.319 N  
HETATM   21  H   UNL     1      -7.166  13.708  66.237  1.00  0.00     0.000 HD 
BRANCH  20  22
HETATM   22  C   UNL     1      -6.700  14.112  68.237  1.00  0.00    -0.108 C  
HETATM   23  O   UNL     1      -5.598  14.304  68.745  1.00  0.00    -0.081 OA 
BRANCH  22  24
HETATM   24  N   UNL     1      -7.877  14.675  68.691  1.00  0.00    -0.132 N  
HETATM   25  H   UNL     1      -8.207  14.447  69.629  1.00  0.00     0.000 HD 
BRANCH  24  26
HETATM   26  C   UNL     1      -8.632  15.556  67.893  1.00  0.00    -0.155 A  
HETATM   27  C   UNL     1      -9.288  15.045  66.778  1.00  0.00    -0.271 A  
HETATM   28  C   UNL     1     -10.040  15.896  65.969  1.00  0.00    -0.359 A  
HETATM   29  C   UNL     1     -10.086  17.273  66.221  1.00  0.00    -0.316 A  
HETATM   30 CL   UNL     1     -11.032  18.212  65.126  1.00  0.00     0.347 Cl 
HETATM   31  C   UNL     1      -9.389  17.816  67.307  1.00  0.00    -0.254 A  
HETATM   32  C   UNL     1      -8.691  16.929  68.162  1.00  0.00    -0.226 A  
HETATM   33  C   UNL     1      -9.300  19.292  67.604  1.00  0.00    -0.307 C  
HETATM   34  F   UNL     1      -9.815  19.607  68.825  1.00  0.00    -0.426 F  
HETATM   35  F   UNL     1      -8.000  19.715  67.637  1.00  0.00    -0.287 F  
HETATM   36  F   UNL     1      -9.915  20.125  66.723  1.00  0.00    -0.480 F  
ENDBRANCH  24  26
ENDBRANCH  22  24
ENDBRANCH  20  22
ENDBRANCH  17  20
ENDBRANCH  12  13
ENDBRANCH   8  12
ENDBRANCH   3   6
TORSDOF 7
ENDMDL
MODEL      337
REMARK 921   NORMALIZED FREE ENERGY PREDICTED BY IDOCK:   -2.55 KCAL/MOL
REMARK 922        TOTAL FREE ENERGY PREDICTED BY IDOCK:   -5.58 KCAL/MOL
REMARK 923 INTER-LIGAND FREE ENERGY PREDICTED BY IDOCK:   -4.66 KCAL/MOL
REMARK 924 INTRA-LIGAND FREE ENERGY PREDICTED BY IDOCK:   -0.92 KCAL/MOL
REMARK 927      BINDING AFFINITY PREDICTED BY RF-SCORE:    0.00 PKD
ROOT
HETATM    1  C   UNL     1     -10.819   3.908  62.330  1.00  0.00    -0.127 C  
HETATM    2  N   UNL     1     -10.100   4.045  63.567  1.00  0.00    -0.289 N  
HETATM    3  C   UNL     1      -8.724   4.113  63.588  1.00  0.00    -0.116 C  
HETATM    4  H   UNL     1     -10.618   4.092  64.445  1.00  0.00     0.000 HD 
HETATM    5  O   UNL     1      -8.029   4.116  62.578  1.00  0.00    -0.064 OA 
ENDROOT
BRANCH   3   6
HETATM    6  C   UNL     1      -8.110   4.179  64.953  1.00  0.00    -0.094 A  
HETATM    7  C   UNL     1      -7.124   5.125  65.194  1.00  0.00    -0.063 A  
HETATM    8  C   UNL     1      -6.595   5.201  66.476  1.00  0.00    -0.049 A  
HETATM    9  C   UNL     1      -7.017   4.299  67.447  1.00  0.00    -0.063 A  
HETATM   10  N   UNL     1      -8.563   3.295  65.885  1.00  0.00    -0.115 NA 
HETATM   11  C   UNL     1      -7.996   3.377  67.108  1.00  0.00    -0.079 A  
BRANCH   8  12
HETATM   12  O   UNL     1      -5.600   6.080  66.837  1.00  0.00    -0.012 OA 
BRANCH  12  13
HETATM   13  C   UNL     1      -5.937   7.326  67.323  1.00  0.00    -0.041 A  
HETATM   14  C   UNL     1      -6.458   7.363  68.618  1.00  0.00    -0.044 A  
HETATM   15  C   UNL     1      -6.871   8.577  69.158  1.00  0.00    -0.058 A  
HETATM   16  F   UNL     1      -7.384   8.605  70.398  1.00  0.00    -0.048 F  
HETATM   17  C   UNL     1      -6.828   9.752  68.404  1.00  0.00    -0.060 A  
HETATM   18  C   UNL     1      -5.867   8.502  66.568  1.00  0.00    -0.051 A  
HETATM   19  C   UNL     1      -6.305   9.716  67.109  1.00  0.00    -0.065 A  
BRANCH  17  20
HETATM   20  N   UNL     1      -7.332  10.949  68.962  1.00  0.00    -0.103 N  
HETATM   21  H   UNL     1      -6.738  11.516  69.567  1.00  0.00     0.000 HD 
BRANCH  20  22
HETATM   22  C   UNL     1      -8.631  11.356  68.689  1.00  0.00    -0.126 C  
HETATM   23  O   UNL     1      -9.628  10.970  69.295  1.00  0.00    -0.124 OA 
BRANCH  22  24
HETATM   24  N   UNL     1      -8.656  12.250  67.635  1.00  0.00    -0.159 N  
HETATM   25  H   UNL     1      -8.720  11.891  66.682  1.00  0.00     0.000 HD 
BRANCH  24  26
HETATM   26  C   UNL     1      -8.596  13.641  67.843  1.00  0.00    -0.181 A  
HETATM   27  C   UNL     1      -7.436  14.317  67.479  1.00  0.00    -0.201 A  
HETATM   28  C   UNL     1      -7.348  15.695  67.676  1.00  0.00    -0.190 A  
HETATM   29  C   UNL     1      -8.385  16.398  68.303  1.00  0.00    -0.189 A  
HETATM   30 CL   UNL     1      -8.134  18.093  68.508  1.00  0.00    -0.309 Cl 
HETATM   31  C   UNL     1      -9.539  15.728  68.725  1.00  0.00    -0.216 A  
HETATM   32  C   UNL     1      -9.645  14.343  68.451  1.00  0.00    -0.219 A  
HETATM   33  C   UNL     1     -10.664  16.379  69.491  1.00  0.00    -0.325 C  
HETATM   34  F   UNL     1     -11.852  16.308  68.827  1.00  0.00    -0.360 F  
HETATM   35  F   UNL     1     -10.878  15.753  70.688  1.00  0.00    -0.298 F  
HETATM   36  F   UNL     1     -10.502  17.691  69.807  1.00  0.00    -0.225 F  
ENDBRANCH  24  26
ENDBRANCH  22  24
ENDBRANCH  20  22
ENDBRANCH  17  20
ENDBRANCH  12  13
ENDBRANCH   8  12
ENDBRANCH   3   6
TORSDOF 7
ENDMDL
MODEL      338
REMARK 921   NORMALIZED FREE ENERGY PREDICTED BY IDOCK:   -2.54 KCAL/MOL
REMARK 922        TOTAL FREE ENERGY PREDICTED BY IDOCK:   -5.57 KCAL/MOL
REMARK 923 INTER-LIGAND FREE ENERGY PREDICTED BY IDOCK:   -6.22 KCAL/MOL
REMARK 924 INTRA-LIGAND FREE ENERGY PREDICTED BY IDOCK:    0.65 KCAL/MOL
REMARK 927      BINDING AFFINITY PREDICTED BY RF-SCORE:    0.00 PKD
ROOT
HETATM    1  C   UNL     1      -9.165  17.320  66.814  1.00  0.00    -0.255 C  
HETATM    2  N   UNL     1      -8.955  15.900  66.757  1.00  0.00    -0.228 N  
HETATM    3  C   UNL     1      -9.838  15.024  67.353  1.00  0.00    -0.224 C  
HETATM    4  H   UNL     1      -8.139  15.532  66.268  1.00  0.00     0.000 HD 
HETATM    5  O   UNL     1     -10.869  15.378  67.916  1.00  0.00    -0.281 OA 
ENDROOT
BRANCH   3   6
HETATM    6  C   UNL     1      -9.451  13.580  67.276  1.00  0.00    -0.230 A  
HETATM    7  C   UNL     1      -8.919  12.973  68.405  1.00  0.00    -0.126 A  
HETATM    8  C   UNL     1      -8.603  11.622  68.331  1.00  0.00    -0.156 A  
HETATM    9  C   UNL     1      -8.768  10.945  67.127  1.00  0.00    -0.132 A  
HETATM   10  N   UNL     1      -9.647  12.942  66.089  1.00  0.00    -0.244 NA 
HETATM   11  C   UNL     1      -9.292  11.639  66.047  1.00  0.00    -0.227 A  
BRANCH   8  12
HETATM   12  O   UNL     1      -8.052  10.911  69.372  1.00  0.00    -0.103 OA 
BRANCH  12  13
HETATM   13  C   UNL     1      -8.757   9.867  69.931  1.00  0.00    -0.201 A  
HETATM   14  C   UNL     1     -10.149   9.975  69.900  1.00  0.00    -0.289 A  
HETATM   15  C   UNL     1     -10.928   8.986  70.493  1.00  0.00    -0.252 A  
HETATM   16  F   UNL     1     -12.265   9.103  70.473  1.00  0.00    -0.227 F  
HETATM   17  C   UNL     1     -10.340   7.917  71.171  1.00  0.00    -0.200 A  
HETATM   18  C   UNL     1      -8.158   8.786  70.587  1.00  0.00    -0.145 A  
HETATM   19  C   UNL     1      -8.948   7.807  71.201  1.00  0.00    -0.146 A  
BRANCH  17  20
HETATM   20  N   UNL     1     -11.167   6.978  71.828  1.00  0.00    -0.240 N  
HETATM   21  H   UNL     1     -11.979   6.591  71.346  1.00  0.00     0.000 HD 
BRANCH  20  22
HETATM   22  C   UNL     1     -10.879   6.578  73.126  1.00  0.00    -0.257 C  
HETATM   23  O   UNL     1     -10.642   7.343  74.058  1.00  0.00    -0.284 OA 
BRANCH  22  24
HETATM   24  N   UNL     1     -10.884   5.200  73.231  1.00  0.00    -0.268 N  
HETATM   25  H   UNL     1     -11.247   4.768  74.080  1.00  0.00     0.000 HD 
BRANCH  24  26
HETATM   26  C   UNL     1     -10.402   4.378  72.194  1.00  0.00    -0.143 A  
HETATM   27  C   UNL     1     -10.393   3.000  72.389  1.00  0.00    -0.149 A  
HETATM   28  C   UNL     1      -9.917   2.163  71.380  1.00  0.00    -0.106 A  
HETATM   29  C   UNL     1      -9.380   2.693  70.200  1.00  0.00    -0.123 A  
HETATM   30 CL   UNL     1      -8.804   1.545  69.048  1.00  0.00    -0.105 Cl 
HETATM   31  C   UNL     1      -9.331   4.078  70.006  1.00  0.00    -0.242 A  
HETATM   32  C   UNL     1      -9.885   4.913  71.008  1.00  0.00    -0.266 A  
HETATM   33  C   UNL     1      -8.687   4.745  68.816  1.00  0.00    -0.093 C  
HETATM   34  F   UNL     1      -9.571   5.499  68.104  1.00  0.00    -0.110 F  
HETATM   35  F   UNL     1      -7.701   5.610  69.202  1.00  0.00    -0.081 F  
HETATM   36  F   UNL     1      -8.096   3.924  67.909  1.00  0.00    -0.085 F  
ENDBRANCH  24  26
ENDBRANCH  22  24
ENDBRANCH  20  22
ENDBRANCH  17  20
ENDBRANCH  12  13
ENDBRANCH   8  12
ENDBRANCH   3   6
TORSDOF 7
ENDMDL
MODEL      339
REMARK 921   NORMALIZED FREE ENERGY PREDICTED BY IDOCK:   -2.44 KCAL/MOL
REMARK 922        TOTAL FREE ENERGY PREDICTED BY IDOCK:   -5.43 KCAL/MOL
REMARK 923 INTER-LIGAND FREE ENERGY PREDICTED BY IDOCK:   -5.14 KCAL/MOL
REMARK 924 INTRA-LIGAND FREE ENERGY PREDICTED BY IDOCK:   -0.28 KCAL/MOL
REMARK 927      BINDING AFFINITY PREDICTED BY RF-SCORE:    0.00 PKD
ROOT
HETATM    1  C   UNL     1      -7.700  20.456  67.749  1.00  0.00    -0.230 C  
HETATM    2  N   UNL     1      -7.868  19.039  67.574  1.00  0.00    -0.239 N  
HETATM    3  C   UNL     1      -8.868  18.533  66.771  1.00  0.00    -0.282 C  
HETATM    4  H   UNL     1      -7.236  18.397  68.052  1.00  0.00     0.000 HD 
HETATM    5  O   UNL     1      -9.636  19.235  66.122  1.00  0.00    -0.353 OA 
ENDROOT
BRANCH   3   6
HETATM    6  C   UNL     1      -8.968  17.040  66.744  1.00  0.00    -0.244 A  
HETATM    7  C   UNL     1      -7.868  16.292  67.141  1.00  0.00    -0.225 A  
HETATM    8  C   UNL     1      -7.990  14.909  67.150  1.00  0.00    -0.195 A  
HETATM    9  C   UNL     1      -9.172  14.322  66.707  1.00  0.00    -0.282 A  
HETATM   10  N   UNL     1     -10.146  16.500  66.326  1.00  0.00    -0.317 NA 
HETATM   11  C   UNL     1     -10.212  15.150  66.313  1.00  0.00    -0.288 A  
BRANCH   8  12
HETATM   12  O   UNL     1      -6.969  14.057  67.502  1.00  0.00    -0.177 OA 
BRANCH  12  13
HETATM   13  C   UNL     1      -7.228  12.711  67.654  1.00  0.00    -0.142 A  
HETATM   14  C   UNL     1      -6.667  11.863  66.697  1.00  0.00     0.084 A  
HETATM   15  C   UNL     1      -6.928  10.497  66.752  1.00  0.00    -0.104 A  
HETATM   16  F   UNL     1      -6.397   9.689  65.821  1.00  0.00    -0.066 F  
HETATM   17  C   UNL     1      -7.790   9.967  67.714  1.00  0.00    -0.094 A  
HETATM   18  C   UNL     1      -8.074  12.186  68.638  1.00  0.00    -0.048 A  
HETATM   19  C   UNL     1      -8.349  10.815  68.673  1.00  0.00    -0.141 A  
BRANCH  17  20
HETATM   20  N   UNL     1      -8.091   8.587  67.686  1.00  0.00    -0.107 N  
HETATM   21  H   UNL     1      -7.364   7.904  67.902  1.00  0.00     0.000 HD 
BRANCH  20  22
HETATM   22  C   UNL     1      -9.371   8.155  67.365  1.00  0.00    -0.141 C  
HETATM   23  O   UNL     1     -10.407   8.712  67.720  1.00  0.00    -0.222 OA 
BRANCH  22  24
HETATM   24  N   UNL     1      -9.327   7.005  66.600  1.00  0.00    -0.160 N  
HETATM   25  H   UNL     1      -9.621   7.046  65.625  1.00  0.00     0.000 HD 
BRANCH  24  26
HETATM   26  C   UNL     1      -8.885   5.778  67.133  1.00  0.00    -0.107 A  
HETATM   27  C   UNL     1      -8.363   4.826  66.264  1.00  0.00    -0.111 A  
HETATM   28  C   UNL     1      -7.921   3.602  66.764  1.00  0.00    -0.091 A  
HETATM   29  C   UNL     1      -8.063   3.288  68.122  1.00  0.00    -0.073 A  
HETATM   30 CL   UNL     1      -7.499   1.729  68.600  1.00  0.00    -0.043 Cl 
HETATM   31  C   UNL     1      -8.635   4.211  69.004  1.00  0.00    -0.111 A  
HETATM   32  C   UNL     1      -9.010   5.478  68.495  1.00  0.00    -0.114 A  
HETATM   33  C   UNL     1      -8.916   3.930  70.460  1.00  0.00    -0.096 C  
HETATM   34  F   UNL     1      -8.251   4.781  71.290  1.00  0.00    -0.092 F  
HETATM   35  F   UNL     1     -10.241   4.098  70.752  1.00  0.00    -0.260 F  
HETATM   36  F   UNL     1      -8.616   2.680  70.903  1.00  0.00    -0.071 F  
ENDBRANCH  24  26
ENDBRANCH  22  24
ENDBRANCH  20  22
ENDBRANCH  17  20
ENDBRANCH  12  13
ENDBRANCH   8  12
ENDBRANCH   3   6
TORSDOF 7
ENDMDL
MODEL      340
REMARK 921   NORMALIZED FREE ENERGY PREDICTED BY IDOCK:   -2.38 KCAL/MOL
REMARK 922        TOTAL FREE ENERGY PREDICTED BY IDOCK:   -5.35 KCAL/MOL
REMARK 923 INTER-LIGAND FREE ENERGY PREDICTED BY IDOCK:   -5.19 KCAL/MOL
REMARK 924 INTRA-LIGAND FREE ENERGY PREDICTED BY IDOCK:   -0.16 KCAL/MOL
REMARK 927      BINDING AFFINITY PREDICTED BY RF-SCORE:    0.00 PKD
ROOT
HETATM    1  C   UNL     1      -9.203  17.352  66.781  1.00  0.00    -0.260 C  
HETATM    2  N   UNL     1      -9.007  15.937  66.626  1.00  0.00    -0.241 N  
HETATM    3  C   UNL     1      -9.883  15.031  67.185  1.00  0.00    -0.233 C  
HETATM    4  H   UNL     1      -8.206  15.597  66.095  1.00  0.00     0.000 HD 
HETATM    5  O   UNL     1     -10.897  15.354  67.794  1.00  0.00    -0.285 OA 
ENDROOT
BRANCH   3   6
HETATM    6  C   UNL     1      -9.510  13.592  67.005  1.00  0.00    -0.251 A  
HETATM    7  C   UNL     1      -8.857  12.940  68.042  1.00  0.00    -0.195 A  
HETATM    8  C   UNL     1      -8.555  11.594  67.876  1.00  0.00    -0.150 A  
HETATM    9  C   UNL     1      -8.854  10.967  66.670  1.00  0.00    -0.168 A  
HETATM   10  N   UNL     1      -9.838  13.004  65.821  1.00  0.00    -0.248 NA 
HETATM   11  C   UNL     1      -9.493  11.705  65.685  1.00  0.00    -0.209 A  
BRANCH   8  12
HETATM   12  O   UNL     1      -7.893  10.841  68.818  1.00  0.00    -0.112 OA 
BRANCH  12  13
HETATM   13  C   UNL     1      -8.540   9.783  69.420  1.00  0.00    -0.165 A  
HETATM   14  C   UNL     1      -9.854   9.550  69.012  1.00  0.00    -0.178 A  
HETATM   15  C   UNL     1     -10.590   8.533  69.614  1.00  0.00    -0.220 A  
HETATM   16  F   UNL     1     -11.858   8.323  69.228  1.00  0.00     0.506 F  
HETATM   17  C   UNL     1     -10.055   7.780  70.661  1.00  0.00    -0.191 A  
HETATM   18  C   UNL     1      -7.985   9.017  70.453  1.00  0.00    -0.134 A  
HETATM   19  C   UNL     1      -8.739   8.011  71.068  1.00  0.00    -0.146 A  
BRANCH  17  20
HETATM   20  N   UNL     1     -10.864   6.811  71.297  1.00  0.00    -0.227 N  
HETATM   21  H   UNL     1     -11.113   5.954  70.804  1.00  0.00     0.000 HD 
BRANCH  20  22
HETATM   22  C   UNL     1     -11.320   7.021  72.592  1.00  0.00    -0.252 C  
HETATM   23  O   UNL     1     -11.593   8.119  73.069  1.00  0.00    -0.309 OA 
BRANCH  22  24
HETATM   24  N   UNL     1     -11.417   5.826  73.280  1.00  0.00    -0.481 N  
HETATM   25  H   UNL     1     -12.325   5.533  73.640  1.00  0.00     0.000 HD 
BRANCH  24  26
HETATM   26  C   UNL     1     -10.295   5.003  73.496  1.00  0.00    -0.209 A  
HETATM   27  C   UNL     1     -10.467   3.817  74.202  1.00  0.00    -0.268 A  
HETATM   28  C   UNL     1      -9.373   2.985  74.434  1.00  0.00    -0.104 A  
HETATM   29  C   UNL     1      -8.086   3.361  74.027  1.00  0.00    -0.071 A  
HETATM   30 CL   UNL     1      -6.820   2.251  74.400  1.00  0.00    -0.026 Cl 
HETATM   31  C   UNL     1      -7.882   4.575  73.362  1.00  0.00    -0.091 A  
HETATM   32  C   UNL     1      -9.014   5.374  73.069  1.00  0.00    -0.119 A  
HETATM   33  C   UNL     1      -6.527   5.110  72.970  1.00  0.00    -0.060 C  
HETATM   34  F   UNL     1      -6.410   5.291  71.625  1.00  0.00    -0.028 F  
HETATM   35  F   UNL     1      -6.298   6.340  73.523  1.00  0.00    -0.060 F  
HETATM   36  F   UNL     1      -5.453   4.359  73.331  1.00  0.00    -0.006 F  
ENDBRANCH  24  26
ENDBRANCH  22  24
ENDBRANCH  20  22
ENDBRANCH  17  20
ENDBRANCH  12  13
ENDBRANCH   8  12
ENDBRANCH   3   6
TORSDOF 7
ENDMDL
MODEL      341
REMARK 921   NORMALIZED FREE ENERGY PREDICTED BY IDOCK:   -2.20 KCAL/MOL
REMARK 922        TOTAL FREE ENERGY PREDICTED BY IDOCK:   -5.09 KCAL/MOL
REMARK 923 INTER-LIGAND FREE ENERGY PREDICTED BY IDOCK:   -5.38 KCAL/MOL
REMARK 924 INTRA-LIGAND FREE ENERGY PREDICTED BY IDOCK:    0.28 KCAL/MOL
REMARK 927      BINDING AFFINITY PREDICTED BY RF-SCORE:    0.00 PKD
ROOT
HETATM    1  C   UNL     1     -10.234  20.160  69.229  1.00  0.00     0.006 C  
HETATM    2  N   UNL     1      -9.042  19.619  68.636  1.00  0.00    -0.324 N  
HETATM    3  C   UNL     1      -8.996  18.316  68.188  1.00  0.00    -0.302 C  
HETATM    4  H   UNL     1      -8.215  20.209  68.544  1.00  0.00     0.000 HD 
HETATM    5  O   UNL     1      -9.959  17.556  68.213  1.00  0.00    -0.292 OA 
ENDROOT
BRANCH   3   6
HETATM    6  C   UNL     1      -7.667  17.869  67.663  1.00  0.00    -0.213 A  
HETATM    7  C   UNL     1      -7.272  16.557  67.884  1.00  0.00    -0.153 A  
HETATM    8  C   UNL     1      -6.055  16.147  67.355  1.00  0.00    -0.154 A  
HETATM    9  C   UNL     1      -5.253  17.066  66.685  1.00  0.00    -0.150 A  
HETATM   10  N   UNL     1      -6.918  18.789  66.994  1.00  0.00    -0.202 NA 
HETATM   11  C   UNL     1      -5.725  18.361  66.529  1.00  0.00    -0.150 A  
BRANCH   8  12
HETATM   12  O   UNL     1      -5.541  14.881  67.520  1.00  0.00    -0.333 OA 
BRANCH  12  13
HETATM   13  C   UNL     1      -6.394  13.798  67.535  1.00  0.00    -0.045 A  
HETATM   14  C   UNL     1      -7.759  14.088  67.584  1.00  0.00    -0.188 A  
HETATM   15  C   UNL     1      -8.680  13.047  67.657  1.00  0.00    -0.189 A  
HETATM   16  F   UNL     1      -9.990  13.331  67.718  1.00  0.00    -0.205 F  
HETATM   17  C   UNL     1      -8.259  11.718  67.741  1.00  0.00    -0.144 A  
HETATM   18  C   UNL     1      -5.963  12.468  67.595  1.00  0.00    -0.136 A  
HETATM   19  C   UNL     1      -6.894  11.428  67.690  1.00  0.00    -0.080 A  
BRANCH  17  20
HETATM   20  N   UNL     1      -9.224  10.697  67.894  1.00  0.00    -0.147 N  
HETATM   21  H   UNL     1      -9.489  10.384  68.829  1.00  0.00     0.000 HD 
BRANCH  20  22
HETATM   22  C   UNL     1      -9.814  10.117  66.779  1.00  0.00    -0.196 C  
HETATM   23  O   UNL     1     -10.044  10.704  65.724  1.00  0.00    -0.245 OA 
BRANCH  22  24
HETATM   24  N   UNL     1     -10.119   8.790  67.016  1.00  0.00    -0.239 N  
HETATM   25  H   UNL     1     -11.031   8.552  67.404  1.00  0.00     0.000 HD 
BRANCH  24  26
HETATM   26  C   UNL     1      -9.202   7.759  66.735  1.00  0.00    -0.163 A  
HETATM   27  C   UNL     1      -7.842   8.044  66.797  1.00  0.00    -0.103 A  
HETATM   28  C   UNL     1      -6.912   7.042  66.521  1.00  0.00    -0.069 A  
HETATM   29  C   UNL     1      -7.329   5.769  66.110  1.00  0.00    -0.078 A  
HETATM   30 CL   UNL     1      -6.074   4.634  65.775  1.00  0.00    -0.026 Cl 
HETATM   31  C   UNL     1      -8.692   5.477  65.989  1.00  0.00    -0.141 A  
HETATM   32  C   UNL     1      -9.624   6.482  66.345  1.00  0.00    -0.151 A  
HETATM   33  C   UNL     1      -9.236   4.170  65.465  1.00  0.00    -0.149 C  
HETATM   34  F   UNL     1     -10.014   3.528  66.380  1.00  0.00    -0.159 F  
HETATM   35  F   UNL     1     -10.041   4.367  64.377  1.00  0.00    -0.168 F  
HETATM   36  F   UNL     1      -8.319   3.253  65.059  1.00  0.00    -0.092 F  
ENDBRANCH  24  26
ENDBRANCH  22  24
ENDBRANCH  20  22
ENDBRANCH  17  20
ENDBRANCH  12  13
ENDBRANCH   8  12
ENDBRANCH   3   6
TORSDOF 7
ENDMDL
MODEL      342
REMARK 921   NORMALIZED FREE ENERGY PREDICTED BY IDOCK:   -2.13 KCAL/MOL
REMARK 922        TOTAL FREE ENERGY PREDICTED BY IDOCK:   -5.00 KCAL/MOL
REMARK 923 INTER-LIGAND FREE ENERGY PREDICTED BY IDOCK:   -5.05 KCAL/MOL
REMARK 924 INTRA-LIGAND FREE ENERGY PREDICTED BY IDOCK:    0.06 KCAL/MOL
REMARK 927      BINDING AFFINITY PREDICTED BY RF-SCORE:    0.00 PKD
ROOT
HETATM    1  C   UNL     1      -5.792  15.071  71.417  1.00  0.00     0.233 C  
HETATM    2  N   UNL     1      -6.424  15.359  70.159  1.00  0.00    -0.112 N  
HETATM    3  C   UNL     1      -6.046  16.451  69.406  1.00  0.00    -0.177 C  
HETATM    4  H   UNL     1      -7.164  14.747  69.817  1.00  0.00     0.000 HD 
HETATM    5  O   UNL     1      -5.133  17.207  69.717  1.00  0.00    -0.152 OA 
ENDROOT
BRANCH   3   6
HETATM    6  C   UNL     1      -6.843  16.667  68.157  1.00  0.00    -0.144 A  
HETATM    7  C   UNL     1      -7.726  15.677  67.751  1.00  0.00    -0.159 A  
HETATM    8  C   UNL     1      -8.488  15.911  66.613  1.00  0.00    -0.287 A  
HETATM    9  C   UNL     1      -8.299  17.085  65.890  1.00  0.00    -0.016 A  
HETATM   10  N   UNL     1      -6.649  17.837  67.487  1.00  0.00    -0.162 NA 
HETATM   11  C   UNL     1      -7.381  18.009  66.364  1.00  0.00    -0.257 A  
BRANCH   8  12
HETATM   12  O   UNL     1      -9.382  15.002  66.096  1.00  0.00    -0.291 OA 
BRANCH  12  13
HETATM   13  C   UNL     1      -9.451  13.734  66.634  1.00  0.00    -0.279 A  
HETATM   14  C   UNL     1     -10.725  13.170  66.723  1.00  0.00    -0.274 A  
HETATM   15  C   UNL     1     -10.881  11.915  67.304  1.00  0.00    -0.247 A  
HETATM   16  F   UNL     1     -12.110  11.384  67.400  1.00  0.00    -0.224 F  
HETATM   17  C   UNL     1      -9.792  11.236  67.854  1.00  0.00    -0.176 A  
HETATM   18  C   UNL     1      -8.349  13.050  67.160  1.00  0.00    -0.153 A  
HETATM   19  C   UNL     1      -8.517  11.799  67.762  1.00  0.00    -0.147 A  
BRANCH  17  20
HETATM   20  N   UNL     1     -10.007  10.000  68.505  1.00  0.00    -0.157 N  
HETATM   21  H   UNL     1      -9.987   9.132  67.969  1.00  0.00     0.000 HD 
BRANCH  20  22
HETATM   22  C   UNL     1     -10.245   9.961  69.873  1.00  0.00    -0.257 C  
HETATM   23  O   UNL     1     -11.327  10.203  70.403  1.00  0.00    -0.278 OA 
BRANCH  22  24
HETATM   24  N   UNL     1      -9.097   9.624  70.564  1.00  0.00    -0.321 N  
HETATM   25  H   UNL     1      -8.701  10.292  71.225  1.00  0.00     0.000 HD 
BRANCH  24  26
HETATM   26  C   UNL     1      -8.459   8.382  70.378  1.00  0.00    -0.130 A  
HETATM   27  C   UNL     1      -7.463   8.007  71.273  1.00  0.00    -0.072 A  
HETATM   28  C   UNL     1      -6.813   6.784  71.111  1.00  0.00    -0.058 A  
HETATM   29  C   UNL     1      -7.100   5.957  70.017  1.00  0.00    -0.071 A  
HETATM   30 CL   UNL     1      -6.204   4.486  69.924  1.00  0.00    -0.025 Cl 
HETATM   31  C   UNL     1      -8.062   6.341  69.075  1.00  0.00    -0.110 A  
HETATM   32  C   UNL     1      -8.765   7.550  69.294  1.00  0.00    -0.136 A  
HETATM   33  C   UNL     1      -8.371   5.567  67.817  1.00  0.00    -0.099 C  
HETATM   34  F   UNL     1      -9.669   5.157  67.768  1.00  0.00    -0.134 F  
HETATM   35  F   UNL     1      -8.191   6.338  66.702  1.00  0.00    -0.105 F  
HETATM   36  F   UNL     1      -7.628   4.451  67.595  1.00  0.00    -0.073 F  
ENDBRANCH  24  26
ENDBRANCH  22  24
ENDBRANCH  20  22
ENDBRANCH  17  20
ENDBRANCH  12  13
ENDBRANCH   8  12
ENDBRANCH   3   6
TORSDOF 7
ENDMDL
MODEL      343
REMARK 921   NORMALIZED FREE ENERGY PREDICTED BY IDOCK:   -2.13 KCAL/MOL
REMARK 922        TOTAL FREE ENERGY PREDICTED BY IDOCK:   -4.99 KCAL/MOL
REMARK 923 INTER-LIGAND FREE ENERGY PREDICTED BY IDOCK:   -4.40 KCAL/MOL
REMARK 924 INTRA-LIGAND FREE ENERGY PREDICTED BY IDOCK:   -0.59 KCAL/MOL
REMARK 927      BINDING AFFINITY PREDICTED BY RF-SCORE:    0.00 PKD
ROOT
HETATM    1  C   UNL     1      -9.447   4.052  71.720  1.00  0.00    -0.145 C  
HETATM    2  N   UNL     1      -9.781   5.415  71.410  1.00  0.00    -0.156 N  
HETATM    3  C   UNL     1      -9.881   6.367  72.401  1.00  0.00    -0.166 C  
HETATM    4  H   UNL     1      -9.947   5.682  70.440  1.00  0.00     0.000 HD 
HETATM    5  O   UNL     1      -9.647   6.143  73.584  1.00  0.00    -0.142 OA 
ENDROOT
BRANCH   3   6
HETATM    6  C   UNL     1     -10.309   7.726  71.938  1.00  0.00    -0.207 A  
HETATM    7  C   UNL     1      -9.413   8.490  71.204  1.00  0.00    -0.249 A  
HETATM    8  C   UNL     1      -9.839   9.731  70.746  1.00  0.00    -0.032 A  
HETATM    9  C   UNL     1     -11.109  10.188  71.086  1.00  0.00    -0.144 A  
HETATM   10  N   UNL     1     -11.565   8.132  72.270  1.00  0.00    -0.348 NA 
HETATM   11  C   UNL     1     -11.928   9.360  71.839  1.00  0.00    -0.346 A  
BRANCH   8  12
HETATM   12  O   UNL     1      -9.042  10.591  70.027  1.00  0.00     0.131 OA 
BRANCH  12  13
HETATM   13  C   UNL     1      -8.533  10.189  68.810  1.00  0.00    -0.131 A  
HETATM   14  C   UNL     1      -8.627  11.112  67.767  1.00  0.00    -0.131 A  
HETATM   15  C   UNL     1      -8.183  10.759  66.496  1.00  0.00    -0.148 A  
HETATM   16  F   UNL     1      -8.289  11.644  65.493  1.00  0.00     0.024 F  
HETATM   17  C   UNL     1      -7.698   9.476  66.233  1.00  0.00    -0.101 A  
HETATM   18  C   UNL     1      -8.026   8.908  68.563  1.00  0.00    -0.104 A  
HETATM   19  C   UNL     1      -7.602   8.553  67.278  1.00  0.00    -0.097 A  
BRANCH  17  20
HETATM   20  N   UNL     1      -7.333   9.133  64.911  1.00  0.00    -0.099 N  
HETATM   21  H   UNL     1      -6.347   9.098  64.650  1.00  0.00     0.000 HD 
BRANCH  20  22
HETATM   22  C   UNL     1      -8.309   8.843  63.967  1.00  0.00    -0.164 C  
HETATM   23  O   UNL     1      -9.043   9.676  63.441  1.00  0.00    -0.248 OA 
BRANCH  22  24
HETATM   24  N   UNL     1      -8.353   7.488  63.704  1.00  0.00    -0.369 N  
HETATM   25  H   UNL     1      -8.819   7.161  62.857  1.00  0.00     0.000 HD 
BRANCH  24  26
HETATM   26  C   UNL     1      -7.771   6.545  64.574  1.00  0.00    -0.108 A  
HETATM   27  C   UNL     1      -6.454   6.159  64.350  1.00  0.00    -0.034 A  
HETATM   28  C   UNL     1      -5.854   5.225  65.194  1.00  0.00    -0.017 A  
HETATM   29  C   UNL     1      -6.583   4.615  66.223  1.00  0.00    -0.045 A  
HETATM   30 CL   UNL     1      -5.726   3.459  67.174  1.00  0.00    -0.022 Cl 
HETATM   31  C   UNL     1      -7.926   4.950  66.432  1.00  0.00    -0.107 A  
HETATM   32  C   UNL     1      -8.499   5.954  65.614  1.00  0.00    -0.153 A  
HETATM   33  C   UNL     1      -8.817   4.281  67.449  1.00  0.00    -0.110 C  
HETATM   34  F   UNL     1      -9.302   5.160  68.371  1.00  0.00    -0.115 F  
HETATM   35  F   UNL     1      -9.920   3.729  66.858  1.00  0.00    -0.238 F  
HETATM   36  F   UNL     1      -8.263   3.270  68.168  1.00  0.00    -0.075 F  
ENDBRANCH  24  26
ENDBRANCH  22  24
ENDBRANCH  20  22
ENDBRANCH  17  20
ENDBRANCH  12  13
ENDBRANCH   8  12
ENDBRANCH   3   6
TORSDOF 7
ENDMDL
MODEL      344
REMARK 921   NORMALIZED FREE ENERGY PREDICTED BY IDOCK:   -2.11 KCAL/MOL
REMARK 922        TOTAL FREE ENERGY PREDICTED BY IDOCK:   -4.96 KCAL/MOL
REMARK 923 INTER-LIGAND FREE ENERGY PREDICTED BY IDOCK:   -3.92 KCAL/MOL
REMARK 924 INTRA-LIGAND FREE ENERGY PREDICTED BY IDOCK:   -1.04 KCAL/MOL
REMARK 927      BINDING AFFINITY PREDICTED BY RF-SCORE:    0.00 PKD
ROOT
HETATM    1  C   UNL     1     -11.352  17.593  71.853  1.00  0.00     2.259 C  
HETATM    2  N   UNL     1     -11.362  16.746  70.692  1.00  0.00    -0.377 N  
HETATM    3  C   UNL     1     -10.749  17.134  69.520  1.00  0.00    -0.015 C  
HETATM    4  H   UNL     1     -11.831  15.841  70.737  1.00  0.00     0.000 HD 
HETATM    5  O   UNL     1     -10.121  18.179  69.397  1.00  0.00    -0.200 OA 
ENDROOT
BRANCH   3   6
HETATM    6  C   UNL     1     -10.907  16.182  68.374  1.00  0.00    -0.318 A  
HETATM    7  C   UNL     1     -11.360  14.897  68.635  1.00  0.00    -0.309 A  
HETATM    8  C   UNL     1     -11.539  14.039  67.557  1.00  0.00    -0.367 A  
HETATM    9  C   UNL     1     -11.205  14.468  66.276  1.00  0.00    -0.342 A  
HETATM   10  N   UNL     1     -10.591  16.642  67.132  1.00  0.00    -0.299 NA 
HETATM   11  C   UNL     1     -10.744  15.766  66.116  1.00  0.00    -0.290 A  
BRANCH   8  12
HETATM   12  O   UNL     1     -11.963  12.736  67.684  1.00  0.00    -0.354 OA 
BRANCH  12  13
HETATM   13  C   UNL     1     -11.039  11.741  67.920  1.00  0.00    -0.245 A  
HETATM   14  C   UNL     1     -10.570  11.055  66.797  1.00  0.00    -0.317 A  
HETATM   15  C   UNL     1      -9.676  10.001  66.960  1.00  0.00    -0.181 A  
HETATM   16  F   UNL     1      -9.240   9.337  65.878  1.00  0.00    -0.188 F  
HETATM   17  C   UNL     1      -9.286   9.578  68.232  1.00  0.00    -0.130 A  
HETATM   18  C   UNL     1     -10.634  11.340  69.199  1.00  0.00    -0.222 A  
HETATM   19  C   UNL     1      -9.753  10.265  69.355  1.00  0.00    -0.242 A  
BRANCH  17  20
HETATM   20  N   UNL     1      -8.439   8.453  68.355  1.00  0.00    -0.134 N  
HETATM   21  H   UNL     1      -7.444   8.583  68.539  1.00  0.00     0.000 HD 
BRANCH  20  22
HETATM   22  C   UNL     1      -8.956   7.170  68.228  1.00  0.00    -0.125 C  
HETATM   23  O   UNL     1      -8.596   6.350  67.388  1.00  0.00    -0.109 OA 
BRANCH  22  24
HETATM   24  N   UNL     1      -9.942   6.940  69.170  1.00  0.00    -0.159 N  
HETATM   25  H   UNL     1     -10.885   7.286  68.995  1.00  0.00     0.000 HD 
BRANCH  24  26
HETATM   26  C   UNL     1      -9.677   6.242  70.363  1.00  0.00    -0.165 A  
HETATM   27  C   UNL     1      -9.218   6.959  71.464  1.00  0.00    -0.151 A  
HETATM   28  C   UNL     1      -8.944   6.292  72.658  1.00  0.00    -0.129 A  
HETATM   29  C   UNL     1      -9.057   4.898  72.744  1.00  0.00    -0.126 A  
HETATM   30 CL   UNL     1      -8.662   4.201  74.271  1.00  0.00    -0.096 Cl 
HETATM   31  C   UNL     1      -9.465   4.152  71.633  1.00  0.00    -0.216 A  
HETATM   32  C   UNL     1      -9.810   4.851  70.450  1.00  0.00    -0.302 A  
HETATM   33  C   UNL     1      -9.524   2.645  71.599  1.00  0.00    -0.137 C  
HETATM   34  F   UNL     1     -10.780   2.181  71.348  1.00  0.00     0.207 F  
HETATM   35  F   UNL     1      -8.743   2.139  70.597  1.00  0.00    -0.073 F  
HETATM   36  F   UNL     1      -9.115   1.998  72.722  1.00  0.00    -0.070 F  
ENDBRANCH  24  26
ENDBRANCH  22  24
ENDBRANCH  20  22
ENDBRANCH  17  20
ENDBRANCH  12  13
ENDBRANCH   8  12
ENDBRANCH   3   6
TORSDOF 7
ENDMDL
MODEL      345
REMARK 921   NORMALIZED FREE ENERGY PREDICTED BY IDOCK:   -1.82 KCAL/MOL
REMARK 922        TOTAL FREE ENERGY PREDICTED BY IDOCK:   -4.54 KCAL/MOL
REMARK 923 INTER-LIGAND FREE ENERGY PREDICTED BY IDOCK:   -3.75 KCAL/MOL
REMARK 924 INTRA-LIGAND FREE ENERGY PREDICTED BY IDOCK:   -0.79 KCAL/MOL
REMARK 927      BINDING AFFINITY PREDICTED BY RF-SCORE:    0.00 PKD
ROOT
HETATM    1  C   UNL     1      -6.374  14.540  72.529  1.00  0.00     1.106 C  
HETATM    2  N   UNL     1      -6.663  14.838  71.153  1.00  0.00     0.160 N  
HETATM    3  C   UNL     1      -6.022  15.866  70.496  1.00  0.00     0.059 C  
HETATM    4  H   UNL     1      -7.354  14.278  70.653  1.00  0.00     0.000 HD 
HETATM    5  O   UNL     1      -5.143  16.553  71.006  1.00  0.00    -0.207 OA 
ENDROOT
BRANCH   3   6
HETATM    6  C   UNL     1      -6.478  16.107  69.091  1.00  0.00    -0.166 A  
HETATM    7  C   UNL     1      -7.545  15.366  68.602  1.00  0.00    -0.129 A  
HETATM    8  C   UNL     1      -7.983  15.629  67.311  1.00  0.00    -0.197 A  
HETATM    9  C   UNL     1      -7.309  16.568  66.536  1.00  0.00    -0.229 A  
HETATM   10  N   UNL     1      -5.810  17.048  68.369  1.00  0.00    -0.134 NA 
HETATM   11  C   UNL     1      -6.242  17.248  67.105  1.00  0.00    -0.161 A  
BRANCH   8  12
HETATM   12  O   UNL     1      -9.015  14.952  66.704  1.00  0.00    -0.255 OA 
BRANCH  12  13
HETATM   13  C   UNL     1      -9.191  13.609  66.961  1.00  0.00    -0.250 A  
HETATM   14  C   UNL     1     -10.496  13.200  67.246  1.00  0.00    -0.243 A  
HETATM   15  C   UNL     1     -10.744  11.870  67.569  1.00  0.00    -0.225 A  
HETATM   16  F   UNL     1     -11.998  11.486  67.856  1.00  0.00    -0.363 F  
HETATM   17  C   UNL     1      -9.701  10.947  67.671  1.00  0.00    -0.171 A  
HETATM   18  C   UNL     1      -8.141  12.686  67.037  1.00  0.00    -0.088 A  
HETATM   19  C   UNL     1      -8.396  11.354  67.384  1.00  0.00    -0.144 A  
BRANCH  17  20
HETATM   20  N   UNL     1      -9.987   9.624  68.080  1.00  0.00    -0.154 N  
HETATM   21  H   UNL     1     -10.687   9.078  67.578  1.00  0.00     0.000 HD 
BRANCH  20  22
HETATM   22  C   UNL     1      -9.318   9.065  69.161  1.00  0.00    -0.148 C  
HETATM   23  O   UNL     1      -9.384   9.480  70.315  1.00  0.00    -0.229 OA 
BRANCH  22  24
HETATM   24  N   UNL     1      -8.557   7.982  68.763  1.00  0.00    -0.127 N  
HETATM   25  H   UNL     1      -7.649   7.827  69.200  1.00  0.00     0.000 HD 
BRANCH  24  26
HETATM   26  C   UNL     1      -9.003   7.089  67.769  1.00  0.00    -0.121 A  
HETATM   27  C   UNL     1     -10.232   6.462  67.943  1.00  0.00    -0.200 A  
HETATM   28  C   UNL     1     -10.696   5.571  66.977  1.00  0.00    -0.286 A  
HETATM   29  C   UNL     1      -9.909   5.242  65.865  1.00  0.00    -0.088 A  
HETATM   30 CL   UNL     1     -10.594   4.107  64.762  1.00  0.00    -0.239 Cl 
HETATM   31  C   UNL     1      -8.646   5.821  65.698  1.00  0.00    -0.151 A  
HETATM   32  C   UNL     1      -8.220   6.780  66.650  1.00  0.00    -0.115 A  
HETATM   33  C   UNL     1      -7.688   5.461  64.590  1.00  0.00    -0.090 C  
HETATM   34  F   UNL     1      -7.381   6.529  63.802  1.00  0.00    -0.053 F  
HETATM   35  F   UNL     1      -6.493   5.021  65.088  1.00  0.00    -0.032 F  
HETATM   36  F   UNL     1      -8.091   4.483  63.736  1.00  0.00    -0.083 F  
ENDBRANCH  24  26
ENDBRANCH  22  24
ENDBRANCH  20  22
ENDBRANCH  17  20
ENDBRANCH  12  13
ENDBRANCH   8  12
ENDBRANCH   3   6
TORSDOF 7
ENDMDL
MODEL      346
REMARK 921   NORMALIZED FREE ENERGY PREDICTED BY IDOCK:   -1.72 KCAL/MOL
REMARK 922        TOTAL FREE ENERGY PREDICTED BY IDOCK:   -4.42 KCAL/MOL
REMARK 923 INTER-LIGAND FREE ENERGY PREDICTED BY IDOCK:   -4.13 KCAL/MOL
REMARK 924 INTRA-LIGAND FREE ENERGY PREDICTED BY IDOCK:   -0.29 KCAL/MOL
REMARK 927      BINDING AFFINITY PREDICTED BY RF-SCORE:    0.00 PKD
ROOT
HETATM    1  C   UNL     1     -13.444   8.836  71.341  1.00  0.00    -0.245 C  
HETATM    2  N   UNL     1     -12.421   9.475  70.559  1.00  0.00    -0.487 N  
HETATM    3  C   UNL     1     -11.275   8.800  70.197  1.00  0.00    -0.152 C  
HETATM    4  H   UNL     1     -12.546  10.444  70.267  1.00  0.00     0.000 HD 
HETATM    5  O   UNL     1     -11.069   7.621  70.462  1.00  0.00    -0.251 OA 
ENDROOT
BRANCH   3   6
HETATM    6  C   UNL     1     -10.266   9.616  69.449  1.00  0.00    -0.209 A  
HETATM    7  C   UNL     1      -8.991   9.748  69.980  1.00  0.00    -0.255 A  
HETATM    8  C   UNL     1      -8.055  10.473  69.254  1.00  0.00    -0.148 A  
HETATM    9  C   UNL     1      -8.436  11.088  68.065  1.00  0.00    -0.129 A  
HETATM   10  N   UNL     1     -10.667  10.185  68.278  1.00  0.00    -0.222 NA 
HETATM   11  C   UNL     1      -9.738  10.913  67.621  1.00  0.00    -0.171 A  
BRANCH   8  12
HETATM   12  O   UNL     1      -6.766  10.693  69.680  1.00  0.00    -0.084 OA 
BRANCH  12  13
HETATM   13  C   UNL     1      -6.280  11.982  69.738  1.00  0.00    -0.136 A  
HETATM   14  C   UNL     1      -6.330  12.606  70.986  1.00  0.00     1.224 A  
HETATM   15  C   UNL     1      -5.908  13.926  71.111  1.00  0.00    -0.194 A  
HETATM   16  F   UNL     1      -5.972  14.525  72.310  1.00  0.00    -0.070 F  
HETATM   17  C   UNL     1      -5.489  14.657  69.998  1.00  0.00    -0.107 A  
HETATM   18  C   UNL     1      -5.838  12.699  68.619  1.00  0.00    -0.063 A  
HETATM   19  C   UNL     1      -5.436  14.033  68.750  1.00  0.00    -0.082 A  
BRANCH  17  20
HETATM   20  N   UNL     1      -5.144  16.019  70.156  1.00  0.00    -0.127 N  
HETATM   21  H   UNL     1      -4.213  16.272  70.488  1.00  0.00     0.000 HD 
BRANCH  20  22
HETATM   22  C   UNL     1      -6.067  17.014  69.861  1.00  0.00    -0.185 C  
HETATM   23  O   UNL     1      -5.779  18.143  69.472  1.00  0.00    -0.209 OA 
BRANCH  22  24
HETATM   24  N   UNL     1      -7.357  16.568  70.074  1.00  0.00     0.606 N  
HETATM   25  H   UNL     1      -7.675  16.404  71.029  1.00  0.00     0.000 HD 
BRANCH  24  26
HETATM   26  C   UNL     1      -8.245  16.334  69.006  1.00  0.00    -0.238 A  
HETATM   27  C   UNL     1      -8.262  15.072  68.421  1.00  0.00    -0.151 A  
HETATM   28  C   UNL     1      -9.130  14.814  67.360  1.00  0.00    -0.202 A  
HETATM   29  C   UNL     1      -9.934  15.829  66.827  1.00  0.00    -0.252 A  
HETATM   30 CL   UNL     1     -10.940  15.379  65.499  1.00  0.00    -0.349 Cl 
HETATM   31  C   UNL     1      -9.893  17.120  67.367  1.00  0.00    -0.264 A  
HETATM   32  C   UNL     1      -9.063  17.347  68.491  1.00  0.00    -0.273 A  
HETATM   33  C   UNL     1     -10.648  18.299  66.803  1.00  0.00    -0.312 C  
HETATM   34  F   UNL     1     -11.522  18.832  67.701  1.00  0.00    -0.218 F  
HETATM   35  F   UNL     1      -9.801  19.319  66.470  1.00  0.00    -0.326 F  
HETATM   36  F   UNL     1     -11.377  18.069  65.679  1.00  0.00     0.154 F  
ENDBRANCH  24  26
ENDBRANCH  22  24
ENDBRANCH  20  22
ENDBRANCH  17  20
ENDBRANCH  12  13
ENDBRANCH   8  12
ENDBRANCH   3   6
TORSDOF 7
ENDMDL
MODEL      347
REMARK 921   NORMALIZED FREE ENERGY PREDICTED BY IDOCK:   -1.72 KCAL/MOL
REMARK 922        TOTAL FREE ENERGY PREDICTED BY IDOCK:   -4.40 KCAL/MOL
REMARK 923 INTER-LIGAND FREE ENERGY PREDICTED BY IDOCK:   -3.69 KCAL/MOL
REMARK 924 INTRA-LIGAND FREE ENERGY PREDICTED BY IDOCK:   -0.71 KCAL/MOL
REMARK 927      BINDING AFFINITY PREDICTED BY RF-SCORE:    0.00 PKD
ROOT
HETATM    1  C   UNL     1     -10.437   6.555  69.375  1.00  0.00    -0.221 C  
HETATM    2  N   UNL     1      -9.279   7.383  69.180  1.00  0.00    -0.147 N  
HETATM    3  C   UNL     1      -9.092   8.082  68.007  1.00  0.00    -0.129 C  
HETATM    4  H   UNL     1      -8.583   7.455  69.922  1.00  0.00     0.000 HD 
HETATM    5  O   UNL     1      -9.903   8.093  67.087  1.00  0.00    -0.177 OA 
ENDROOT
BRANCH   3   6
HETATM    6  C   UNL     1      -7.805   8.842  67.916  1.00  0.00    -0.102 A  
HETATM    7  C   UNL     1      -7.683  10.029  68.625  1.00  0.00    -0.086 A  
HETATM    8  C   UNL     1      -6.469  10.701  68.564  1.00  0.00    -0.054 A  
HETATM    9  C   UNL     1      -5.450  10.205  67.757  1.00  0.00    -0.041 A  
HETATM   10  N   UNL     1      -6.822   8.316  67.134  1.00  0.00    -0.069 NA 
HETATM   11  C   UNL     1      -5.671   9.020  67.071  1.00  0.00    -0.045 A  
BRANCH   8  12
HETATM   12  O   UNL     1      -6.227  11.895  69.204  1.00  0.00    -0.070 OA 
BRANCH  12  13
HETATM   13  C   UNL     1      -6.579  13.078  68.590  1.00  0.00    -0.092 A  
HETATM   14  C   UNL     1      -6.913  14.137  69.437  1.00  0.00    -0.078 A  
HETATM   15  C   UNL     1      -7.331  15.347  68.892  1.00  0.00    -0.147 A  
HETATM   16  F   UNL     1      -7.665  16.356  69.711  1.00  0.00    -0.136 F  
HETATM   17  C   UNL     1      -7.478  15.502  67.512  1.00  0.00    -0.182 A  
HETATM   18  C   UNL     1      -6.699  13.232  67.204  1.00  0.00     0.272 A  
HETATM   19  C   UNL     1      -7.141  14.444  66.664  1.00  0.00     1.664 A  
BRANCH  17  20
HETATM   20  N   UNL     1      -7.981  16.722  67.004  1.00  0.00    -0.180 N  
HETATM   21  H   UNL     1      -7.349  17.508  66.852  1.00  0.00     0.000 HD 
BRANCH  20  22
HETATM   22  C   UNL     1      -9.332  16.854  66.710  1.00  0.00    -0.251 C  
HETATM   23  O   UNL     1     -10.020  17.829  67.003  1.00  0.00    -0.297 OA 
BRANCH  22  24
HETATM   24  N   UNL     1      -9.805  15.734  66.052  1.00  0.00    -0.311 N  
HETATM   25  H   UNL     1      -9.795  15.717  65.032  1.00  0.00     0.000 HD 
BRANCH  24  26
HETATM   26  C   UNL     1     -10.301  14.618  66.753  1.00  0.00    -0.268 A  
HETATM   27  C   UNL     1     -10.179  13.361  66.170  1.00  0.00    -0.301 A  
HETATM   28  C   UNL     1     -10.664  12.238  66.841  1.00  0.00    -0.264 A  
HETATM   29  C   UNL     1     -11.338  12.367  68.062  1.00  0.00    -0.287 A  
HETATM   30 CL   UNL     1     -11.910  10.901  68.769  1.00  0.00    -0.356 Cl 
HETATM   31  C   UNL     1     -11.519  13.629  68.640  1.00  0.00    -0.342 A  
HETATM   32  C   UNL     1     -10.956  14.750  67.983  1.00  0.00    -0.276 A  
HETATM   33  C   UNL     1     -12.312  13.879  69.899  1.00  0.00    -0.300 C  
HETATM   34  F   UNL     1     -11.556  14.438  70.884  1.00  0.00    -0.336 F  
HETATM   35  F   UNL     1     -13.332  14.762  69.677  1.00  0.00     0.158 F  
HETATM   36  F   UNL     1     -12.905  12.795  70.465  1.00  0.00    -0.241 F  
ENDBRANCH  24  26
ENDBRANCH  22  24
ENDBRANCH  20  22
ENDBRANCH  17  20
ENDBRANCH  12  13
ENDBRANCH   8  12
ENDBRANCH   3   6
TORSDOF 7
ENDMDL
MODEL      348
REMARK 921   NORMALIZED FREE ENERGY PREDICTED BY IDOCK:   -1.44 KCAL/MOL
REMARK 922        TOTAL FREE ENERGY PREDICTED BY IDOCK:   -4.01 KCAL/MOL
REMARK 923 INTER-LIGAND FREE ENERGY PREDICTED BY IDOCK:   -5.01 KCAL/MOL
REMARK 924 INTRA-LIGAND FREE ENERGY PREDICTED BY IDOCK:    1.00 KCAL/MOL
REMARK 927      BINDING AFFINITY PREDICTED BY RF-SCORE:    0.00 PKD
ROOT
HETATM    1  C   UNL     1      -8.951   7.799  66.386  1.00  0.00    -0.163 C  
HETATM    2  N   UNL     1      -9.747   8.913  65.950  1.00  0.00    -0.423 N  
HETATM    3  C   UNL     1      -9.287   9.784  64.986  1.00  0.00    -0.263 C  
HETATM    4  H   UNL     1     -10.669   9.061  66.360  1.00  0.00     0.000 HD 
HETATM    5  O   UNL     1      -8.215   9.650  64.405  1.00  0.00    -0.137 OA 
ENDROOT
BRANCH   3   6
HETATM    6  C   UNL     1     -10.193  10.939  64.686  1.00  0.00    -0.345 A  
HETATM    7  C   UNL     1     -10.179  12.033  65.540  1.00  0.00    -0.290 A  
HETATM    8  C   UNL     1     -10.995  13.113  65.226  1.00  0.00    -0.285 A  
HETATM    9  C   UNL     1     -11.833  13.040  64.118  1.00  0.00    -0.478 A  
HETATM   10  N   UNL     1     -10.984  10.842  63.582  1.00  0.00     0.003 NA 
HETATM   11  C   UNL     1     -11.789  11.898  63.333  1.00  0.00    -0.413 A  
BRANCH   8  12
HETATM   12  O   UNL     1     -11.088  14.246  66.000  1.00  0.00    -0.310 OA 
BRANCH  12  13
HETATM   13  C   UNL     1     -10.233  14.412  67.069  1.00  0.00    -0.263 A  
HETATM   14  C   UNL     1      -9.009  13.744  66.990  1.00  0.00    -0.247 A  
HETATM   15  C   UNL     1      -8.116  13.819  68.055  1.00  0.00    -0.163 A  
HETATM   16  F   UNL     1      -6.948  13.163  67.980  1.00  0.00    -0.073 F  
HETATM   17  C   UNL     1      -8.447  14.504  69.225  1.00  0.00     0.100 A  
HETATM   18  C   UNL     1     -10.564  15.122  68.229  1.00  0.00    -0.243 A  
HETATM   19  C   UNL     1      -9.670  15.175  69.303  1.00  0.00    -0.225 A  
BRANCH  17  20
HETATM   20  N   UNL     1      -7.544  14.489  70.313  1.00  0.00    -0.100 N  
HETATM   21  H   UNL     1      -7.895  14.359  71.262  1.00  0.00     0.000 HD 
BRANCH  20  22
HETATM   22  C   UNL     1      -6.182  14.650  70.095  1.00  0.00    -0.165 C  
HETATM   23  O   UNL     1      -5.691  15.400  69.255  1.00  0.00    -0.096 OA 
BRANCH  22  24
HETATM   24  N   UNL     1      -5.449  13.844  70.945  1.00  0.00    -0.151 N  
HETATM   25  H   UNL     1      -4.740  14.268  71.543  1.00  0.00     0.000 HD 
BRANCH  24  26
HETATM   26  C   UNL     1      -5.655  12.452  71.006  1.00  0.00    -0.061 A  
HETATM   27  C   UNL     1      -5.148  11.753  72.096  1.00  0.00     0.213 A  
HETATM   28  C   UNL     1      -5.335  10.374  72.181  1.00  0.00     0.178 A  
HETATM   29  C   UNL     1      -5.965   9.670  71.146  1.00  0.00    -0.072 A  
HETATM   30 CL   UNL     1      -6.106   7.965  71.368  1.00  0.00    -0.034 Cl 
HETATM   31  C   UNL     1      -6.435  10.346  70.016  1.00  0.00    -0.126 A  
HETATM   32  C   UNL     1      -6.304  11.756  69.979  1.00  0.00    -0.092 A  
HETATM   33  C   UNL     1      -7.039   9.667  68.811  1.00  0.00    -0.067 C  
HETATM   34  F   UNL     1      -8.320  10.068  68.579  1.00  0.00    -0.104 F  
HETATM   35  F   UNL     1      -6.350   9.971  67.670  1.00  0.00    -0.056 F  
HETATM   36  F   UNL     1      -7.083   8.309  68.842  1.00  0.00    -0.060 F  
ENDBRANCH  24  26
ENDBRANCH  22  24
ENDBRANCH  20  22
ENDBRANCH  17  20
ENDBRANCH  12  13
ENDBRANCH   8  12
ENDBRANCH   3   6
TORSDOF 7
ENDMDL
MODEL      349
REMARK 921   NORMALIZED FREE ENERGY PREDICTED BY IDOCK:   -1.38 KCAL/MOL
REMARK 922        TOTAL FREE ENERGY PREDICTED BY IDOCK:   -3.93 KCAL/MOL
REMARK 923 INTER-LIGAND FREE ENERGY PREDICTED BY IDOCK:   -3.25 KCAL/MOL
REMARK 924 INTRA-LIGAND FREE ENERGY PREDICTED BY IDOCK:   -0.68 KCAL/MOL
REMARK 927      BINDING AFFINITY PREDICTED BY RF-SCORE:    0.00 PKD
ROOT
HETATM    1  C   UNL     1     -11.353  17.621  71.860  1.00  0.00     2.259 C  
HETATM    2  N   UNL     1     -11.351  16.838  70.654  1.00  0.00    -0.377 N  
HETATM    3  C   UNL     1     -10.737  17.296  69.508  1.00  0.00     0.099 C  
HETATM    4  H   UNL     1     -11.811  15.928  70.647  1.00  0.00     0.000 HD 
HETATM    5  O   UNL     1     -10.118  18.353  69.446  1.00  0.00    -0.188 OA 
ENDROOT
BRANCH   3   6
HETATM    6  C   UNL     1     -10.881  16.408  68.311  1.00  0.00    -0.347 A  
HETATM    7  C   UNL     1     -11.323  15.106  68.498  1.00  0.00    -0.321 A  
HETATM    8  C   UNL     1     -11.490  14.307  67.374  1.00  0.00    -0.347 A  
HETATM    9  C   UNL     1     -11.154  14.808  66.121  1.00  0.00    -0.339 A  
HETATM   10  N   UNL     1     -10.564  16.938  67.098  1.00  0.00    -0.290 NA 
HETATM   11  C   UNL     1     -10.704  16.117  66.034  1.00  0.00    -0.241 A  
BRANCH   8  12
HETATM   12  O   UNL     1     -11.902  12.996  67.427  1.00  0.00    -0.358 OA 
BRANCH  12  13
HETATM   13  C   UNL     1     -10.970  11.996  67.608  1.00  0.00    -0.238 A  
HETATM   14  C   UNL     1      -9.654  12.310  67.262  1.00  0.00    -0.187 A  
HETATM   15  C   UNL     1      -8.666  11.335  67.365  1.00  0.00    -0.139 A  
HETATM   16  F   UNL     1      -7.406  11.638  67.018  1.00  0.00    -0.117 F  
HETATM   17  C   UNL     1      -8.979  10.031  67.753  1.00  0.00    -0.131 A  
HETATM   18  C   UNL     1     -11.290  10.698  68.022  1.00  0.00    -0.350 A  
HETATM   19  C   UNL     1     -10.295   9.718  68.102  1.00  0.00    -0.241 A  
BRANCH  17  20
HETATM   20  N   UNL     1      -7.959   9.052  67.768  1.00  0.00    -0.101 N  
HETATM   21  H   UNL     1      -7.539   8.770  68.654  1.00  0.00     0.000 HD 
BRANCH  20  22
HETATM   22  C   UNL     1      -7.528   8.471  66.583  1.00  0.00    -0.082 C  
HETATM   23  O   UNL     1      -6.375   8.512  66.162  1.00  0.00    -0.052 OA 
BRANCH  22  24
HETATM   24  N   UNL     1      -8.575   7.848  65.930  1.00  0.00    -0.147 N  
HETATM   25  H   UNL     1      -9.222   8.412  65.379  1.00  0.00     0.000 HD 
BRANCH  24  26
HETATM   26  C   UNL     1      -8.771   6.456  66.007  1.00  0.00    -0.151 A  
HETATM   27  C   UNL     1      -9.514   5.947  67.067  1.00  0.00    -0.134 A  
HETATM   28  C   UNL     1      -9.721   4.572  67.168  1.00  0.00    -0.227 A  
HETATM   29  C   UNL     1      -9.129   3.687  66.257  1.00  0.00    -0.154 A  
HETATM   30 CL   UNL     1      -9.446   2.011  66.516  1.00  0.00     0.121 Cl 
HETATM   31  C   UNL     1      -8.333   4.174  65.214  1.00  0.00    -0.109 A  
HETATM   32  C   UNL     1      -8.194   5.577  65.081  1.00  0.00    -0.141 A  
HETATM   33  C   UNL     1      -7.579   3.300  64.244  1.00  0.00    -0.076 C  
HETATM   34  F   UNL     1      -7.965   3.505  62.954  1.00  0.00    -0.066 F  
HETATM   35  F   UNL     1      -6.239   3.569  64.269  1.00  0.00    -0.020 F  
HETATM   36  F   UNL     1      -7.670   1.958  64.442  1.00  0.00    -0.059 F  
ENDBRANCH  24  26
ENDBRANCH  22  24
ENDBRANCH  20  22
ENDBRANCH  17  20
ENDBRANCH  12  13
ENDBRANCH   8  12
ENDBRANCH   3   6
TORSDOF 7
ENDMDL
MODEL      350
REMARK 921   NORMALIZED FREE ENERGY PREDICTED BY IDOCK:   -1.19 KCAL/MOL
REMARK 922        TOTAL FREE ENERGY PREDICTED BY IDOCK:   -3.67 KCAL/MOL
REMARK 923 INTER-LIGAND FREE ENERGY PREDICTED BY IDOCK:   -3.50 KCAL/MOL
REMARK 924 INTRA-LIGAND FREE ENERGY PREDICTED BY IDOCK:   -0.17 KCAL/MOL
REMARK 927      BINDING AFFINITY PREDICTED BY RF-SCORE:    0.00 PKD
ROOT
HETATM    1  C   UNL     1     -13.509   8.818  71.343  1.00  0.00    -0.245 C  
HETATM    2  N   UNL     1     -12.785   9.450  70.274  1.00  0.00    -0.200 N  
HETATM    3  C   UNL     1     -11.607   8.915  69.797  1.00  0.00     0.312 C  
HETATM    4  H   UNL     1     -13.148  10.309  69.861  1.00  0.00     0.000 HD 
HETATM    5  O   UNL     1     -11.128   7.860  70.201  1.00  0.00    -0.255 OA 
ENDROOT
BRANCH   3   6
HETATM    6  C   UNL     1     -10.926   9.721  68.735  1.00  0.00    -0.148 A  
HETATM    7  C   UNL     1      -9.626  10.153  68.958  1.00  0.00    -0.202 A  
HETATM    8  C   UNL     1      -8.994  10.864  67.947  1.00  0.00    -0.141 A  
HETATM    9  C   UNL     1      -9.693  11.171  66.783  1.00  0.00    -0.220 A  
HETATM   10  N   UNL     1     -11.633   9.984  67.600  1.00  0.00     0.107 NA 
HETATM   11  C   UNL     1     -10.995  10.710  66.657  1.00  0.00    -0.074 A  
BRANCH   8  12
HETATM   12  O   UNL     1      -7.717  11.364  68.052  1.00  0.00    -0.103 OA 
BRANCH  12  13
HETATM   13  C   UNL     1      -7.510  12.725  67.968  1.00  0.00    -0.122 A  
HETATM   14  C   UNL     1      -7.167  13.372  69.157  1.00  0.00     0.041 A  
HETATM   15  C   UNL     1      -6.995  14.753  69.163  1.00  0.00    -0.138 A  
HETATM   16  F   UNL     1      -6.679  15.371  70.311  1.00  0.00    -0.145 F  
HETATM   17  C   UNL     1      -7.218  15.511  68.011  1.00  0.00    -0.121 A  
HETATM   18  C   UNL     1      -7.712  13.473  66.802  1.00  0.00     0.560 A  
HETATM   19  C   UNL     1      -7.559  14.864  66.821  1.00  0.00     0.361 A  
BRANCH  17  20
HETATM   20  N   UNL     1      -7.111  16.918  68.080  1.00  0.00    -0.160 N  
HETATM   21  H   UNL     1      -6.229  17.373  67.842  1.00  0.00     0.000 HD 
BRANCH  20  22
HETATM   22  C   UNL     1      -8.200  17.686  68.470  1.00  0.00    -0.292 C  
HETATM   23  O   UNL     1      -8.124  18.774  69.035  1.00  0.00    -0.257 OA 
BRANCH  22  24
HETATM   24  N   UNL     1      -9.387  17.056  68.148  1.00  0.00    -0.247 N  
HETATM   25  H   UNL     1      -9.690  17.037  67.174  1.00  0.00     0.000 HD 
BRANCH  24  26
HETATM   26  C   UNL     1     -10.189  16.441  69.129  1.00  0.00    -0.280 A  
HETATM   27  C   UNL     1     -10.444  17.133  70.308  1.00  0.00     0.631 A  
HETATM   28  C   UNL     1     -11.232  16.547  71.297  1.00  0.00     0.084 A  
HETATM   29  C   UNL     1     -11.713  15.239  71.151  1.00  0.00    -0.360 A  
HETATM   30 CL   UNL     1     -12.652  14.627  72.462  1.00  0.00    -0.411 Cl 
HETATM   31  C   UNL     1     -11.423  14.505  69.995  1.00  0.00    -0.311 A  
HETATM   32  C   UNL     1     -10.684  15.141  68.968  1.00  0.00    -0.239 A  
HETATM   33  C   UNL     1     -11.813  13.062  69.787  1.00  0.00    -0.311 C  
HETATM   34  F   UNL     1     -12.624  12.896  68.706  1.00  0.00    -0.054 F  
HETATM   35  F   UNL     1     -10.718  12.280  69.545  1.00  0.00    -0.148 F  
HETATM   36  F   UNL     1     -12.454  12.454  70.820  1.00  0.00    -0.414 F  
ENDBRANCH  24  26
ENDBRANCH  22  24
ENDBRANCH  20  22
ENDBRANCH  17  20
ENDBRANCH  12  13
ENDBRANCH   8  12
ENDBRANCH   3   6
TORSDOF 7
ENDMDL
MODEL      351
REMARK 921   NORMALIZED FREE ENERGY PREDICTED BY IDOCK:   -1.15 KCAL/MOL
REMARK 922        TOTAL FREE ENERGY PREDICTED BY IDOCK:   -3.61 KCAL/MOL
REMARK 923 INTER-LIGAND FREE ENERGY PREDICTED BY IDOCK:   -3.07 KCAL/MOL
REMARK 924 INTRA-LIGAND FREE ENERGY PREDICTED BY IDOCK:   -0.54 KCAL/MOL
REMARK 927      BINDING AFFINITY PREDICTED BY RF-SCORE:    0.00 PKD
ROOT
HETATM    1  C   UNL     1     -13.442   8.836  71.341  1.00  0.00    -0.245 C  
HETATM    2  N   UNL     1     -12.428   9.481  70.554  1.00  0.00    -0.487 N  
HETATM    3  C   UNL     1     -11.285   8.811  70.176  1.00  0.00    -0.152 C  
HETATM    4  H   UNL     1     -12.557  10.452  70.269  1.00  0.00     0.000 HD 
HETATM    5  O   UNL     1     -11.075   7.629  70.431  1.00  0.00    -0.259 OA 
ENDROOT
BRANCH   3   6
HETATM    6  C   UNL     1     -10.284   9.632  69.423  1.00  0.00    -0.209 A  
HETATM    7  C   UNL     1      -9.002   9.755  69.939  1.00  0.00    -0.254 A  
HETATM    8  C   UNL     1      -8.074  10.486  69.208  1.00  0.00    -0.148 A  
HETATM    9  C   UNL     1      -8.470  11.115  68.031  1.00  0.00    -0.135 A  
HETATM   10  N   UNL     1     -10.700  10.215  68.265  1.00  0.00    -0.222 NA 
HETATM   11  C   UNL     1      -9.778  10.949  67.603  1.00  0.00    -0.171 A  
BRANCH   8  12
HETATM   12  O   UNL     1      -6.779  10.699  69.619  1.00  0.00    -0.084 OA 
BRANCH  12  13
HETATM   13  C   UNL     1      -6.290  11.986  69.688  1.00  0.00    -0.120 A  
HETATM   14  C   UNL     1      -6.322  12.592  70.946  1.00  0.00     0.995 A  
HETATM   15  C   UNL     1      -5.896  13.910  71.084  1.00  0.00    -0.194 A  
HETATM   16  F   UNL     1      -5.943  14.492  72.293  1.00  0.00    -0.070 F  
HETATM   17  C   UNL     1      -5.492  14.656  69.976  1.00  0.00    -0.107 A  
HETATM   18  C   UNL     1      -5.863  12.718  68.574  1.00  0.00    -0.061 A  
HETATM   19  C   UNL     1      -5.457  14.050  68.718  1.00  0.00    -0.082 A  
BRANCH  17  20
HETATM   20  N   UNL     1      -5.143  16.015  70.148  1.00  0.00    -0.127 N  
HETATM   21  H   UNL     1      -4.207  16.262  70.471  1.00  0.00     0.000 HD 
BRANCH  20  22
HETATM   22  C   UNL     1      -6.068  17.015  69.880  1.00  0.00    -0.185 C  
HETATM   23  O   UNL     1      -6.166  18.066  70.509  1.00  0.00     0.123 OA 
BRANCH  22  24
HETATM   24  N   UNL     1      -6.875  16.667  68.813  1.00  0.00    -0.169 N  
HETATM   25  H   UNL     1      -7.480  15.851  68.895  1.00  0.00     0.000 HD 
BRANCH  24  26
HETATM   26  C   UNL     1      -6.882  17.410  67.617  1.00  0.00    -0.154 A  
HETATM   27  C   UNL     1      -5.843  17.220  66.711  1.00  0.00    -0.227 A  
HETATM   28  C   UNL     1      -5.823  17.944  65.520  1.00  0.00    -0.131 A  
HETATM   29  C   UNL     1      -6.798  18.915  65.254  1.00  0.00    -0.085 A  
HETATM   30 CL   UNL     1      -6.638  19.756  63.756  1.00  0.00     0.512 Cl 
HETATM   31  C   UNL     1      -7.822  19.160  66.175  1.00  0.00    -0.298 A  
HETATM   32  C   UNL     1      -7.870  18.364  67.346  1.00  0.00    -0.237 A  
HETATM   33  C   UNL     1      -8.858  20.246  66.023  1.00  0.00    -0.034 C  
HETATM   34  F   UNL     1     -10.126  19.750  65.980  1.00  0.00    -0.453 F  
HETATM   35  F   UNL     1      -8.839  21.105  67.087  1.00  0.00    -0.356 F  
HETATM   36  F   UNL     1      -8.741  21.043  64.928  1.00  0.00     0.756 F  
ENDBRANCH  24  26
ENDBRANCH  22  24
ENDBRANCH  20  22
ENDBRANCH  17  20
ENDBRANCH  12  13
ENDBRANCH   8  12
ENDBRANCH   3   6
TORSDOF 7
ENDMDL
MODEL      352
REMARK 921   NORMALIZED FREE ENERGY PREDICTED BY IDOCK:   -0.99 KCAL/MOL
REMARK 922        TOTAL FREE ENERGY PREDICTED BY IDOCK:   -3.38 KCAL/MOL
REMARK 923 INTER-LIGAND FREE ENERGY PREDICTED BY IDOCK:   -1.70 KCAL/MOL
REMARK 924 INTRA-LIGAND FREE ENERGY PREDICTED BY IDOCK:   -1.68 KCAL/MOL
REMARK 927      BINDING AFFINITY PREDICTED BY RF-SCORE:    0.00 PKD
ROOT
HETATM    1  C   UNL     1     -12.062   7.865  71.720  1.00  0.00    -0.303 C  
HETATM    2  N   UNL     1     -10.641   7.658  71.672  1.00  0.00    -0.202 N  
HETATM    3  C   UNL     1      -9.915   7.425  72.821  1.00  0.00    -0.215 C  
HETATM    4  H   UNL     1     -10.161   7.683  70.772  1.00  0.00     0.000 HD 
HETATM    5  O   UNL     1     -10.420   7.327  73.934  1.00  0.00    -0.353 OA 
ENDROOT
BRANCH   3   6
HETATM    6  C   UNL     1      -8.436   7.303  72.625  1.00  0.00    -0.107 A  
HETATM    7  C   UNL     1      -7.939   6.167  72.000  1.00  0.00    -0.106 A  
HETATM    8  C   UNL     1      -6.569   6.087  71.789  1.00  0.00    -0.055 A  
HETATM    9  C   UNL     1      -5.742   7.103  72.260  1.00  0.00    -0.037 A  
HETATM   10  N   UNL     1      -7.659   8.325  73.079  1.00  0.00    -0.225 NA 
HETATM   11  C   UNL     1      -6.328   8.191  72.888  1.00  0.00    -0.081 A  
BRANCH   8  12
HETATM   12  O   UNL     1      -5.952   5.008  71.200  1.00  0.00    -0.016 OA 
BRANCH  12  13
HETATM   13  C   UNL     1      -6.084   4.807  69.842  1.00  0.00    -0.022 A  
HETATM   14  C   UNL     1      -7.026   3.854  69.449  1.00  0.00    -0.046 A  
HETATM   15  C   UNL     1      -7.179   3.556  68.098  1.00  0.00    -0.051 A  
HETATM   16  F   UNL     1      -8.075   2.629  67.727  1.00  0.00    -0.065 F  
HETATM   17  C   UNL     1      -6.364   4.151  67.133  1.00  0.00    -0.040 A  
HETATM   18  C   UNL     1      -5.279   5.427  68.880  1.00  0.00     0.000 A  
HETATM   19  C   UNL     1      -5.423   5.106  67.526  1.00  0.00    -0.012 A  
BRANCH  17  20
HETATM   20  N   UNL     1      -6.497   3.762  65.781  1.00  0.00    -0.032 N  
HETATM   21  H   UNL     1      -6.376   2.783  65.520  1.00  0.00     0.000 HD 
BRANCH  20  22
HETATM   22  C   UNL     1      -6.793   4.705  64.806  1.00  0.00    -0.045 C  
HETATM   23  O   UNL     1      -5.963   5.244  64.078  1.00  0.00    -0.020 OA 
BRANCH  22  24
HETATM   24  N   UNL     1      -8.149   4.968  64.769  1.00  0.00    -0.107 N  
HETATM   25  H   UNL     1      -8.750   4.396  64.176  1.00  0.00     0.000 HD 
BRANCH  24  26
HETATM   26  C   UNL     1      -8.723   6.004  65.530  1.00  0.00    -0.114 A  
HETATM   27  C   UNL     1     -10.105   6.161  65.503  1.00  0.00     0.913 A  
HETATM   28  C   UNL     1     -10.700   7.181  66.245  1.00  0.00     0.749 A  
HETATM   29  C   UNL     1      -9.919   8.097  66.961  1.00  0.00    -0.259 A  
HETATM   30 CL   UNL     1     -10.782   9.324  67.812  1.00  0.00    -0.303 Cl 
HETATM   31  C   UNL     1      -8.523   7.990  66.959  1.00  0.00    -0.120 A  
HETATM   32  C   UNL     1      -7.939   6.905  66.261  1.00  0.00    -0.108 A  
HETATM   33  C   UNL     1      -7.596   8.980  67.619  1.00  0.00    -0.093 C  
HETATM   34  F   UNL     1      -6.823   8.404  68.581  1.00  0.00    -0.057 F  
HETATM   35  F   UNL     1      -6.717   9.515  66.718  1.00  0.00    -0.068 F  
HETATM   36  F   UNL     1      -8.181  10.052  68.215  1.00  0.00    -0.101 F  
ENDBRANCH  24  26
ENDBRANCH  22  24
ENDBRANCH  20  22
ENDBRANCH  17  20
ENDBRANCH  12  13
ENDBRANCH   8  12
ENDBRANCH   3   6
TORSDOF 7
ENDMDL
MODEL      353
REMARK 921   NORMALIZED FREE ENERGY PREDICTED BY IDOCK:    0.34 KCAL/MOL
REMARK 922        TOTAL FREE ENERGY PREDICTED BY IDOCK:   -1.51 KCAL/MOL
REMARK 923 INTER-LIGAND FREE ENERGY PREDICTED BY IDOCK:   -1.83 KCAL/MOL
REMARK 924 INTRA-LIGAND FREE ENERGY PREDICTED BY IDOCK:    0.32 KCAL/MOL
REMARK 927      BINDING AFFINITY PREDICTED BY RF-SCORE:    0.00 PKD
ROOT
HETATM    1  C   UNL     1     -13.552  15.194  69.467  1.00  0.00     2.001 C  
HETATM    2  N   UNL     1     -12.709  14.384  68.632  1.00  0.00    -0.130 N  
HETATM    3  C   UNL     1     -11.852  13.451  69.177  1.00  0.00    -0.336 C  
HETATM    4  H   UNL     1     -12.745  14.500  67.620  1.00  0.00     0.000 HD 
HETATM    5  O   UNL     1     -11.784  13.211  70.377  1.00  0.00    -0.221 OA 
ENDROOT
BRANCH   3   6
HETATM    6  C   UNL     1     -10.982  12.734  68.191  1.00  0.00    -0.247 A  
HETATM    7  C   UNL     1      -9.843  12.090  68.654  1.00  0.00    -0.126 A  
HETATM    8  C   UNL     1      -9.069  11.395  67.734  1.00  0.00    -0.158 A  
HETATM    9  C   UNL     1      -9.419  11.418  66.387  1.00  0.00    -0.224 A  
HETATM   10  N   UNL     1     -11.367  12.758  66.885  1.00  0.00    -0.303 NA 
HETATM   11  C   UNL     1     -10.566  12.102  66.016  1.00  0.00    -0.257 A  
BRANCH   8  12
HETATM   12  O   UNL     1      -7.908  10.734  68.061  1.00  0.00    -0.102 OA 
BRANCH  12  13
HETATM   13  C   UNL     1      -7.328   9.883  67.145  1.00  0.00    -0.091 A  
HETATM   14  C   UNL     1      -8.202   9.098  66.392  1.00  0.00    -0.114 A  
HETATM   15  C   UNL     1      -7.689   8.176  65.484  1.00  0.00    -0.095 A  
HETATM   16  F   UNL     1      -8.535   7.413  64.774  1.00  0.00    -0.126 F  
HETATM   17  C   UNL     1      -6.313   7.981  65.357  1.00  0.00    -0.048 A  
HETATM   18  C   UNL     1      -5.945   9.713  67.006  1.00  0.00    -0.055 A  
HETATM   19  C   UNL     1      -5.437   8.768  66.108  1.00  0.00    -0.037 A  
BRANCH  17  20
HETATM   20  N   UNL     1      -5.836   6.978  64.482  1.00  0.00    -0.036 N  
HETATM   21  H   UNL     1      -5.698   7.190  63.494  1.00  0.00     0.000 HD 
BRANCH  20  22
HETATM   22  C   UNL     1      -5.554   5.706  64.962  1.00  0.00    -0.017 C  
HETATM   23  O   UNL     1      -5.439   4.703  64.261  1.00  0.00    -0.013 OA 
BRANCH  22  24
HETATM   24  N   UNL     1      -5.430   5.714  66.338  1.00  0.00    -0.012 N  
HETATM   25  H   UNL     1      -4.513   5.877  66.753  1.00  0.00     0.000 HD 
BRANCH  24  26
HETATM   26  C   UNL     1      -6.538   5.504  67.182  1.00  0.00    -0.057 A  
HETATM   27  C   UNL     1      -7.705   4.985  66.630  1.00  0.00    -0.092 A  
HETATM   28  C   UNL     1      -8.817   4.770  67.442  1.00  0.00    -0.106 A  
HETATM   29  C   UNL     1      -8.801   5.136  68.794  1.00  0.00    -0.093 A  
HETATM   30 CL   UNL     1     -10.254   4.838  69.676  1.00  0.00    -0.279 Cl 
HETATM   31  C   UNL     1      -7.655   5.708  69.358  1.00  0.00    -0.083 A  
HETATM   32  C   UNL     1      -6.509   5.852  68.538  1.00  0.00    -0.046 A  
HETATM   33  C   UNL     1      -7.573   6.221  70.774  1.00  0.00    -0.096 C  
HETATM   34  F   UNL     1      -6.617   5.579  71.503  1.00  0.00    -0.038 F  
HETATM   35  F   UNL     1      -7.227   7.544  70.805  1.00  0.00    -0.062 F  
HETATM   36  F   UNL     1      -8.710   6.140  71.514  1.00  0.00    -0.131 F  
ENDBRANCH  24  26
ENDBRANCH  22  24
ENDBRANCH  20  22
ENDBRANCH  17  20
ENDBRANCH  12  13
ENDBRANCH   8  12
ENDBRANCH   3   6
TORSDOF 7
ENDMDL
MODEL      354
REMARK 921   NORMALIZED FREE ENERGY PREDICTED BY IDOCK:    0.56 KCAL/MOL
REMARK 922        TOTAL FREE ENERGY PREDICTED BY IDOCK:   -1.20 KCAL/MOL
REMARK 923 INTER-LIGAND FREE ENERGY PREDICTED BY IDOCK:   -1.50 KCAL/MOL
REMARK 924 INTRA-LIGAND FREE ENERGY PREDICTED BY IDOCK:    0.30 KCAL/MOL
REMARK 927      BINDING AFFINITY PREDICTED BY RF-SCORE:    0.00 PKD
ROOT
HETATM    1  C   UNL     1      -6.592  10.378  63.529  1.00  0.00    -0.040 C  
HETATM    2  N   UNL     1      -7.575  11.215  64.160  1.00  0.00     0.151 N  
HETATM    3  C   UNL     1      -8.730  11.579  63.502  1.00  0.00     0.395 C  
HETATM    4  H   UNL     1      -7.415  11.546  65.112  1.00  0.00     0.000 HD 
HETATM    5  O   UNL     1      -9.024  11.185  62.379  1.00  0.00    -0.319 OA 
ENDROOT
BRANCH   3   6
HETATM    6  C   UNL     1      -9.624  12.515  64.256  1.00  0.00     0.209 A  
HETATM    7  C   UNL     1     -10.053  12.148  65.524  1.00  0.00    -0.275 A  
HETATM    8  C   UNL     1     -10.848  13.045  66.226  1.00  0.00    -0.278 A  
HETATM    9  C   UNL     1     -11.236  14.236  65.622  1.00  0.00    -0.314 A  
HETATM   10  N   UNL     1      -9.966  13.682  63.643  1.00  0.00     1.257 NA 
HETATM   11  C   UNL     1     -10.772  14.509  64.344  1.00  0.00     0.017 A  
BRANCH   8  12
HETATM   12  O   UNL     1     -11.353  12.792  67.481  1.00  0.00    -0.276 OA 
BRANCH  12  13
HETATM   13  C   UNL     1     -10.944  11.668  68.165  1.00  0.00    -0.226 A  
HETATM   14  C   UNL     1     -11.954  10.811  68.606  1.00  0.00    -0.103 A  
HETATM   15  C   UNL     1     -11.623   9.683  69.351  1.00  0.00     0.199 A  
HETATM   16  F   UNL     1     -12.599   8.872  69.784  1.00  0.00     0.757 F  
HETATM   17  C   UNL     1     -10.300   9.425  69.715  1.00  0.00    -0.223 A  
HETATM   18  C   UNL     1      -9.611  11.404  68.504  1.00  0.00    -0.190 A  
HETATM   19  C   UNL     1      -9.288  10.280  69.272  1.00  0.00    -0.221 A  
BRANCH  17  20
HETATM   20  N   UNL     1     -10.016   8.312  70.539  1.00  0.00    -0.183 N  
HETATM   21  H   UNL     1      -9.581   8.453  71.452  1.00  0.00     0.000 HD 
BRANCH  20  22
HETATM   22  C   UNL     1     -10.326   7.027  70.113  1.00  0.00    -0.197 C  
HETATM   23  O   UNL     1     -10.094   6.003  70.751  1.00  0.00    -0.185 OA 
BRANCH  22  24
HETATM   24  N   UNL     1     -10.922   7.052  68.867  1.00  0.00    -0.428 N  
HETATM   25  H   UNL     1     -11.917   7.266  68.796  1.00  0.00     0.000 HD 
BRANCH  24  26
HETATM   26  C   UNL     1     -10.192   6.789  67.692  1.00  0.00    -0.179 A  
HETATM   27  C   UNL     1      -9.843   7.859  66.873  1.00  0.00    -0.309 A  
HETATM   28  C   UNL     1      -9.123   7.627  65.702  1.00  0.00     0.032 A  
HETATM   29  C   UNL     1      -8.806   6.323  65.300  1.00  0.00     0.073 A  
HETATM   30 CL   UNL     1      -7.936   6.178  63.817  1.00  0.00    -0.114 Cl 
HETATM   31  C   UNL     1      -9.193   5.229  66.082  1.00  0.00    -0.158 A  
HETATM   32  C   UNL     1      -9.859   5.485  67.305  1.00  0.00    -0.169 A  
HETATM   33  C   UNL     1      -8.983   3.788  65.687  1.00  0.00    -0.136 C  
HETATM   34  F   UNL     1      -8.209   3.113  66.581  1.00  0.00    -0.085 F  
HETATM   35  F   UNL     1     -10.168   3.106  65.644  1.00  0.00     0.110 F  
HETATM   36  F   UNL     1      -8.411   3.571  64.473  1.00  0.00    -0.092 F  
ENDBRANCH  24  26
ENDBRANCH  22  24
ENDBRANCH  20  22
ENDBRANCH  17  20
ENDBRANCH  12  13
ENDBRANCH   8  12
ENDBRANCH   3   6
TORSDOF 7
ENDMDL
MODEL      355
REMARK 921   NORMALIZED FREE ENERGY PREDICTED BY IDOCK:    1.42 KCAL/MOL
REMARK 922        TOTAL FREE ENERGY PREDICTED BY IDOCK:    0.02 KCAL/MOL
REMARK 923 INTER-LIGAND FREE ENERGY PREDICTED BY IDOCK:   -0.48 KCAL/MOL
REMARK 924 INTRA-LIGAND FREE ENERGY PREDICTED BY IDOCK:    0.50 KCAL/MOL
REMARK 927      BINDING AFFINITY PREDICTED BY RF-SCORE:    0.00 PKD
ROOT
HETATM    1  C   UNL     1     -10.737   5.037  68.580  1.00  0.00     0.337 C  
HETATM    2  N   UNL     1     -10.136   6.203  67.994  1.00  0.00    -0.141 N  
HETATM    3  C   UNL     1     -10.808   7.405  67.948  1.00  0.00    -0.081 C  
HETATM    4  H   UNL     1      -9.195   6.140  67.604  1.00  0.00     0.000 HD 
HETATM    5  O   UNL     1     -11.919   7.581  68.438  1.00  0.00     1.611 OA 
ENDROOT
BRANCH   3   6
HETATM    6  C   UNL     1     -10.088   8.511  67.241  1.00  0.00    -0.251 A  
HETATM    7  C   UNL     1      -8.739   8.702  67.505  1.00  0.00    -0.135 A  
HETATM    8  C   UNL     1      -8.075   9.705  66.811  1.00  0.00    -0.113 A  
HETATM    9  C   UNL     1      -8.786  10.516  65.932  1.00  0.00    -0.178 A  
HETATM   10  N   UNL     1     -10.809   9.271  66.371  1.00  0.00     0.183 NA 
HETATM   11  C   UNL     1     -10.135  10.260  65.744  1.00  0.00    -0.255 A  
BRANCH   8  12
HETATM   12  O   UNL     1      -6.746  10.007  66.997  1.00  0.00    -0.076 OA 
BRANCH  12  13
HETATM   13  C   UNL     1      -6.394  11.239  67.507  1.00  0.00    -0.068 A  
HETATM   14  C   UNL     1      -7.181  11.722  68.554  1.00  0.00    -0.095 A  
HETATM   15  C   UNL     1      -6.920  12.982  69.084  1.00  0.00    -0.020 A  
HETATM   16  F   UNL     1      -7.690  13.447  70.081  1.00  0.00     0.882 F  
HETATM   17  C   UNL     1      -5.921  13.796  68.548  1.00  0.00    -0.093 A  
HETATM   18  C   UNL     1      -5.373  12.038  66.978  1.00  0.00    -0.087 A  
HETATM   19  C   UNL     1      -5.132  13.313  67.502  1.00  0.00     0.062 A  
BRANCH  17  20
HETATM   20  N   UNL     1      -5.742  15.100  69.064  1.00  0.00    -0.096 N  
HETATM   21  H   UNL     1      -4.824  15.393  69.397  1.00  0.00     0.000 HD 
BRANCH  20  22
HETATM   22  C   UNL     1      -6.812  15.984  69.119  1.00  0.00    -0.180 C  
HETATM   23  O   UNL     1      -6.843  17.003  69.806  1.00  0.00    -0.101 OA 
BRANCH  22  24
HETATM   24  N   UNL     1      -7.844  15.561  68.305  1.00  0.00    -0.125 N  
HETATM   25  H   UNL     1      -8.020  14.561  68.205  1.00  0.00     0.000 HD 
BRANCH  24  26
HETATM   26  C   UNL     1      -8.660  16.473  67.608  1.00  0.00    -0.182 A  
HETATM   27  C   UNL     1      -9.811  15.997  66.989  1.00  0.00    -0.240 A  
HETATM   28  C   UNL     1     -10.635  16.878  66.290  1.00  0.00    -0.191 A  
HETATM   29  C   UNL     1     -10.282  18.226  66.141  1.00  0.00    -0.381 A  
HETATM   30 CL   UNL     1     -11.378  19.198  65.230  1.00  0.00     0.791 Cl 
HETATM   31  C   UNL     1      -9.101  18.714  66.711  1.00  0.00    -0.301 A  
HETATM   32  C   UNL     1      -8.313  17.824  67.480  1.00  0.00    -0.227 A  
HETATM   33  C   UNL     1      -8.590  20.122  66.525  1.00  0.00    -0.260 C  
HETATM   34  F   UNL     1      -8.473  20.790  67.707  1.00  0.00    -0.282 F  
HETATM   35  F   UNL     1      -7.337  20.128  65.978  1.00  0.00    -0.265 F  
HETATM   36  F   UNL     1      -9.326  20.932  65.720  1.00  0.00     0.073 F  
ENDBRANCH  24  26
ENDBRANCH  22  24
ENDBRANCH  20  22
ENDBRANCH  17  20
ENDBRANCH  12  13
ENDBRANCH   8  12
ENDBRANCH   3   6
TORSDOF 7
ENDMDL
MODEL      356
REMARK 921   NORMALIZED FREE ENERGY PREDICTED BY IDOCK:    2.45 KCAL/MOL
REMARK 922        TOTAL FREE ENERGY PREDICTED BY IDOCK:    1.46 KCAL/MOL
REMARK 923 INTER-LIGAND FREE ENERGY PREDICTED BY IDOCK:    0.94 KCAL/MOL
REMARK 924 INTRA-LIGAND FREE ENERGY PREDICTED BY IDOCK:    0.52 KCAL/MOL
REMARK 927      BINDING AFFINITY PREDICTED BY RF-SCORE:    0.00 PKD
ROOT
HETATM    1  C   UNL     1      -6.716  14.031  73.535  1.00  0.00     2.566 C  
HETATM    2  N   UNL     1      -6.562  14.253  72.124  1.00  0.00     0.708 N  
HETATM    3  C   UNL     1      -5.929  15.380  71.644  1.00  0.00     0.762 C  
HETATM    4  H   UNL     1      -6.927  13.565  71.465  1.00  0.00     0.000 HD 
HETATM    5  O   UNL     1      -5.417  16.230  72.365  1.00  0.00     0.425 OA 
ENDROOT
BRANCH   3   6
HETATM    6  C   UNL     1      -5.909  15.512  70.153  1.00  0.00    -0.148 A  
HETATM    7  C   UNL     1      -6.650  14.615  69.395  1.00  0.00    -0.138 A  
HETATM    8  C   UNL     1      -6.654  14.777  68.016  1.00  0.00    -0.147 A  
HETATM    9  C   UNL     1      -5.878  15.778  67.440  1.00  0.00    -0.070 A  
HETATM   10  N   UNL     1      -5.157  16.517  69.624  1.00  0.00    -0.130 NA 
HETATM   11  C   UNL     1      -5.158  16.616  68.277  1.00  0.00    -0.108 A  
BRANCH   8  12
HETATM   12  O   UNL     1      -7.330  13.944  67.155  1.00  0.00    -0.072 OA 
BRANCH  12  13
HETATM   13  C   UNL     1      -7.585  12.641  67.528  1.00  0.00    -0.160 A  
HETATM   14  C   UNL     1      -8.905  12.206  67.389  1.00  0.00    -0.181 A  
HETATM   15  C   UNL     1      -9.251  10.921  67.796  1.00  0.00    -0.153 A  
HETATM   16  F   UNL     1     -10.523  10.513  67.674  1.00  0.00    -0.212 F  
HETATM   17  C   UNL     1      -8.312  10.079  68.395  1.00  0.00    -0.111 A  
HETATM   18  C   UNL     1      -6.631  11.796  68.105  1.00  0.00    -0.056 A  
HETATM   19  C   UNL     1      -6.991  10.513  68.532  1.00  0.00    -0.066 A  
BRANCH  17  20
HETATM   20  N   UNL     1      -8.724   8.811  68.867  1.00  0.00    -0.133 N  
HETATM   21  H   UNL     1      -9.282   8.203  68.267  1.00  0.00     0.000 HD 
BRANCH  20  22
HETATM   22  C   UNL     1      -8.371   8.390  70.142  1.00  0.00    -0.120 C  
HETATM   23  O   UNL     1      -8.548   9.040  71.169  1.00  0.00    -0.195 OA 
BRANCH  22  24
HETATM   24  N   UNL     1      -7.781   7.140  70.102  1.00  0.00    -0.094 N  
HETATM   25  H   UNL     1      -7.045   6.917  70.772  1.00  0.00     0.000 HD 
BRANCH  24  26
HETATM   26  C   UNL     1      -8.170   6.168  69.161  1.00  0.00    -0.113 A  
HETATM   27  C   UNL     1      -8.584   6.590  67.902  1.00  0.00    -0.117 A  
HETATM   28  C   UNL     1      -8.978   5.649  66.952  1.00  0.00    -0.112 A  
HETATM   29  C   UNL     1      -9.031   4.285  67.271  1.00  0.00    -0.124 A  
HETATM   30 CL   UNL     1      -9.561   3.234  66.010  1.00  0.00    -0.083 Cl 
HETATM   31  C   UNL     1      -8.669   3.844  68.548  1.00  0.00    -0.131 A  
HETATM   32  C   UNL     1      -8.201   4.804  69.479  1.00  0.00    -0.076 A  
HETATM   33  C   UNL     1      -8.784   2.414  69.015  1.00  0.00    -0.083 C  
HETATM   34  F   UNL     1      -7.581   1.892  69.385  1.00  0.00    -0.042 F  
HETATM   35  F   UNL     1      -9.580   2.314  70.122  1.00  0.00    -0.193 F  
HETATM   36  F   UNL     1      -9.307   1.528  68.127  1.00  0.00    -0.150 F  
ENDBRANCH  24  26
ENDBRANCH  22  24
ENDBRANCH  20  22
ENDBRANCH  17  20
ENDBRANCH  12  13
ENDBRANCH   8  12
ENDBRANCH   3   6
TORSDOF 7
ENDMDL
MODEL      357
REMARK 921   NORMALIZED FREE ENERGY PREDICTED BY IDOCK:    2.70 KCAL/MOL
REMARK 922        TOTAL FREE ENERGY PREDICTED BY IDOCK:    1.82 KCAL/MOL
REMARK 923 INTER-LIGAND FREE ENERGY PREDICTED BY IDOCK:    1.17 KCAL/MOL
REMARK 924 INTRA-LIGAND FREE ENERGY PREDICTED BY IDOCK:    0.65 KCAL/MOL
REMARK 927      BINDING AFFINITY PREDICTED BY RF-SCORE:    0.00 PKD
ROOT
HETATM    1  C   UNL     1     -10.737   5.037  68.580  1.00  0.00     0.337 C  
HETATM    2  N   UNL     1     -10.136   6.195  67.979  1.00  0.00    -0.141 N  
HETATM    3  C   UNL     1     -10.811   7.396  67.914  1.00  0.00    -0.081 C  
HETATM    4  H   UNL     1      -9.194   6.129  67.594  1.00  0.00     0.000 HD 
HETATM    5  O   UNL     1     -11.923   7.576  68.397  1.00  0.00     1.611 OA 
ENDROOT
BRANCH   3   6
HETATM    6  C   UNL     1     -10.090   8.493  67.193  1.00  0.00    -0.262 A  
HETATM    7  C   UNL     1      -8.742   8.690  67.460  1.00  0.00    -0.135 A  
HETATM    8  C   UNL     1      -8.078   9.684  66.753  1.00  0.00    -0.113 A  
HETATM    9  C   UNL     1      -8.787  10.482  65.860  1.00  0.00    -0.180 A  
HETATM   10  N   UNL     1     -10.810   9.239  66.310  1.00  0.00     0.316 NA 
HETATM   11  C   UNL     1     -10.136  10.220  65.671  1.00  0.00    -0.271 A  
BRANCH   8  12
HETATM   12  O   UNL     1      -6.750   9.992  66.939  1.00  0.00    -0.076 OA 
BRANCH  12  13
HETATM   13  C   UNL     1      -6.402  11.232  67.433  1.00  0.00    -0.076 A  
HETATM   14  C   UNL     1      -7.194  11.728  68.470  1.00  0.00    -0.095 A  
HETATM   15  C   UNL     1      -6.938  12.996  68.983  1.00  0.00    -0.056 A  
HETATM   16  F   UNL     1      -7.711  13.474  69.970  1.00  0.00     0.625 F  
HETATM   17  C   UNL     1      -5.938  13.805  68.439  1.00  0.00    -0.099 A  
HETATM   18  C   UNL     1      -5.381  12.025  66.896  1.00  0.00    -0.049 A  
HETATM   19  C   UNL     1      -5.144  13.308  67.403  1.00  0.00     0.160 A  
BRANCH  17  20
HETATM   20  N   UNL     1      -5.764  15.116  68.937  1.00  0.00    -0.093 N  
HETATM   21  H   UNL     1      -4.847  15.415  69.269  1.00  0.00     0.000 HD 
BRANCH  20  22
HETATM   22  C   UNL     1      -6.835  15.999  68.975  1.00  0.00    -0.159 C  
HETATM   23  O   UNL     1      -6.871  17.027  69.647  1.00  0.00    -0.184 OA 
BRANCH  22  24
HETATM   24  N   UNL     1      -7.864  15.561  68.163  1.00  0.00    -0.125 N  
HETATM   25  H   UNL     1      -8.037  14.560  68.078  1.00  0.00     0.000 HD 
BRANCH  24  26
HETATM   26  C   UNL     1      -8.679  16.462  67.451  1.00  0.00    -0.182 A  
HETATM   27  C   UNL     1      -8.590  17.818  67.751  1.00  0.00    -0.237 A  
HETATM   28  C   UNL     1      -9.388  18.731  67.063  1.00  0.00    -0.313 A  
HETATM   29  C   UNL     1     -10.331  18.296  66.123  1.00  0.00    -0.398 A  
HETATM   30 CL   UNL     1     -11.269  19.530  65.366  1.00  0.00     0.102 Cl 
HETATM   31  C   UNL     1     -10.474  16.932  65.845  1.00  0.00    -0.294 A  
HETATM   32  C   UNL     1      -9.605  16.023  66.497  1.00  0.00    -0.283 A  
HETATM   33  C   UNL     1     -11.522  16.361  64.923  1.00  0.00     0.030 C  
HETATM   34  F   UNL     1     -10.977  15.683  63.874  1.00  0.00    -0.007 F  
HETATM   35  F   UNL     1     -12.313  15.452  65.571  1.00  0.00     0.145 F  
HETATM   36  F   UNL     1     -12.391  17.248  64.370  1.00  0.00     1.752 F  
ENDBRANCH  24  26
ENDBRANCH  22  24
ENDBRANCH  20  22
ENDBRANCH  17  20
ENDBRANCH  12  13
ENDBRANCH   8  12
ENDBRANCH   3   6
TORSDOF 7
ENDMDL
MODEL      358
REMARK 921   NORMALIZED FREE ENERGY PREDICTED BY IDOCK:    3.09 KCAL/MOL
REMARK 922        TOTAL FREE ENERGY PREDICTED BY IDOCK:    2.37 KCAL/MOL
REMARK 923 INTER-LIGAND FREE ENERGY PREDICTED BY IDOCK:    1.58 KCAL/MOL
REMARK 924 INTRA-LIGAND FREE ENERGY PREDICTED BY IDOCK:    0.80 KCAL/MOL
REMARK 927      BINDING AFFINITY PREDICTED BY RF-SCORE:    0.00 PKD
ROOT
HETATM    1  C   UNL     1      -6.716  14.031  73.535  1.00  0.00     2.566 C  
HETATM    2  N   UNL     1      -6.562  14.253  72.124  1.00  0.00     0.708 N  
HETATM    3  C   UNL     1      -5.929  15.380  71.644  1.00  0.00     0.762 C  
HETATM    4  H   UNL     1      -6.927  13.565  71.465  1.00  0.00     0.000 HD 
HETATM    5  O   UNL     1      -5.417  16.230  72.365  1.00  0.00     0.425 OA 
ENDROOT
BRANCH   3   6
HETATM    6  C   UNL     1      -5.909  15.512  70.153  1.00  0.00    -0.148 A  
HETATM    7  C   UNL     1      -6.650  14.615  69.395  1.00  0.00    -0.138 A  
HETATM    8  C   UNL     1      -6.654  14.777  68.016  1.00  0.00    -0.147 A  
HETATM    9  C   UNL     1      -5.878  15.778  67.440  1.00  0.00    -0.070 A  
HETATM   10  N   UNL     1      -5.157  16.517  69.624  1.00  0.00    -0.130 NA 
HETATM   11  C   UNL     1      -5.158  16.616  68.277  1.00  0.00    -0.108 A  
BRANCH   8  12
HETATM   12  O   UNL     1      -7.330  13.944  67.155  1.00  0.00    -0.072 OA 
BRANCH  12  13
HETATM   13  C   UNL     1      -7.585  12.641  67.528  1.00  0.00    -0.160 A  
HETATM   14  C   UNL     1      -7.181  11.651  66.630  1.00  0.00    -0.025 A  
HETATM   15  C   UNL     1      -7.452  10.316  66.913  1.00  0.00    -0.101 A  
HETATM   16  F   UNL     1      -7.074   9.370  66.040  1.00  0.00    -0.085 F  
HETATM   17  C   UNL     1      -8.175   9.953  68.051  1.00  0.00    -0.113 A  
HETATM   18  C   UNL     1      -8.290  12.286  68.685  1.00  0.00    -0.002 A  
HETATM   19  C   UNL     1      -8.578  10.943  68.950  1.00  0.00    -0.143 A  
BRANCH  17  20
HETATM   20  N   UNL     1      -8.498   8.593  68.259  1.00  0.00    -0.130 N  
HETATM   21  H   UNL     1      -7.776   7.879  68.164  1.00  0.00     0.000 HD 
BRANCH  20  22
HETATM   22  C   UNL     1      -9.795   8.224  68.592  1.00  0.00    -0.176 C  
HETATM   23  O   UNL     1     -10.801   8.566  67.975  1.00  0.00    -0.108 OA 
BRANCH  22  24
HETATM   24  N   UNL     1      -9.806   7.427  69.721  1.00  0.00    -0.170 N  
HETATM   25  H   UNL     1     -10.590   7.496  70.370  1.00  0.00     0.000 HD 
BRANCH  24  26
HETATM   26  C   UNL     1      -8.762   6.524  70.000  1.00  0.00    -0.140 A  
HETATM   27  C   UNL     1      -7.470   6.862  69.611  1.00  0.00    -0.099 A  
HETATM   28  C   UNL     1      -6.418   5.985  69.872  1.00  0.00    -0.042 A  
HETATM   29  C   UNL     1      -6.654   4.733  70.456  1.00  0.00    -0.035 A  
HETATM   30 CL   UNL     1      -5.267   3.737  70.697  1.00  0.00    -0.004 Cl 
HETATM   31  C   UNL     1      -7.954   4.352  70.806  1.00  0.00    -0.064 A  
HETATM   32  C   UNL     1      -9.001   5.283  70.603  1.00  0.00    -0.159 A  
HETATM   33  C   UNL     1      -8.321   2.993  71.350  1.00  0.00    -0.063 C  
HETATM   34  F   UNL     1      -8.884   3.065  72.589  1.00  0.00    -0.079 F  
HETATM   35  F   UNL     1      -9.253   2.376  70.563  1.00  0.00    -0.142 F  
HETATM   36  F   UNL     1      -7.308   2.093  71.463  1.00  0.00    -0.033 F  
ENDBRANCH  24  26
ENDBRANCH  22  24
ENDBRANCH  20  22
ENDBRANCH  17  20
ENDBRANCH  12  13
ENDBRANCH   8  12
ENDBRANCH   3   6
TORSDOF 7
ENDMDL
MODEL      359
REMARK 921   NORMALIZED FREE ENERGY PREDICTED BY IDOCK:    3.67 KCAL/MOL
REMARK 922        TOTAL FREE ENERGY PREDICTED BY IDOCK:    3.19 KCAL/MOL
REMARK 923 INTER-LIGAND FREE ENERGY PREDICTED BY IDOCK:   -0.37 KCAL/MOL
REMARK 924 INTRA-LIGAND FREE ENERGY PREDICTED BY IDOCK:    3.56 KCAL/MOL
REMARK 927      BINDING AFFINITY PREDICTED BY RF-SCORE:    0.00 PKD
ROOT
HETATM    1  C   UNL     1     -13.472  10.454  72.452  1.00  0.00     0.080 C  
HETATM    2  N   UNL     1     -12.704   9.849  71.399  1.00  0.00    -0.370 N  
HETATM    3  C   UNL     1     -11.941   8.724  71.628  1.00  0.00    -0.332 C  
HETATM    4  H   UNL     1     -12.724  10.258  70.465  1.00  0.00     0.000 HD 
HETATM    5  O   UNL     1     -11.902   8.139  72.706  1.00  0.00    -0.389 OA 
ENDROOT
BRANCH   3   6
HETATM    6  C   UNL     1     -11.137   8.250  70.458  1.00  0.00    -0.249 A  
HETATM    7  C   UNL     1     -10.888   9.136  69.419  1.00  0.00    -0.165 A  
HETATM    8  C   UNL     1     -10.106   8.694  68.360  1.00  0.00    -0.191 A  
HETATM    9  C   UNL     1      -9.657   7.378  68.341  1.00  0.00    -0.149 A  
HETATM   10  N   UNL     1     -10.695   6.962  70.483  1.00  0.00    -0.227 NA 
HETATM   11  C   UNL     1      -9.970   6.560  69.416  1.00  0.00    -0.158 A  
BRANCH   8  12
HETATM   12  O   UNL     1      -9.804   9.468  67.263  1.00  0.00    -0.159 OA 
BRANCH  12  13
HETATM   13  C   UNL     1      -9.050  10.611  67.424  1.00  0.00    -0.139 A  
HETATM   14  C   UNL     1      -8.665  10.918  68.730  1.00  0.00    -0.158 A  
HETATM   15  C   UNL     1      -7.948  12.085  68.979  1.00  0.00     0.179 A  
HETATM   16  F   UNL     1      -7.593  12.382  70.238  1.00  0.00     1.168 F  
HETATM   17  C   UNL     1      -7.660  12.985  67.952  1.00  0.00    -0.144 A  
HETATM   18  C   UNL     1      -8.745  11.496  66.383  1.00  0.00    -0.179 A  
HETATM   19  C   UNL     1      -8.044  12.678  66.644  1.00  0.00     0.181 A  
BRANCH  17  20
HETATM   20  N   UNL     1      -7.001  14.197  68.260  1.00  0.00    -0.093 N  
HETATM   21  H   UNL     1      -6.882  14.477  69.234  1.00  0.00     0.000 HD 
BRANCH  20  22
HETATM   22  C   UNL     1      -6.514  15.008  67.244  1.00  0.00     0.175 C  
HETATM   23  O   UNL     1      -5.393  14.916  66.750  1.00  0.00     0.665 OA 
BRANCH  22  24
HETATM   24  N   UNL     1      -7.457  15.945  66.867  1.00  0.00    -0.220 N  
HETATM   25  H   UNL     1      -7.197  16.670  66.198  1.00  0.00     0.000 HD 
BRANCH  24  26
HETATM   26  C   UNL     1      -8.768  15.925  67.382  1.00  0.00    -0.181 A  
HETATM   27  C   UNL     1      -9.509  17.102  67.359  1.00  0.00    -0.247 A  
HETATM   28  C   UNL     1     -10.808  17.111  67.865  1.00  0.00    -0.294 A  
HETATM   29  C   UNL     1     -11.353  15.968  68.464  1.00  0.00    -0.382 A  
HETATM   30 CL   UNL     1     -12.959  16.126  69.073  1.00  0.00     1.517 Cl 
HETATM   31  C   UNL     1     -10.605  14.788  68.546  1.00  0.00    -0.248 A  
HETATM   32  C   UNL     1      -9.315  14.773  67.961  1.00  0.00    -0.196 A  
HETATM   33  C   UNL     1     -11.068  13.539  69.254  1.00  0.00    -0.179 C  
HETATM   34  F   UNL     1     -11.145  12.467  68.417  1.00  0.00    -0.227 F  
HETATM   35  F   UNL     1     -10.191  13.170  70.236  1.00  0.00     1.276 F  
HETATM   36  F   UNL     1     -12.276  13.606  69.872  1.00  0.00    -0.336 F  
ENDBRANCH  24  26
ENDBRANCH  22  24
ENDBRANCH  20  22
ENDBRANCH  17  20
ENDBRANCH  12  13
ENDBRANCH   8  12
ENDBRANCH   3   6
TORSDOF 7
ENDMDL
MODEL      360
REMARK 921   NORMALIZED FREE ENERGY PREDICTED BY IDOCK:    4.16 KCAL/MOL
REMARK 922        TOTAL FREE ENERGY PREDICTED BY IDOCK:    3.87 KCAL/MOL
REMARK 923 INTER-LIGAND FREE ENERGY PREDICTED BY IDOCK:    2.12 KCAL/MOL
REMARK 924 INTRA-LIGAND FREE ENERGY PREDICTED BY IDOCK:    1.76 KCAL/MOL
REMARK 927      BINDING AFFINITY PREDICTED BY RF-SCORE:    0.00 PKD
ROOT
HETATM    1  C   UNL     1     -12.486   3.690  63.021  1.00  0.00     5.041 C  
HETATM    2  N   UNL     1     -11.464   4.310  63.818  1.00  0.00     0.209 N  
HETATM    3  C   UNL     1     -10.130   4.183  63.492  1.00  0.00    -0.067 C  
HETATM    4  H   UNL     1     -11.729   4.855  64.639  1.00  0.00     0.000 HD 
HETATM    5  O   UNL     1      -9.729   3.591  62.496  1.00  0.00    -0.096 OA 
ENDROOT
BRANCH   3   6
HETATM    6  C   UNL     1      -9.176   4.820  64.455  1.00  0.00    -0.037 A  
HETATM    7  C   UNL     1      -8.562   6.010  64.093  1.00  0.00     0.200 A  
HETATM    8  C   UNL     1      -7.711   6.610  65.013  1.00  0.00    -0.103 A  
HETATM    9  C   UNL     1      -7.456   5.976  66.225  1.00  0.00    -0.086 A  
HETATM   10  N   UNL     1      -8.967   4.184  65.641  1.00  0.00    -0.125 NA 
HETATM   11  C   UNL     1      -8.104   4.780  66.492  1.00  0.00    -0.107 A  
BRANCH   8  12
HETATM   12  O   UNL     1      -7.027   7.778  64.768  1.00  0.00    -0.053 OA 
BRANCH  12  13
HETATM   13  C   UNL     1      -6.676   8.594  65.822  1.00  0.00    -0.064 A  
HETATM   14  C   UNL     1      -6.122   9.832  65.487  1.00  0.00    -0.072 A  
HETATM   15  C   UNL     1      -5.694  10.688  66.496  1.00  0.00    -0.075 A  
HETATM   16  F   UNL     1      -5.149  11.870  66.168  1.00  0.00    -0.047 F  
HETATM   17  C   UNL     1      -5.753  10.306  67.838  1.00  0.00    -0.041 A  
HETATM   18  C   UNL     1      -6.762   8.212  67.166  1.00  0.00    -0.065 A  
HETATM   19  C   UNL     1      -6.308   9.070  68.174  1.00  0.00    -0.055 A  
BRANCH  17  20
HETATM   20  N   UNL     1      -5.233  11.173  68.826  1.00  0.00    -0.041 N  
HETATM   21  H   UNL     1      -4.434  10.881  69.388  1.00  0.00     0.000 HD 
BRANCH  20  22
HETATM   22  C   UNL     1      -5.806  12.421  69.034  1.00  0.00    -0.070 C  
HETATM   23  O   UNL     1      -5.464  13.211  69.911  1.00  0.00    -0.088 OA 
BRANCH  22  24
HETATM   24  N   UNL     1      -6.823  12.654  68.128  1.00  0.00    -0.080 N  
HETATM   25  H   UNL     1      -6.594  13.048  67.216  1.00  0.00     0.000 HD 
BRANCH  24  26
HETATM   26  C   UNL     1      -8.167  12.363  68.433  1.00  0.00    -0.144 A  
HETATM   27  C   UNL     1      -9.112  13.374  68.301  1.00  0.00    -0.181 A  
HETATM   28  C   UNL     1     -10.449  13.114  68.599  1.00  0.00    -0.242 A  
HETATM   29  C   UNL     1     -10.844  11.866  69.100  1.00  0.00    -0.147 A  
HETATM   30 CL   UNL     1     -12.523  11.689  69.451  1.00  0.00    -0.093 Cl 
HETATM   31  C   UNL     1      -9.900  10.851  69.291  1.00  0.00    -0.113 A  
HETATM   32  C   UNL     1      -8.559  11.107  68.914  1.00  0.00    -0.092 A  
HETATM   33  C   UNL     1     -10.210   9.512  69.912  1.00  0.00    -0.231 C  
HETATM   34  F   UNL     1      -9.947   8.476  69.067  1.00  0.00    -0.173 F  
HETATM   35  F   UNL     1      -9.437   9.285  71.017  1.00  0.00    -0.276 F  
HETATM   36  F   UNL     1     -11.488   9.322  70.334  1.00  0.00    -0.270 F  
ENDBRANCH  24  26
ENDBRANCH  22  24
ENDBRANCH  20  22
ENDBRANCH  17  20
ENDBRANCH  12  13
ENDBRANCH   8  12
ENDBRANCH   3   6
TORSDOF 7
ENDMDL
MODEL      361
REMARK 921   NORMALIZED FREE ENERGY PREDICTED BY IDOCK:    4.19 KCAL/MOL
REMARK 922        TOTAL FREE ENERGY PREDICTED BY IDOCK:    3.92 KCAL/MOL
REMARK 923 INTER-LIGAND FREE ENERGY PREDICTED BY IDOCK:   -0.62 KCAL/MOL
REMARK 924 INTRA-LIGAND FREE ENERGY PREDICTED BY IDOCK:    4.54 KCAL/MOL
REMARK 927      BINDING AFFINITY PREDICTED BY RF-SCORE:    0.00 PKD
ROOT
HETATM    1  C   UNL     1      -6.716  14.031  73.535  1.00  0.00     2.566 C  
HETATM    2  N   UNL     1      -6.564  14.250  72.123  1.00  0.00     0.708 N  
HETATM    3  C   UNL     1      -5.929  15.374  71.640  1.00  0.00     0.762 C  
HETATM    4  H   UNL     1      -6.932  13.562  71.467  1.00  0.00     0.000 HD 
HETATM    5  O   UNL     1      -5.412  16.223  72.359  1.00  0.00     0.425 OA 
ENDROOT
BRANCH   3   6
HETATM    6  C   UNL     1      -5.912  15.504  70.148  1.00  0.00    -0.137 A  
HETATM    7  C   UNL     1      -6.657  14.608  69.394  1.00  0.00    -0.138 A  
HETATM    8  C   UNL     1      -6.663  14.768  68.015  1.00  0.00    -0.144 A  
HETATM    9  C   UNL     1      -5.885  15.765  67.435  1.00  0.00    -0.070 A  
HETATM   10  N   UNL     1      -5.156  16.505  69.617  1.00  0.00    -0.130 NA 
HETATM   11  C   UNL     1      -5.160  16.602  68.269  1.00  0.00    -0.108 A  
BRANCH   8  12
HETATM   12  O   UNL     1      -7.344  13.935  67.156  1.00  0.00    -0.072 OA 
BRANCH  12  13
HETATM   13  C   UNL     1      -7.603  12.634  67.532  1.00  0.00    -0.160 A  
HETATM   14  C   UNL     1      -7.203  11.642  66.635  1.00  0.00    -0.025 A  
HETATM   15  C   UNL     1      -7.478  10.307  66.920  1.00  0.00    -0.101 A  
HETATM   16  F   UNL     1      -7.105   9.359  66.048  1.00  0.00    -0.085 F  
HETATM   17  C   UNL     1      -8.200   9.949  68.061  1.00  0.00    -0.113 A  
HETATM   18  C   UNL     1      -8.306  12.284  68.691  1.00  0.00    -0.002 A  
HETATM   19  C   UNL     1      -8.598  10.942  68.959  1.00  0.00    -0.110 A  
BRANCH  17  20
HETATM   20  N   UNL     1      -8.528   8.590  68.272  1.00  0.00    -0.133 N  
HETATM   21  H   UNL     1      -7.808   7.874  68.176  1.00  0.00     0.000 HD 
BRANCH  20  22
HETATM   22  C   UNL     1      -9.825   8.226  68.608  1.00  0.00    -0.176 C  
HETATM   23  O   UNL     1     -10.124   7.476  69.534  1.00  0.00    -0.181 OA 
BRANCH  22  24
HETATM   24  N   UNL     1     -10.739   8.814  67.754  1.00  0.00    -0.462 N  
HETATM   25  H   UNL     1     -11.706   8.922  68.060  1.00  0.00     0.000 HD 
BRANCH  24  26
HETATM   26  C   UNL     1     -10.369   9.266  66.473  1.00  0.00    -0.200 A  
HETATM   27  C   UNL     1      -9.349   8.601  65.802  1.00  0.00    -0.227 A  
HETATM   28  C   UNL     1      -8.961   9.030  64.533  1.00  0.00    -0.069 A  
HETATM   29  C   UNL     1      -9.536  10.168  63.953  1.00  0.00    -0.275 A  
HETATM   30 CL   UNL     1      -8.944  10.603  62.392  1.00  0.00    -0.296 Cl 
HETATM   31  C   UNL     1     -10.527  10.884  64.634  1.00  0.00    -0.384 A  
HETATM   32  C   UNL     1     -10.962  10.393  65.889  1.00  0.00     0.215 A  
HETATM   33  C   UNL     1     -11.136  12.172  64.136  1.00  0.00    -0.364 C  
HETATM   34  F   UNL     1     -12.482  12.071  63.953  1.00  0.00    -0.507 F  
HETATM   35  F   UNL     1     -10.966  13.185  65.039  1.00  0.00    -0.286 F  
HETATM   36  F   UNL     1     -10.645  12.660  62.966  1.00  0.00    -0.345 F  
ENDBRANCH  24  26
ENDBRANCH  22  24
ENDBRANCH  20  22
ENDBRANCH  17  20
ENDBRANCH  12  13
ENDBRANCH   8  12
ENDBRANCH   3   6
TORSDOF 7
ENDMDL
MODEL      362
REMARK 921   NORMALIZED FREE ENERGY PREDICTED BY IDOCK:    7.74 KCAL/MOL
REMARK 922        TOTAL FREE ENERGY PREDICTED BY IDOCK:    8.92 KCAL/MOL
REMARK 923 INTER-LIGAND FREE ENERGY PREDICTED BY IDOCK:   -0.93 KCAL/MOL
REMARK 924 INTRA-LIGAND FREE ENERGY PREDICTED BY IDOCK:    9.85 KCAL/MOL
REMARK 927      BINDING AFFINITY PREDICTED BY RF-SCORE:    0.00 PKD
ROOT
HETATM    1  C   UNL     1     -13.422  11.094  72.232  1.00  0.00     0.075 C  
HETATM    2  N   UNL     1     -12.678  10.573  71.118  1.00  0.00    -0.383 N  
HETATM    3  C   UNL     1     -11.875   9.461  71.255  1.00  0.00    -0.360 C  
HETATM    4  H   UNL     1     -12.744  11.035  70.211  1.00  0.00     0.000 HD 
HETATM    5  O   UNL     1     -11.779   8.817  72.294  1.00  0.00    -0.363 OA 
ENDROOT
BRANCH   3   6
HETATM    6  C   UNL     1     -11.103   9.079  70.030  1.00  0.00    -0.182 A  
HETATM    7  C   UNL     1     -10.912  10.033  69.040  1.00  0.00    -0.249 A  
HETATM    8  C   UNL     1     -10.159   9.676  67.929  1.00  0.00    -0.181 A  
HETATM    9  C   UNL     1      -9.680   8.375  67.814  1.00  0.00    -0.199 A  
HETATM   10  N   UNL     1     -10.630   7.804  69.961  1.00  0.00    -0.235 NA 
HETATM   11  C   UNL     1      -9.935   7.486  68.847  1.00  0.00    -0.168 A  
BRANCH   8  12
HETATM   12  O   UNL     1      -9.915  10.522  66.871  1.00  0.00    -0.186 OA 
BRANCH  12  13
HETATM   13  C   UNL     1      -9.158  11.657  67.069  1.00  0.00    -0.179 A  
HETATM   14  C   UNL     1      -8.737  11.898  68.378  1.00  0.00    -0.157 A  
HETATM   15  C   UNL     1      -8.015  13.053  68.665  1.00  0.00    -0.027 A  
HETATM   16  F   UNL     1      -7.626  13.287  69.928  1.00  0.00     0.473 F  
HETATM   17  C   UNL     1      -7.755  14.004  67.677  1.00  0.00    -0.177 A  
HETATM   18  C   UNL     1      -8.881  12.593  66.065  1.00  0.00     0.304 A  
HETATM   19  C   UNL     1      -8.174  13.762  66.367  1.00  0.00     0.819 A  
BRANCH  17  20
HETATM   20  N   UNL     1      -7.088  15.200  68.028  1.00  0.00    -0.116 N  
HETATM   21  H   UNL     1      -6.885  15.399  69.008  1.00  0.00     0.000 HD 
BRANCH  20  22
HETATM   22  C   UNL     1      -6.708  16.104  67.046  1.00  0.00    -0.148 C  
HETATM   23  O   UNL     1      -5.665  16.753  67.057  1.00  0.00    -0.153 OA 
BRANCH  22  24
HETATM   24  N   UNL     1      -7.667  16.186  66.054  1.00  0.00     0.143 N  
HETATM   25  H   UNL     1      -7.383  16.446  65.109  1.00  0.00     0.000 HD 
BRANCH  24  26
HETATM   26  C   UNL     1      -9.025  15.921  66.313  1.00  0.00    -0.346 A  
HETATM   27  C   UNL     1      -9.637  16.573  67.379  1.00  0.00    -0.238 A  
HETATM   28  C   UNL     1     -10.980  16.325  67.660  1.00  0.00    -0.245 A  
HETATM   29  C   UNL     1     -11.705  15.375  66.929  1.00  0.00     0.114 A  
HETATM   30 CL   UNL     1     -13.349  15.150  67.400  1.00  0.00     3.630 Cl 
HETATM   31  C   UNL     1     -11.093  14.669  65.887  1.00  0.00    -0.338 A  
HETATM   32  C   UNL     1      -9.750  14.984  65.566  1.00  0.00    -0.294 A  
HETATM   33  C   UNL     1     -11.759  13.562  65.108  1.00  0.00    -0.322 C  
HETATM   34  F   UNL     1     -11.841  13.843  63.777  1.00  0.00    -0.420 F  
HETATM   35  F   UNL     1     -11.047  12.397  65.190  1.00  0.00    -0.312 F  
HETATM   36  F   UNL     1     -13.020  13.229  65.488  1.00  0.00    -0.512 F  
ENDBRANCH  24  26
ENDBRANCH  22  24
ENDBRANCH  20  22
ENDBRANCH  17  20
ENDBRANCH  12  13
ENDBRANCH   8  12
ENDBRANCH   3   6
TORSDOF 7
ENDMDL
MODEL      363
REMARK 921   NORMALIZED FREE ENERGY PREDICTED BY IDOCK:   18.64 KCAL/MOL
REMARK 922        TOTAL FREE ENERGY PREDICTED BY IDOCK:   24.29 KCAL/MOL
REMARK 923 INTER-LIGAND FREE ENERGY PREDICTED BY IDOCK:   20.36 KCAL/MOL
REMARK 924 INTRA-LIGAND FREE ENERGY PREDICTED BY IDOCK:    3.93 KCAL/MOL
REMARK 927      BINDING AFFINITY PREDICTED BY RF-SCORE:    0.00 PKD
ROOT
HETATM    1  C   UNL     1     -10.037  19.920  71.419  1.00  0.00     2.574 C  
HETATM    2  N   UNL     1     -10.101  19.844  69.986  1.00  0.00    -0.290 N  
HETATM    3  C   UNL     1      -9.077  19.281  69.255  1.00  0.00    -0.044 C  
HETATM    4  H   UNL     1     -10.919  20.213  69.500  1.00  0.00     0.000 HD 
HETATM    5  O   UNL     1      -8.084  18.769  69.762  1.00  0.00     0.492 OA 
ENDROOT
BRANCH   3   6
HETATM    6  C   UNL     1      -9.248  19.340  67.769  1.00  0.00    -0.309 A  
HETATM    7  C   UNL     1      -9.330  18.148  67.061  1.00  0.00    -0.270 A  
HETATM    8  C   UNL     1      -9.531  18.219  65.689  1.00  0.00     0.625 A  
HETATM    9  C   UNL     1      -9.579  19.462  65.066  1.00  0.00     2.223 A  
HETATM   10  N   UNL     1      -9.314  20.573  67.195  1.00  0.00    -0.395 NA 
HETATM   11  C   UNL     1      -9.471  20.598  65.853  1.00  0.00     0.359 A  
BRANCH   8  12
HETATM   12  O   UNL     1      -9.609  17.114  64.874  1.00  0.00     0.954 OA 
BRANCH  12  13
HETATM   13  C   UNL     1     -10.201  15.961  65.345  1.00  0.00    -0.323 A  
HETATM   14  C   UNL     1     -10.667  16.000  66.660  1.00  0.00    -0.247 A  
HETATM   15  C   UNL     1     -11.228  14.858  67.224  1.00  0.00    -0.345 A  
HETATM   16  F   UNL     1     -11.661  14.897  68.494  1.00  0.00    -0.279 F  
HETATM   17  C   UNL     1     -11.279  13.656  66.516  1.00  0.00    -0.310 A  
HETATM   18  C   UNL     1     -10.269  14.767  64.617  1.00  0.00     0.025 A  
HETATM   19  C   UNL     1     -10.814  13.617  65.199  1.00  0.00    -0.338 A  
BRANCH  17  20
HETATM   20  N   UNL     1     -11.783  12.499  67.153  1.00  0.00    -0.361 N  
HETATM   21  H   UNL     1     -11.410  11.582  66.910  1.00  0.00     0.000 HD 
BRANCH  20  22
HETATM   22  C   UNL     1     -12.784  12.607  68.110  1.00  0.00     1.610 C  
HETATM   23  O   UNL     1     -13.984  12.695  67.861  1.00  0.00     7.755 OA 
BRANCH  22  24
HETATM   24  N   UNL     1     -12.249  12.614  69.384  1.00  0.00    -0.143 N  
HETATM   25  H   UNL     1     -12.856  12.409  70.178  1.00  0.00     0.000 HD 
BRANCH  24  26
HETATM   26  C   UNL     1     -10.889  12.896  69.615  1.00  0.00     0.339 A  
HETATM   27  C   UNL     1     -10.561  14.030  70.351  1.00  0.00     1.045 A  
HETATM   28  C   UNL     1      -9.222  14.334  70.591  1.00  0.00     3.027 A  
HETATM   29  C   UNL     1      -8.197  13.554  70.040  1.00  0.00     2.318 A  
HETATM   30 CL   UNL     1      -6.587  14.059  70.395  1.00  0.00     0.008 Cl 
HETATM   31  C   UNL     1      -8.505  12.439  69.252  1.00  0.00     0.832 A  
HETATM   32  C   UNL     1      -9.869  12.100  69.078  1.00  0.00     0.190 A  
HETATM   33  C   UNL     1      -7.477  11.596  68.539  1.00  0.00    -0.113 C  
HETATM   34  F   UNL     1      -7.502  10.296  68.944  1.00  0.00    -0.074 F  
HETATM   35  F   UNL     1      -7.709  11.562  67.192  1.00  0.00    -0.126 F  
HETATM   36  F   UNL     1      -6.182  11.990  68.661  1.00  0.00    -0.050 F  
ENDBRANCH  24  26
ENDBRANCH  22  24
ENDBRANCH  20  22
ENDBRANCH  17  20
ENDBRANCH  12  13
ENDBRANCH   8  12
ENDBRANCH   3   6
TORSDOF 7
ENDMDL
