MODEL        1
REMARK 921   NORMALIZED FREE ENERGY PREDICTED BY IDOCK:   -6.97 KCAL/MOL
REMARK 922        TOTAL FREE ENERGY PREDICTED BY IDOCK:   -9.06 KCAL/MOL
REMARK 923 INTER-LIGAND FREE ENERGY PREDICTED BY IDOCK:   -8.19 KCAL/MOL
REMARK 924 INTRA-LIGAND FREE ENERGY PREDICTED BY IDOCK:   -0.86 KCAL/MOL
REMARK 927      BINDING AFFINITY PREDICTED BY RF-SCORE:    0.00 PKD
ROOT
HETATM    1  O   UNL     1     -12.578  13.945  63.403  1.00  0.00    -0.853 OA 
HETATM    2  S   UNL     1     -12.171  12.443  63.829  1.00  0.00    -0.554 S  
HETATM    3  O   UNL     1     -12.245  12.443  65.458  1.00  0.00    -0.568 OA 
HETATM    4  O   UNL     1     -10.799  12.236  63.407  1.00  0.00    -0.449 OA 
HETATM    5  O   UNL     1     -13.230  11.598  63.327  1.00  0.00    -0.487 OA 
ENDROOT
BRANCH   3   6
HETATM    6  N   UNL     1     -11.132  13.058  66.157  1.00  0.00    -0.283 N  
HETATM    7  C   UNL     1     -10.626  12.080  67.121  1.00  0.00    -0.224 C  
HETATM    8  C   UNL     1     -11.649  12.223  68.231  1.00  0.00    -0.331 C  
HETATM    9  N   UNL     1     -11.732  13.674  68.317  1.00  0.00    -0.343 N  
HETATM   10  C   UNL     1     -10.583  14.253  69.044  1.00  0.00    -0.232 C  
HETATM   11  C   UNL     1     -11.790  14.082  66.937  1.00  0.00    -0.430 C  
HETATM   12  O   UNL     1     -12.404  15.059  66.535  1.00  0.00     0.081 OA 
HETATM   13  C   UNL     1      -9.253  13.885  68.348  1.00  0.00    -0.194 C  
HETATM   14  C   UNL     1      -9.266  12.462  67.763  1.00  0.00    -0.193 C  
BRANCH  10  15
HETATM   15  C   UNL     1     -10.585  15.769  69.350  1.00  0.00    -0.255 C  
HETATM   16  O   UNL     1     -11.169  16.228  70.331  1.00  0.00    -0.373 OA 
HETATM   17  N   UNL     1      -9.965  16.562  68.421  1.00  0.00    -0.240 N  
HETATM   18  H   UNL     1      -9.584  16.129  67.580  1.00  0.00     0.000 HD 
BRANCH  17  19
HETATM   19  C   UNL     1      -9.830  18.008  68.593  1.00  0.00    -0.378 C  
HETATM   20  C   UNL     1      -8.380  18.490  68.469  1.00  0.00    -0.359 C  
HETATM   21  C   UNL     1      -7.870  18.353  67.039  1.00  0.00    -0.227 C  
HETATM   22  N   UNL     1      -8.732  19.057  66.086  1.00  0.00    -0.458 NA 
HETATM   23  H   UNL     1      -8.371  18.981  65.135  1.00  0.00     0.000 HD 
HETATM   24  C   UNL     1     -10.124  18.609  66.161  1.00  0.00    -0.369 C  
HETATM   25  C   UNL     1     -10.700  18.737  67.571  1.00  0.00    -0.474 C  
ENDBRANCH  17  19
ENDBRANCH  10  15
ENDBRANCH   3   6
TORSDOF 3
ENDMDL
MODEL        2
REMARK 921   NORMALIZED FREE ENERGY PREDICTED BY IDOCK:   -6.90 KCAL/MOL
REMARK 922        TOTAL FREE ENERGY PREDICTED BY IDOCK:   -8.97 KCAL/MOL
REMARK 923 INTER-LIGAND FREE ENERGY PREDICTED BY IDOCK:   -8.35 KCAL/MOL
REMARK 924 INTRA-LIGAND FREE ENERGY PREDICTED BY IDOCK:   -0.62 KCAL/MOL
REMARK 927      BINDING AFFINITY PREDICTED BY RF-SCORE:    0.00 PKD
ROOT
HETATM    1  O   UNL     1     -12.139  12.383  70.559  1.00  0.00    -0.363 OA 
HETATM    2  S   UNL     1     -11.610  11.288  69.498  1.00  0.00    -0.360 S  
HETATM    3  O   UNL     1     -10.741  12.148  68.419  1.00  0.00    -0.211 OA 
HETATM    4  O   UNL     1     -12.776  10.727  68.843  1.00  0.00    -0.153 OA 
HETATM    5  O   UNL     1     -10.703  10.441  70.238  1.00  0.00    -0.282 OA 
ENDROOT
BRANCH   3   6
HETATM    6  N   UNL     1     -11.493  12.898  67.431  1.00  0.00    -0.315 N  
HETATM    7  C   UNL     1     -11.386  12.181  66.160  1.00  0.00    -0.361 C  
HETATM    8  C   UNL     1     -10.004  12.610  65.710  1.00  0.00    -0.256 C  
HETATM    9  N   UNL     1     -10.078  14.038  65.982  1.00  0.00    -0.305 N  
HETATM   10  C   UNL     1     -10.846  14.760  64.946  1.00  0.00    -0.416 C  
HETATM   11  C   UNL     1     -10.694  14.094  67.282  1.00  0.00    -0.279 C  
HETATM   12  O   UNL     1     -10.456  14.951  68.119  1.00  0.00    -0.237 OA 
HETATM   13  C   UNL     1     -12.287  14.210  64.850  1.00  0.00    -0.446 C  
HETATM   14  C   UNL     1     -12.354  12.687  65.058  1.00  0.00    -0.561 C  
BRANCH  10  15
HETATM   15  C   UNL     1     -10.903  16.305  65.005  1.00  0.00    -0.320 C  
HETATM   16  O   UNL     1     -11.536  16.958  64.176  1.00  0.00    -1.174 OA 
HETATM   17  N   UNL     1     -10.145  16.889  65.984  1.00  0.00    -0.331 N  
HETATM   18  H   UNL     1      -9.567  16.296  66.578  1.00  0.00     0.000 HD 
BRANCH  17  19
HETATM   19  C   UNL     1     -10.137  18.334  66.208  1.00  0.00    -0.380 C  
HETATM   20  C   UNL     1     -10.834  18.740  67.513  1.00  0.00    -0.396 C  
HETATM   21  C   UNL     1     -10.038  18.286  68.731  1.00  0.00    -0.370 C  
HETATM   22  N   UNL     1      -8.663  18.794  68.700  1.00  0.00    -0.340 NA 
HETATM   23  H   UNL     1      -8.145  18.506  69.531  1.00  0.00     0.000 HD 
HETATM   24  C   UNL     1      -7.957  18.409  67.476  1.00  0.00    -0.236 C  
HETATM   25  C   UNL     1      -8.700  18.851  66.215  1.00  0.00    -0.260 C  
ENDBRANCH  17  19
ENDBRANCH  10  15
ENDBRANCH   3   6
TORSDOF 3
ENDMDL
MODEL        3
REMARK 921   NORMALIZED FREE ENERGY PREDICTED BY IDOCK:   -6.49 KCAL/MOL
REMARK 922        TOTAL FREE ENERGY PREDICTED BY IDOCK:   -8.49 KCAL/MOL
REMARK 923 INTER-LIGAND FREE ENERGY PREDICTED BY IDOCK:   -7.76 KCAL/MOL
REMARK 924 INTRA-LIGAND FREE ENERGY PREDICTED BY IDOCK:   -0.74 KCAL/MOL
REMARK 927      BINDING AFFINITY PREDICTED BY RF-SCORE:    0.00 PKD
ROOT
HETATM    1  O   UNL     1     -12.655  14.118  66.091  1.00  0.00    -0.465 OA 
HETATM    2  S   UNL     1     -11.927  13.178  65.000  1.00  0.00    -0.410 S  
HETATM    3  O   UNL     1     -11.771  11.733  65.740  1.00  0.00    -0.359 OA 
HETATM    4  O   UNL     1     -10.612  13.742  64.759  1.00  0.00    -0.386 OA 
HETATM    5  O   UNL     1     -12.875  13.034  63.919  1.00  0.00    -0.664 OA 
ENDROOT
BRANCH   3   6
HETATM    6  N   UNL     1     -10.703  11.615  66.714  1.00  0.00    -0.248 N  
HETATM    7  C   UNL     1      -9.672  10.755  66.131  1.00  0.00    -0.207 C  
HETATM    8  C   UNL     1     -10.285   9.387  66.357  1.00  0.00    -0.230 C  
HETATM    9  N   UNL     1     -10.724   9.528  67.738  1.00  0.00    -0.262 N  
HETATM   10  C   UNL     1      -9.603   9.392  68.692  1.00  0.00    -0.147 C  
HETATM   11  C   UNL     1     -11.326  10.835  67.759  1.00  0.00    -0.279 C  
HETATM   12  O   UNL     1     -12.275  11.143  68.465  1.00  0.00    -0.600 OA 
HETATM   13  C   UNL     1      -8.518  10.457  68.417  1.00  0.00    -0.124 C  
HETATM   14  C   UNL     1      -8.334  10.740  66.916  1.00  0.00    -0.132 C  
BRANCH  10  15
HETATM   15  C   UNL     1      -9.915   9.374  70.207  1.00  0.00    -0.237 C  
HETATM   16  O   UNL     1      -9.035   9.554  71.048  1.00  0.00    -0.241 OA 
HETATM   17  N   UNL     1     -11.207   9.071  70.542  1.00  0.00    -0.259 N  
HETATM   18  H   UNL     1     -11.867   8.838  69.800  1.00  0.00     0.000 HD 
BRANCH  17  19
HETATM   19  C   UNL     1     -11.676   9.071  71.928  1.00  0.00    -0.374 C  
HETATM   20  C   UNL     1     -13.119   9.572  72.069  1.00  0.00    -0.528 C  
HETATM   21  C   UNL     1     -14.110   8.585  71.463  1.00  0.00    -0.362 C  
HETATM   22  N   UNL     1     -13.968   7.247  72.044  1.00  0.00    -0.574 NA 
HETATM   23  H   UNL     1     -14.651   6.599  71.650  1.00  0.00     0.000 HD 
HETATM   24  C   UNL     1     -12.606   6.726  71.909  1.00  0.00    -0.285 C  
HETATM   25  C   UNL     1     -11.563   7.666  72.515  1.00  0.00    -0.382 C  
ENDBRANCH  17  19
ENDBRANCH  10  15
ENDBRANCH   3   6
TORSDOF 3
ENDMDL
MODEL        4
REMARK 921   NORMALIZED FREE ENERGY PREDICTED BY IDOCK:   -6.35 KCAL/MOL
REMARK 922        TOTAL FREE ENERGY PREDICTED BY IDOCK:   -8.32 KCAL/MOL
REMARK 923 INTER-LIGAND FREE ENERGY PREDICTED BY IDOCK:   -7.51 KCAL/MOL
REMARK 924 INTRA-LIGAND FREE ENERGY PREDICTED BY IDOCK:   -0.82 KCAL/MOL
REMARK 927      BINDING AFFINITY PREDICTED BY RF-SCORE:    0.00 PKD
ROOT
HETATM    1  O   UNL     1     -10.868  18.840  65.222  1.00  0.00    -0.576 OA 
HETATM    2  S   UNL     1     -10.060  19.159  66.582  1.00  0.00    -0.430 S  
HETATM    3  O   UNL     1      -9.495  17.710  67.074  1.00  0.00    -0.252 OA 
HETATM    4  O   UNL     1     -11.024  19.654  67.547  1.00  0.00    -0.419 OA 
HETATM    5  O   UNL     1      -8.935  19.972  66.183  1.00  0.00    -0.353 OA 
ENDROOT
BRANCH   3   6
HETATM    6  N   UNL     1     -10.448  16.828  67.720  1.00  0.00    -0.325 N  
HETATM    7  C   UNL     1      -9.952  16.560  69.071  1.00  0.00    -0.275 C  
HETATM    8  C   UNL     1      -8.894  15.514  68.779  1.00  0.00    -0.203 C  
HETATM    9  N   UNL     1      -9.626  14.657  67.858  1.00  0.00    -0.209 N  
HETATM   10  C   UNL     1     -10.578  13.772  68.562  1.00  0.00    -0.253 C  
HETATM   11  C   UNL     1     -10.275  15.597  66.981  1.00  0.00    -0.274 C  
HETATM   12  O   UNL     1     -10.502  15.390  65.799  1.00  0.00    -0.309 OA 
HETATM   13  C   UNL     1     -11.601  14.600  69.371  1.00  0.00    -0.342 C  
HETATM   14  C   UNL     1     -10.978  15.859  70.000  1.00  0.00    -0.361 C  
BRANCH  10  15
HETATM   15  C   UNL     1     -11.336  12.698  67.747  1.00  0.00    -0.297 C  
HETATM   16  O   UNL     1     -12.231  12.020  68.250  1.00  0.00    -0.398 OA 
HETATM   17  N   UNL     1     -10.893  12.504  66.466  1.00  0.00    -0.251 N  
HETATM   18  H   UNL     1     -10.083  13.031  66.140  1.00  0.00     0.000 HD 
BRANCH  17  19
HETATM   19  C   UNL     1     -11.540  11.567  65.548  1.00  0.00     0.097 C  
HETATM   20  C   UNL     1     -12.647  12.221  64.712  1.00  0.00    -0.312 C  
HETATM   21  C   UNL     1     -12.071  13.210  63.705  1.00  0.00    -0.513 C  
HETATM   22  N   UNL     1     -11.071  12.580  62.838  1.00  0.00    -0.488 NA 
HETATM   23  H   UNL     1     -10.709  13.243  62.152  1.00  0.00     0.000 HD 
HETATM   24  C   UNL     1      -9.986  11.962  63.601  1.00  0.00    -0.381 C  
HETATM   25  C   UNL     1     -10.499  10.945  64.620  1.00  0.00    -0.384 C  
ENDBRANCH  17  19
ENDBRANCH  10  15
ENDBRANCH   3   6
TORSDOF 3
ENDMDL
MODEL        5
REMARK 921   NORMALIZED FREE ENERGY PREDICTED BY IDOCK:   -6.33 KCAL/MOL
REMARK 922        TOTAL FREE ENERGY PREDICTED BY IDOCK:   -8.31 KCAL/MOL
REMARK 923 INTER-LIGAND FREE ENERGY PREDICTED BY IDOCK:   -7.62 KCAL/MOL
REMARK 924 INTRA-LIGAND FREE ENERGY PREDICTED BY IDOCK:   -0.68 KCAL/MOL
REMARK 927      BINDING AFFINITY PREDICTED BY RF-SCORE:    0.00 PKD
ROOT
HETATM    1  O   UNL     1     -12.276  15.894  72.282  1.00  0.00    -0.407 OA 
HETATM    2  S   UNL     1     -13.174  14.683  71.705  1.00  0.00    -0.381 S  
HETATM    3  O   UNL     1     -12.185  13.890  70.680  1.00  0.00    -0.334 OA 
HETATM    4  O   UNL     1     -14.266  15.278  70.959  1.00  0.00    -0.381 OA 
HETATM    5  O   UNL     1     -13.438  13.825  72.837  1.00  0.00    -0.652 OA 
ENDROOT
BRANCH   3   6
HETATM    6  N   UNL     1     -11.976  14.497  69.380  1.00  0.00    -0.318 N  
HETATM    7  C   UNL     1     -12.021  13.426  68.383  1.00  0.00    -0.324 C  
HETATM    8  C   UNL     1     -10.633  12.836  68.541  1.00  0.00    -0.252 C  
HETATM    9  N   UNL     1      -9.839  14.055  68.578  1.00  0.00    -0.231 N  
HETATM   10  C   UNL     1      -9.647  14.632  67.230  1.00  0.00    -0.221 C  
HETATM   11  C   UNL     1     -10.593  14.912  69.455  1.00  0.00    -0.246 C  
HETATM   12  O   UNL     1     -10.094  15.741  70.202  1.00  0.00    -0.264 OA 
HETATM   13  C   UNL     1     -11.007  14.960  66.576  1.00  0.00    -0.327 C  
HETATM   14  C   UNL     1     -12.092  13.923  66.915  1.00  0.00    -0.467 C  
BRANCH  10  15
HETATM   15  C   UNL     1      -8.708  15.851  67.071  1.00  0.00    -0.222 C  
HETATM   16  O   UNL     1      -7.564  15.730  66.634  1.00  0.00    -0.196 OA 
HETATM   17  N   UNL     1      -9.206  17.045  67.518  1.00  0.00    -0.230 N  
HETATM   18  H   UNL     1     -10.126  17.061  67.959  1.00  0.00     0.000 HD 
BRANCH  17  19
HETATM   19  C   UNL     1      -8.467  18.300  67.385  1.00  0.00    -0.249 C  
HETATM   20  C   UNL     1      -8.988  19.181  66.243  1.00  0.00    -0.320 C  
HETATM   21  C   UNL     1     -10.374  19.733  66.556  1.00  0.00    -0.506 C  
HETATM   22  N   UNL     1     -10.392  20.466  67.825  1.00  0.00    -0.265 NA 
HETATM   23  H   UNL     1     -11.317  20.852  68.015  1.00  0.00     0.000 HD 
HETATM   24  C   UNL     1      -9.920  19.649  68.944  1.00  0.00    -0.438 C  
HETATM   25  C   UNL     1      -8.523  19.079  68.697  1.00  0.00    -0.394 C  
ENDBRANCH  17  19
ENDBRANCH  10  15
ENDBRANCH   3   6
TORSDOF 3
ENDMDL
MODEL        6
REMARK 921   NORMALIZED FREE ENERGY PREDICTED BY IDOCK:   -6.27 KCAL/MOL
REMARK 922        TOTAL FREE ENERGY PREDICTED BY IDOCK:   -8.24 KCAL/MOL
REMARK 923 INTER-LIGAND FREE ENERGY PREDICTED BY IDOCK:   -7.99 KCAL/MOL
REMARK 924 INTRA-LIGAND FREE ENERGY PREDICTED BY IDOCK:   -0.25 KCAL/MOL
REMARK 927      BINDING AFFINITY PREDICTED BY RF-SCORE:    0.00 PKD
ROOT
HETATM    1  O   UNL     1     -10.735  17.140  66.961  1.00  0.00    -0.266 OA 
HETATM    2  S   UNL     1     -10.438  16.331  65.597  1.00  0.00    -0.327 S  
HETATM    3  O   UNL     1     -11.229  14.917  65.776  1.00  0.00    -0.335 OA 
HETATM    4  O   UNL     1      -9.009  16.084  65.549  1.00  0.00    -0.270 OA 
HETATM    5  O   UNL     1     -11.088  17.086  64.550  1.00  0.00    -1.098 OA 
ENDROOT
BRANCH   3   6
HETATM    6  N   UNL     1     -10.600  13.925  66.627  1.00  0.00    -0.273 N  
HETATM    7  C   UNL     1     -10.484  12.690  65.850  1.00  0.00    -0.274 C  
HETATM    8  C   UNL     1     -11.900  12.158  65.955  1.00  0.00    -0.272 C  
HETATM    9  N   UNL     1     -12.144  12.357  67.376  1.00  0.00    -0.155 N  
HETATM   10  C   UNL     1     -11.490  11.319  68.201  1.00  0.00    -0.306 C  
HETATM   11  C   UNL     1     -11.624  13.678  67.617  1.00  0.00    -0.346 C  
HETATM   12  O   UNL     1     -12.083  14.458  68.438  1.00  0.00    -0.322 OA 
HETATM   13  C   UNL     1      -9.963  11.315  67.968  1.00  0.00    -0.191 C  
HETATM   14  C   UNL     1      -9.587  11.606  66.505  1.00  0.00    -0.226 C  
BRANCH  10  15
HETATM   15  C   UNL     1     -11.765  11.299  69.724  1.00  0.00    -0.349 C  
HETATM   16  O   UNL     1     -11.721  12.326  70.400  1.00  0.00    -0.242 OA 
HETATM   17  N   UNL     1     -11.979  10.063  70.271  1.00  0.00    -0.417 N  
HETATM   18  H   UNL     1     -11.906   9.240  69.672  1.00  0.00     0.000 HD 
BRANCH  17  19
HETATM   19  C   UNL     1     -12.309   9.879  71.684  1.00  0.00    -0.406 C  
HETATM   20  C   UNL     1     -13.808   9.664  71.923  1.00  0.00    -0.291 C  
HETATM   21  C   UNL     1     -14.270   8.318  71.375  1.00  0.00    -0.338 C  
HETATM   22  N   UNL     1     -13.493   7.209  71.935  1.00  0.00    -0.547 NA 
HETATM   23  H   UNL     1     -13.824   6.311  71.582  1.00  0.00     0.000 HD 
HETATM   24  C   UNL     1     -12.055   7.369  71.708  1.00  0.00    -0.312 C  
HETATM   25  C   UNL     1     -11.527   8.697  72.252  1.00  0.00    -0.423 C  
ENDBRANCH  17  19
ENDBRANCH  10  15
ENDBRANCH   3   6
TORSDOF 3
ENDMDL
MODEL        7
REMARK 921   NORMALIZED FREE ENERGY PREDICTED BY IDOCK:   -6.21 KCAL/MOL
REMARK 922        TOTAL FREE ENERGY PREDICTED BY IDOCK:   -8.16 KCAL/MOL
REMARK 923 INTER-LIGAND FREE ENERGY PREDICTED BY IDOCK:   -7.68 KCAL/MOL
REMARK 924 INTRA-LIGAND FREE ENERGY PREDICTED BY IDOCK:   -0.48 KCAL/MOL
REMARK 927      BINDING AFFINITY PREDICTED BY RF-SCORE:    0.00 PKD
ROOT
HETATM    1  O   UNL     1      -8.011  10.702  65.049  1.00  0.00    -0.119 OA 
HETATM    2  S   UNL     1      -9.577  10.791  64.671  1.00  0.00    -0.294 S  
HETATM    3  O   UNL     1      -9.993  12.333  65.003  1.00  0.00    -0.261 OA 
HETATM    4  O   UNL     1     -10.285   9.897  65.567  1.00  0.00    -0.273 OA 
HETATM    5  O   UNL     1      -9.641  10.602  63.241  1.00  0.00    -0.287 OA 
ENDROOT
BRANCH   3   6
HETATM    6  N   UNL     1     -10.201  12.662  66.400  1.00  0.00    -0.246 N  
HETATM    7  C   UNL     1     -11.577  12.296  66.737  1.00  0.00    -0.369 C  
HETATM    8  C   UNL     1     -12.333  13.473  66.152  1.00  0.00    -0.407 C  
HETATM    9  N   UNL     1     -11.506  14.572  66.630  1.00  0.00    -0.357 N  
HETATM   10  C   UNL     1     -11.759  14.876  68.054  1.00  0.00    -0.320 C  
HETATM   11  C   UNL     1     -10.166  14.107  66.382  1.00  0.00    -0.290 C  
HETATM   12  O   UNL     1      -9.230  14.836  66.089  1.00  0.00    -0.276 OA 
HETATM   13  C   UNL     1     -11.477  13.638  68.937  1.00  0.00    -0.344 C  
HETATM   14  C   UNL     1     -11.890  12.321  68.257  1.00  0.00    -0.367 C  
BRANCH  10  15
HETATM   15  C   UNL     1     -11.068  16.108  68.685  1.00  0.00    -0.356 C  
HETATM   16  O   UNL     1     -10.872  16.186  69.897  1.00  0.00    -0.313 OA 
HETATM   17  N   UNL     1     -10.765  17.125  67.820  1.00  0.00    -0.355 N  
HETATM   18  H   UNL     1     -11.042  17.038  66.842  1.00  0.00     0.000 HD 
BRANCH  17  19
HETATM   19  C   UNL     1     -10.059  18.332  68.248  1.00  0.00    -0.386 C  
HETATM   20  C   UNL     1      -8.552  18.272  67.971  1.00  0.00    -0.280 C  
HETATM   21  C   UNL     1      -8.262  18.322  66.474  1.00  0.00    -0.268 C  
HETATM   22  N   UNL     1      -8.857  19.505  65.846  1.00  0.00    -0.406 NA 
HETATM   23  H   UNL     1      -8.638  19.544  64.851  1.00  0.00     0.000 HD 
HETATM   24  C   UNL     1     -10.301  19.587  66.074  1.00  0.00    -0.511 C  
HETATM   25  C   UNL     1     -10.657  19.557  67.560  1.00  0.00    -0.599 C  
ENDBRANCH  17  19
ENDBRANCH  10  15
ENDBRANCH   3   6
TORSDOF 3
ENDMDL
MODEL        8
REMARK 921   NORMALIZED FREE ENERGY PREDICTED BY IDOCK:   -6.17 KCAL/MOL
REMARK 922        TOTAL FREE ENERGY PREDICTED BY IDOCK:   -8.11 KCAL/MOL
REMARK 923 INTER-LIGAND FREE ENERGY PREDICTED BY IDOCK:   -7.41 KCAL/MOL
REMARK 924 INTRA-LIGAND FREE ENERGY PREDICTED BY IDOCK:   -0.71 KCAL/MOL
REMARK 927      BINDING AFFINITY PREDICTED BY RF-SCORE:    0.00 PKD
ROOT
HETATM    1  O   UNL     1     -11.284  19.222  67.300  1.00  0.00    -0.340 OA 
HETATM    2  S   UNL     1      -9.850  19.729  67.838  1.00  0.00    -0.427 S  
HETATM    3  O   UNL     1      -8.797  18.588  67.342  1.00  0.00    -0.265 OA 
HETATM    4  O   UNL     1      -9.913  19.731  69.287  1.00  0.00    -0.412 OA 
HETATM    5  O   UNL     1      -9.574  20.948  67.112  1.00  0.00    -0.414 OA 
ENDROOT
BRANCH   3   6
HETATM    6  N   UNL     1      -8.768  17.356  68.106  1.00  0.00    -0.248 N  
HETATM    7  C   UNL     1      -7.363  16.995  68.304  1.00  0.00    -0.203 C  
HETATM    8  C   UNL     1      -7.036  16.388  66.954  1.00  0.00    -0.212 C  
HETATM    9  N   UNL     1      -8.206  15.544  66.762  1.00  0.00    -0.248 N  
HETATM   10  C   UNL     1      -8.127  14.298  67.554  1.00  0.00    -0.187 C  
HETATM   11  C   UNL     1      -9.295  16.397  67.161  1.00  0.00    -0.218 C  
HETATM   12  O   UNL     1     -10.413  16.360  66.669  1.00  0.00    -0.295 OA 
HETATM   13  C   UNL     1      -8.000  14.614  69.061  1.00  0.00    -0.122 C  
HETATM   14  C   UNL     1      -7.135  15.857  69.334  1.00  0.00    -0.215 C  
BRANCH  10  15
HETATM   15  C   UNL     1      -9.222  13.223  67.359  1.00  0.00    -0.216 C  
HETATM   16  O   UNL     1      -9.340  12.275  68.134  1.00  0.00    -0.196 OA 
HETATM   17  N   UNL     1      -9.990  13.357  66.233  1.00  0.00    -0.291 N  
HETATM   18  H   UNL     1      -9.779  14.111  65.580  1.00  0.00     0.000 HD 
BRANCH  17  19
HETATM   19  C   UNL     1     -11.104  12.457  65.935  1.00  0.00    -0.313 C  
HETATM   20  C   UNL     1     -12.373  13.202  65.503  1.00  0.00    -0.529 C  
HETATM   21  C   UNL     1     -12.196  13.853  64.136  1.00  0.00    -0.393 C  
HETATM   22  N   UNL     1     -11.797  12.876  63.118  1.00  0.00    -0.848 NA 
HETATM   23  H   UNL     1     -11.705  13.315  62.202  1.00  0.00     0.000 HD 
HETATM   24  C   UNL     1     -10.576  12.158  63.487  1.00  0.00    -0.458 C  
HETATM   25  C   UNL     1     -10.696  11.468  64.845  1.00  0.00    -0.357 C  
ENDBRANCH  17  19
ENDBRANCH  10  15
ENDBRANCH   3   6
TORSDOF 3
ENDMDL
MODEL        9
REMARK 921   NORMALIZED FREE ENERGY PREDICTED BY IDOCK:   -6.12 KCAL/MOL
REMARK 922        TOTAL FREE ENERGY PREDICTED BY IDOCK:   -8.05 KCAL/MOL
REMARK 923 INTER-LIGAND FREE ENERGY PREDICTED BY IDOCK:   -7.69 KCAL/MOL
REMARK 924 INTRA-LIGAND FREE ENERGY PREDICTED BY IDOCK:   -0.36 KCAL/MOL
REMARK 927      BINDING AFFINITY PREDICTED BY RF-SCORE:    0.00 PKD
ROOT
HETATM    1  O   UNL     1     -12.169  15.037  63.981  1.00  0.00    -0.607 OA 
HETATM    2  S   UNL     1     -11.904  13.544  64.532  1.00  0.00    -0.425 S  
HETATM    3  O   UNL     1     -11.421  13.755  66.076  1.00  0.00    -0.313 OA 
HETATM    4  O   UNL     1     -10.812  12.989  63.756  1.00  0.00    -0.372 OA 
HETATM    5  O   UNL     1     -13.197  12.901  64.546  1.00  0.00    -0.634 OA 
ENDROOT
BRANCH   3   6
HETATM    6  N   UNL     1     -10.051  14.188  66.273  1.00  0.00    -0.290 N  
HETATM    7  C   UNL     1      -9.364  13.138  67.027  1.00  0.00    -0.238 C  
HETATM    8  C   UNL     1      -9.858  13.430  68.430  1.00  0.00    -0.216 C  
HETATM    9  N   UNL     1      -9.692  14.876  68.465  1.00  0.00    -0.208 N  
HETATM   10  C   UNL     1      -8.283  15.267  68.676  1.00  0.00    -0.159 C  
HETATM   11  C   UNL     1     -10.208  15.296  67.188  1.00  0.00    -0.252 C  
HETATM   12  O   UNL     1     -10.781  16.358  66.994  1.00  0.00    -0.302 OA 
HETATM   13  C   UNL     1      -7.383  14.703  67.553  1.00  0.00    -0.220 C  
HETATM   14  C   UNL     1      -7.823  13.302  67.091  1.00  0.00    -0.047 C  
BRANCH  10  15
HETATM   15  C   UNL     1      -7.949  16.764  68.879  1.00  0.00    -0.237 C  
HETATM   16  O   UNL     1      -6.910  17.123  69.430  1.00  0.00    -0.234 OA 
HETATM   17  N   UNL     1      -8.917  17.646  68.479  1.00  0.00    -0.289 N  
HETATM   18  H   UNL     1      -9.798  17.280  68.118  1.00  0.00     0.000 HD 
BRANCH  17  19
HETATM   19  C   UNL     1      -8.732  19.095  68.550  1.00  0.00    -0.365 C  
HETATM   20  C   UNL     1      -7.772  19.627  67.478  1.00  0.00    -0.303 C  
HETATM   21  C   UNL     1      -8.381  19.514  66.084  1.00  0.00    -0.321 C  
HETATM   22  N   UNL     1      -9.677  20.194  66.002  1.00  0.00    -0.611 NA 
HETATM   23  H   UNL     1     -10.065  20.134  65.060  1.00  0.00     0.000 HD 
HETATM   24  C   UNL     1     -10.627  19.698  66.999  1.00  0.00    -0.480 C  
HETATM   25  C   UNL     1     -10.081  19.799  68.423  1.00  0.00    -0.568 C  
ENDBRANCH  17  19
ENDBRANCH  10  15
ENDBRANCH   3   6
TORSDOF 3
ENDMDL
MODEL       10
REMARK 921   NORMALIZED FREE ENERGY PREDICTED BY IDOCK:   -6.10 KCAL/MOL
REMARK 922        TOTAL FREE ENERGY PREDICTED BY IDOCK:   -8.04 KCAL/MOL
REMARK 923 INTER-LIGAND FREE ENERGY PREDICTED BY IDOCK:   -7.48 KCAL/MOL
REMARK 924 INTRA-LIGAND FREE ENERGY PREDICTED BY IDOCK:   -0.56 KCAL/MOL
REMARK 927      BINDING AFFINITY PREDICTED BY RF-SCORE:    0.00 PKD
ROOT
HETATM    1  O   UNL     1      -8.735  17.280  65.936  1.00  0.00    -0.528 OA 
HETATM    2  S   UNL     1     -10.338  17.194  66.104  1.00  0.00    -0.269 S  
HETATM    3  O   UNL     1     -10.628  15.635  66.486  1.00  0.00    -0.301 OA 
HETATM    4  O   UNL     1     -10.920  17.490  64.809  1.00  0.00    -0.950 OA 
HETATM    5  O   UNL     1     -10.650  18.009  67.255  1.00  0.00    -0.380 OA 
ENDROOT
BRANCH   3   6
HETATM    6  N   UNL     1     -10.584  14.680  65.395  1.00  0.00    -0.347 N  
HETATM    7  C   UNL     1     -11.960  14.458  64.950  1.00  0.00    -0.426 C  
HETATM    8  C   UNL     1     -12.450  13.501  66.019  1.00  0.00    -0.399 C  
HETATM    9  N   UNL     1     -11.321  12.585  66.079  1.00  0.00    -0.325 N  
HETATM   10  C   UNL     1     -11.323  11.627  64.953  1.00  0.00    -0.184 C  
HETATM   11  C   UNL     1     -10.182  13.466  66.068  1.00  0.00    -0.300 C  
HETATM   12  O   UNL     1      -9.130  13.236  66.645  1.00  0.00    -0.234 OA 
HETATM   13  C   UNL     1     -11.269  12.373  63.601  1.00  0.00    -0.544 C  
HETATM   14  C   UNL     1     -12.081  13.680  63.613  1.00  0.00    -0.397 C  
BRANCH  10  15
HETATM   15  C   UNL     1     -10.272  10.492  64.941  1.00  0.00    -0.300 C  
HETATM   16  O   UNL     1      -9.549  10.294  63.965  1.00  0.00    -0.289 OA 
HETATM   17  N   UNL     1     -10.257   9.687  66.048  1.00  0.00    -0.235 N  
HETATM   18  H   UNL     1     -10.948   9.845  66.781  1.00  0.00     0.000 HD 
BRANCH  17  19
HETATM   19  C   UNL     1      -9.286   8.606  66.216  1.00  0.00    -0.202 C  
HETATM   20  C   UNL     1      -7.998   9.065  66.911  1.00  0.00    -0.105 C  
HETATM   21  C   UNL     1      -8.251   9.412  68.374  1.00  0.00    -0.117 C  
HETATM   22  N   UNL     1      -8.860   8.293  69.099  1.00  0.00    -0.143 NA 
HETATM   23  H   UNL     1      -9.003   8.525  70.082  1.00  0.00     0.000 HD 
HETATM   24  C   UNL     1     -10.105   7.840  68.475  1.00  0.00    -0.199 C  
HETATM   25  C   UNL     1      -9.913   7.461  67.007  1.00  0.00    -0.301 C  
ENDBRANCH  17  19
ENDBRANCH  10  15
ENDBRANCH   3   6
TORSDOF 3
ENDMDL
MODEL       11
REMARK 921   NORMALIZED FREE ENERGY PREDICTED BY IDOCK:   -6.04 KCAL/MOL
REMARK 922        TOTAL FREE ENERGY PREDICTED BY IDOCK:   -7.96 KCAL/MOL
REMARK 923 INTER-LIGAND FREE ENERGY PREDICTED BY IDOCK:   -7.17 KCAL/MOL
REMARK 924 INTRA-LIGAND FREE ENERGY PREDICTED BY IDOCK:   -0.80 KCAL/MOL
REMARK 927      BINDING AFFINITY PREDICTED BY RF-SCORE:    0.00 PKD
ROOT
HETATM    1  O   UNL     1     -13.027   6.972  71.310  1.00  0.00    -0.378 OA 
HETATM    2  S   UNL     1     -11.527   6.747  70.760  1.00  0.00    -0.361 S  
HETATM    3  O   UNL     1     -10.882   8.244  70.697  1.00  0.00    -0.227 OA 
HETATM    4  O   UNL     1     -11.639   6.212  69.417  1.00  0.00    -0.372 OA 
HETATM    5  O   UNL     1     -10.844   6.003  71.793  1.00  0.00    -0.241 OA 
ENDROOT
BRANCH   3   6
HETATM    6  N   UNL     1     -11.283   9.075  69.578  1.00  0.00    -0.021 N  
HETATM    7  C   UNL     1     -10.143   9.159  68.663  1.00  0.00    -0.194 C  
HETATM    8  C   UNL     1      -9.290  10.194  69.371  1.00  0.00    -0.219 C  
HETATM    9  N   UNL     1     -10.307  11.182  69.702  1.00  0.00     0.011 N  
HETATM   10  C   UNL     1     -10.677  12.009  68.534  1.00  0.00    -0.234 C  
HETATM   11  C   UNL     1     -11.398  10.379  70.191  1.00  0.00    -0.323 C  
HETATM   12  O   UNL     1     -12.178  10.737  71.061  1.00  0.00    -0.342 OA 
HETATM   13  C   UNL     1     -11.214  11.126  67.385  1.00  0.00    -0.363 C  
HETATM   14  C   UNL     1     -10.478   9.779  67.281  1.00  0.00    -0.324 C  
BRANCH  10  15
HETATM   15  C   UNL     1     -11.640  13.201  68.742  1.00  0.00    -0.308 C  
HETATM   16  O   UNL     1     -12.230  13.725  67.798  1.00  0.00    -0.329 OA 
HETATM   17  N   UNL     1     -11.729  13.674  70.023  1.00  0.00    -0.436 N  
HETATM   18  H   UNL     1     -11.139  13.258  70.744  1.00  0.00     0.000 HD 
BRANCH  17  19
HETATM   19  C   UNL     1     -12.638  14.757  70.396  1.00  0.00    -0.346 C  
HETATM   20  C   UNL     1     -13.883  14.261  71.141  1.00  0.00    -0.199 C  
HETATM   21  C   UNL     1     -13.526  13.737  72.528  1.00  0.00    -0.578 C  
HETATM   22  N   UNL     1     -12.816  14.743  73.322  1.00  0.00    -0.517 NA 
HETATM   23  H   UNL     1     -12.603  14.393  74.256  1.00  0.00     0.000 HD 
HETATM   24  C   UNL     1     -11.608  15.227  72.650  1.00  0.00    -0.375 C  
HETATM   25  C   UNL     1     -11.902  15.782  71.256  1.00  0.00    -0.491 C  
ENDBRANCH  17  19
ENDBRANCH  10  15
ENDBRANCH   3   6
TORSDOF 3
ENDMDL
MODEL       12
REMARK 921   NORMALIZED FREE ENERGY PREDICTED BY IDOCK:   -6.01 KCAL/MOL
REMARK 922        TOTAL FREE ENERGY PREDICTED BY IDOCK:   -7.93 KCAL/MOL
REMARK 923 INTER-LIGAND FREE ENERGY PREDICTED BY IDOCK:   -7.21 KCAL/MOL
REMARK 924 INTRA-LIGAND FREE ENERGY PREDICTED BY IDOCK:   -0.72 KCAL/MOL
REMARK 927      BINDING AFFINITY PREDICTED BY RF-SCORE:    0.00 PKD
ROOT
HETATM    1  O   UNL     1      -8.617   9.560  67.601  1.00  0.00    -0.122 OA 
HETATM    2  S   UNL     1      -9.320   9.215  66.191  1.00  0.00    -0.247 S  
HETATM    3  O   UNL     1      -9.441  10.652  65.429  1.00  0.00    -0.189 OA 
HETATM    4  O   UNL     1     -10.648   8.712  66.486  1.00  0.00    -0.199 OA 
HETATM    5  O   UNL     1      -8.368   8.400  65.473  1.00  0.00    -0.136 OA 
ENDROOT
BRANCH   3   6
HETATM    6  N   UNL     1     -10.508  11.531  65.867  1.00  0.00    -0.248 N  
HETATM    7  C   UNL     1     -11.284  11.905  64.683  1.00  0.00    -0.305 C  
HETATM    8  C   UNL     1     -10.390  12.975  64.088  1.00  0.00    -0.321 C  
HETATM    9  N   UNL     1     -10.072  13.739  65.285  1.00  0.00    -0.314 N  
HETATM   10  C   UNL     1     -11.185  14.625  65.688  1.00  0.00    -0.342 C  
HETATM   11  C   UNL     1      -9.783  12.719  66.259  1.00  0.00    -0.262 C  
HETATM   12  O   UNL     1      -8.969  12.843  67.162  1.00  0.00    -0.203 OA 
HETATM   13  C   UNL     1     -12.466  13.806  65.962  1.00  0.00    -0.491 C  
HETATM   14  C   UNL     1     -12.625  12.617  64.998  1.00  0.00    -0.504 C  
BRANCH  10  15
HETATM   15  C   UNL     1     -10.962  15.613  66.858  1.00  0.00    -0.243 C  
HETATM   16  O   UNL     1     -11.436  15.406  67.974  1.00  0.00    -0.338 OA 
HETATM   17  N   UNL     1     -10.276  16.755  66.546  1.00  0.00    -0.307 N  
HETATM   18  H   UNL     1      -9.994  16.912  65.579  1.00  0.00     0.000 HD 
BRANCH  17  19
HETATM   19  C   UNL     1      -9.933  17.761  67.552  1.00  0.00    -0.324 C  
HETATM   20  C   UNL     1      -8.443  18.123  67.549  1.00  0.00    -0.248 C  
HETATM   21  C   UNL     1      -8.061  18.885  66.284  1.00  0.00    -0.269 C  
HETATM   22  N   UNL     1      -8.885  20.083  66.102  1.00  0.00    -0.527 NA 
HETATM   23  H   UNL     1      -8.607  20.599  65.267  1.00  0.00     0.000 HD 
HETATM   24  C   UNL     1     -10.316  19.773  66.080  1.00  0.00    -0.511 C  
HETATM   25  C   UNL     1     -10.766  19.021  67.332  1.00  0.00    -0.559 C  
ENDBRANCH  17  19
ENDBRANCH  10  15
ENDBRANCH   3   6
TORSDOF 3
ENDMDL
MODEL       13
REMARK 921   NORMALIZED FREE ENERGY PREDICTED BY IDOCK:   -5.98 KCAL/MOL
REMARK 922        TOTAL FREE ENERGY PREDICTED BY IDOCK:   -7.89 KCAL/MOL
REMARK 923 INTER-LIGAND FREE ENERGY PREDICTED BY IDOCK:   -7.26 KCAL/MOL
REMARK 924 INTRA-LIGAND FREE ENERGY PREDICTED BY IDOCK:   -0.63 KCAL/MOL
REMARK 927      BINDING AFFINITY PREDICTED BY RF-SCORE:    0.00 PKD
ROOT
HETATM    1  O   UNL     1     -13.373  12.084  63.961  1.00  0.00    -0.703 OA 
HETATM    2  S   UNL     1     -12.692  13.395  64.610  1.00  0.00    -0.110 S  
HETATM    3  O   UNL     1     -11.384  12.830  65.402  1.00  0.00    -0.288 OA 
HETATM    4  O   UNL     1     -13.638  13.940  65.565  1.00  0.00    -0.579 OA 
HETATM    5  O   UNL     1     -12.238  14.188  63.491  1.00  0.00    -0.614 OA 
ENDROOT
BRANCH   3   6
HETATM    6  N   UNL     1     -11.627  12.192  66.682  1.00  0.00    -0.365 N  
HETATM    7  C   UNL     1     -11.254  13.147  67.727  1.00  0.00    -0.277 C  
HETATM    8  C   UNL     1      -9.746  12.994  67.723  1.00  0.00    -0.218 C  
HETATM    9  N   UNL     1      -9.635  11.543  67.690  1.00  0.00    -0.169 N  
HETATM   10  C   UNL     1      -9.883  10.939  69.017  1.00  0.00    -0.180 C  
HETATM   11  C   UNL     1     -10.614  11.161  66.706  1.00  0.00    -0.263 C  
HETATM   12  O   UNL     1     -10.500  10.198  65.962  1.00  0.00    -0.194 OA 
HETATM   13  C   UNL     1     -11.293  11.306  69.531  1.00  0.00    -0.362 C  
HETATM   14  C   UNL     1     -11.706  12.739  69.154  1.00  0.00    -0.375 C  
BRANCH  10  15
HETATM   15  C   UNL     1      -9.666   9.417  69.192  1.00  0.00    -0.165 C  
HETATM   16  O   UNL     1      -8.877   8.793  68.484  1.00  0.00    -0.137 OA 
HETATM   17  N   UNL     1     -10.461   8.809  70.126  1.00  0.00    -0.207 N  
HETATM   18  H   UNL     1     -11.163   9.366  70.612  1.00  0.00     0.000 HD 
BRANCH  17  19
HETATM   19  C   UNL     1     -10.338   7.389  70.452  1.00  0.00    -0.209 C  
HETATM   20  C   UNL     1      -9.840   7.146  71.882  1.00  0.00    -0.172 C  
HETATM   21  C   UNL     1     -10.888   7.556  72.911  1.00  0.00    -0.373 C  
HETATM   22  N   UNL     1     -12.166   6.873  72.685  1.00  0.00    -0.476 NA 
HETATM   23  H   UNL     1     -12.853   7.135  73.392  1.00  0.00     0.000 HD 
HETATM   24  C   UNL     1     -12.683   7.099  71.334  1.00  0.00    -0.391 C  
HETATM   25  C   UNL     1     -11.682   6.691  70.254  1.00  0.00    -0.432 C  
ENDBRANCH  17  19
ENDBRANCH  10  15
ENDBRANCH   3   6
TORSDOF 3
ENDMDL
MODEL       14
REMARK 921   NORMALIZED FREE ENERGY PREDICTED BY IDOCK:   -5.90 KCAL/MOL
REMARK 922        TOTAL FREE ENERGY PREDICTED BY IDOCK:   -7.79 KCAL/MOL
REMARK 923 INTER-LIGAND FREE ENERGY PREDICTED BY IDOCK:   -6.99 KCAL/MOL
REMARK 924 INTRA-LIGAND FREE ENERGY PREDICTED BY IDOCK:   -0.80 KCAL/MOL
REMARK 927      BINDING AFFINITY PREDICTED BY RF-SCORE:    0.00 PKD
ROOT
HETATM    1  O   UNL     1     -13.430  13.236  72.467  1.00  0.00    -0.573 OA 
HETATM    2  S   UNL     1     -12.956  14.432  71.493  1.00  0.00    -0.357 S  
HETATM    3  O   UNL     1     -12.768  13.726  70.035  1.00  0.00    -0.213 OA 
HETATM    4  O   UNL     1     -11.668  14.892  71.976  1.00  0.00    -0.365 OA 
HETATM    5  O   UNL     1     -14.079  15.337  71.417  1.00  0.00    -0.494 OA 
ENDROOT
BRANCH   3   6
HETATM    6  N   UNL     1     -11.561  12.946  69.842  1.00  0.00    -0.228 N  
HETATM    7  C   UNL     1     -10.928  13.414  68.609  1.00  0.00    -0.260 C  
HETATM    8  C   UNL     1     -11.777  12.707  67.571  1.00  0.00    -0.368 C  
HETATM    9  N   UNL     1     -11.834  11.373  68.152  1.00  0.00    -0.266 N  
HETATM   10  C   UNL     1     -10.586  10.615  67.924  1.00  0.00    -0.228 C  
HETATM   11  C   UNL     1     -12.089  11.633  69.545  1.00  0.00    -0.270 C  
HETATM   12  O   UNL     1     -12.746  10.903  70.272  1.00  0.00    -0.298 OA 
HETATM   13  C   UNL     1      -9.375  11.357  68.533  1.00  0.00    -0.180 C  
HETATM   14  C   UNL     1      -9.486  12.885  68.390  1.00  0.00    -0.162 C  
BRANCH  10  15
HETATM   15  C   UNL     1     -10.530   9.130  68.353  1.00  0.00    -0.199 C  
HETATM   16  O   UNL     1     -10.622   8.218  67.531  1.00  0.00    -0.257 OA 
HETATM   17  N   UNL     1     -10.450   8.905  69.701  1.00  0.00    -0.213 N  
HETATM   18  H   UNL     1     -10.475   9.703  70.335  1.00  0.00     0.000 HD 
BRANCH  17  19
HETATM   19  C   UNL     1     -10.330   7.560  70.263  1.00  0.00    -0.213 C  
HETATM   20  C   UNL     1      -9.553   7.534  71.585  1.00  0.00    -0.171 C  
HETATM   21  C   UNL     1     -10.339   8.211  72.703  1.00  0.00    -0.328 C  
HETATM   22  N   UNL     1     -11.667   7.613  72.872  1.00  0.00    -0.610 NA 
HETATM   23  H   UNL     1     -12.175   8.056  73.637  1.00  0.00     0.000 HD 
HETATM   24  C   UNL     1     -12.447   7.639  71.633  1.00  0.00    -0.335 C  
HETATM   25  C   UNL     1     -11.718   6.959  70.474  1.00  0.00    -0.401 C  
ENDBRANCH  17  19
ENDBRANCH  10  15
ENDBRANCH   3   6
TORSDOF 3
ENDMDL
MODEL       15
REMARK 921   NORMALIZED FREE ENERGY PREDICTED BY IDOCK:   -5.89 KCAL/MOL
REMARK 922        TOTAL FREE ENERGY PREDICTED BY IDOCK:   -7.78 KCAL/MOL
REMARK 923 INTER-LIGAND FREE ENERGY PREDICTED BY IDOCK:   -7.03 KCAL/MOL
REMARK 924 INTRA-LIGAND FREE ENERGY PREDICTED BY IDOCK:   -0.75 KCAL/MOL
REMARK 927      BINDING AFFINITY PREDICTED BY RF-SCORE:    0.00 PKD
ROOT
HETATM    1  O   UNL     1      -5.125  18.730  68.552  1.00  0.00    -0.179 OA 
HETATM    2  S   UNL     1      -6.114  19.806  69.236  1.00  0.00    -0.312 S  
HETATM    3  O   UNL     1      -7.592  19.125  69.142  1.00  0.00    -0.322 OA 
HETATM    4  O   UNL     1      -6.080  21.001  68.414  1.00  0.00    -0.339 OA 
HETATM    5  O   UNL     1      -5.726  19.859  70.626  1.00  0.00    -0.255 OA 
ENDROOT
BRANCH   3   6
HETATM    6  N   UNL     1      -8.251  19.179  67.851  1.00  0.00    -0.282 N  
HETATM    7  C   UNL     1      -9.423  20.045  67.992  1.00  0.00    -0.315 C  
HETATM    8  C   UNL     1     -10.396  19.094  68.661  1.00  0.00    -0.231 C  
HETATM    9  N   UNL     1     -10.196  17.906  67.843  1.00  0.00    -0.352 N  
HETATM   10  C   UNL     1     -10.892  18.005  66.543  1.00  0.00     0.030 C  
HETATM   11  C   UNL     1      -8.764  17.835  67.712  1.00  0.00    -0.241 C  
HETATM   12  O   UNL     1      -8.133  16.792  67.628  1.00  0.00    -0.172 OA 
HETATM   13  C   UNL     1     -10.392  19.231  65.746  1.00  0.00    -0.391 C  
HETATM   14  C   UNL     1     -10.090  20.440  66.649  1.00  0.00    -0.457 C  
BRANCH  10  15
HETATM   15  C   UNL     1     -10.901  16.771  65.610  1.00  0.00    -0.107 C  
HETATM   16  O   UNL     1     -11.186  16.868  64.417  1.00  0.00    -1.159 OA 
HETATM   17  N   UNL     1     -10.649  15.569  66.214  1.00  0.00    -0.301 N  
HETATM   18  H   UNL     1     -10.515  15.544  67.225  1.00  0.00     0.000 HD 
BRANCH  17  19
HETATM   19  C   UNL     1     -10.565  14.317  65.462  1.00  0.00    -0.340 C  
HETATM   20  C   UNL     1      -9.585  13.314  66.082  1.00  0.00    -0.211 C  
HETATM   21  C   UNL     1     -10.107  12.779  67.411  1.00  0.00    -0.219 C  
HETATM   22  N   UNL     1     -11.439  12.183  67.271  1.00  0.00    -0.339 NA 
HETATM   23  H   UNL     1     -11.770  11.807  68.159  1.00  0.00     0.000 HD 
HETATM   24  C   UNL     1     -12.408  13.120  66.699  1.00  0.00    -0.141 C  
HETATM   25  C   UNL     1     -11.948  13.681  65.353  1.00  0.00    -0.400 C  
ENDBRANCH  17  19
ENDBRANCH  10  15
ENDBRANCH   3   6
TORSDOF 3
ENDMDL
MODEL       16
REMARK 921   NORMALIZED FREE ENERGY PREDICTED BY IDOCK:   -5.88 KCAL/MOL
REMARK 922        TOTAL FREE ENERGY PREDICTED BY IDOCK:   -7.77 KCAL/MOL
REMARK 923 INTER-LIGAND FREE ENERGY PREDICTED BY IDOCK:   -7.05 KCAL/MOL
REMARK 924 INTRA-LIGAND FREE ENERGY PREDICTED BY IDOCK:   -0.72 KCAL/MOL
REMARK 927      BINDING AFFINITY PREDICTED BY RF-SCORE:    0.00 PKD
ROOT
HETATM    1  O   UNL     1     -12.351  13.985  63.193  1.00  0.00    -0.657 OA 
HETATM    2  S   UNL     1     -12.101  12.462  63.662  1.00  0.00    -0.582 S  
HETATM    3  O   UNL     1     -12.167  12.517  65.291  1.00  0.00    -0.454 OA 
HETATM    4  O   UNL     1     -10.761  12.100  63.245  1.00  0.00    -0.421 OA 
HETATM    5  O   UNL     1     -13.246  11.719  63.187  1.00  0.00    -0.538 OA 
ENDROOT
BRANCH   3   6
HETATM    6  N   UNL     1     -10.994  13.032  65.970  1.00  0.00    -0.274 N  
HETATM    7  C   UNL     1     -10.722  12.149  67.105  1.00  0.00    -0.232 C  
HETATM    8  C   UNL     1     -11.750  12.647  68.102  1.00  0.00    -0.347 C  
HETATM    9  N   UNL     1     -11.568  14.084  67.962  1.00  0.00    -0.317 N  
HETATM   10  C   UNL     1     -10.366  14.562  68.677  1.00  0.00    -0.242 C  
HETATM   11  C   UNL     1     -11.486  14.267  66.536  1.00  0.00    -0.360 C  
HETATM   12  O   UNL     1     -11.889  15.259  65.947  1.00  0.00    -0.022 OA 
HETATM   13  C   UNL     1      -9.096  13.859  68.145  1.00  0.00    -0.193 C  
HETATM   14  C   UNL     1      -9.346  12.385  67.782  1.00  0.00    -0.196 C  
BRANCH  10  15
HETATM   15  C   UNL     1     -10.101  16.085  68.750  1.00  0.00    -0.225 C  
HETATM   16  O   UNL     1     -10.780  16.823  69.462  1.00  0.00    -0.330 OA 
HETATM   17  N   UNL     1      -9.122  16.556  67.917  1.00  0.00    -0.204 N  
HETATM   18  H   UNL     1      -8.662  15.906  67.280  1.00  0.00     0.000 HD 
BRANCH  17  19
HETATM   19  C   UNL     1      -8.712  17.960  67.909  1.00  0.00    -0.252 C  
HETATM   20  C   UNL     1      -7.496  18.232  68.803  1.00  0.00    -0.297 C  
HETATM   21  C   UNL     1      -6.235  17.593  68.232  1.00  0.00    -0.177 C  
HETATM   22  N   UNL     1      -5.977  18.036  66.859  1.00  0.00    -0.140 NA 
HETATM   23  H   UNL     1      -5.118  17.623  66.493  1.00  0.00     0.000 HD 
HETATM   24  C   UNL     1      -7.110  17.774  65.969  1.00  0.00    -0.300 C  
HETATM   25  C   UNL     1      -8.405  18.404  66.480  1.00  0.00    -0.290 C  
ENDBRANCH  17  19
ENDBRANCH  10  15
ENDBRANCH   3   6
TORSDOF 3
ENDMDL
MODEL       17
REMARK 921   NORMALIZED FREE ENERGY PREDICTED BY IDOCK:   -5.87 KCAL/MOL
REMARK 922        TOTAL FREE ENERGY PREDICTED BY IDOCK:   -7.76 KCAL/MOL
REMARK 923 INTER-LIGAND FREE ENERGY PREDICTED BY IDOCK:   -7.10 KCAL/MOL
REMARK 924 INTRA-LIGAND FREE ENERGY PREDICTED BY IDOCK:   -0.67 KCAL/MOL
REMARK 927      BINDING AFFINITY PREDICTED BY RF-SCORE:    0.00 PKD
ROOT
HETATM    1  O   UNL     1     -12.310  13.822  63.387  1.00  0.00    -0.750 OA 
HETATM    2  S   UNL     1     -12.283  12.385  64.119  1.00  0.00    -0.474 S  
HETATM    3  O   UNL     1     -11.794  12.706  65.641  1.00  0.00    -0.392 OA 
HETATM    4  O   UNL     1     -11.279  11.582  63.448  1.00  0.00    -0.387 OA 
HETATM    5  O   UNL     1     -13.660  11.949  64.167  1.00  0.00    -0.481 OA 
ENDROOT
BRANCH   3   6
HETATM    6  N   UNL     1     -10.376  12.948  65.829  1.00  0.00    -0.280 N  
HETATM    7  C   UNL     1      -9.962  12.222  67.030  1.00  0.00    -0.211 C  
HETATM    8  C   UNL     1     -10.459  13.161  68.112  1.00  0.00    -0.248 C  
HETATM    9  N   UNL     1     -10.000  14.434  67.577  1.00  0.00    -0.223 N  
HETATM   10  C   UNL     1      -8.553  14.639  67.799  1.00  0.00    -0.173 C  
HETATM   11  C   UNL     1     -10.350  14.350  66.183  1.00  0.00    -0.298 C  
HETATM   12  O   UNL     1     -10.679  15.306  65.497  1.00  0.00    -0.324 OA 
HETATM   13  C   UNL     1      -7.732  13.510  67.136  1.00  0.00     0.008 C  
HETATM   14  C   UNL     1      -8.426  12.140  67.229  1.00  0.00    -0.178 C  
BRANCH  10  15
HETATM   15  C   UNL     1      -7.929  16.002  67.418  1.00  0.00    -0.159 C  
HETATM   16  O   UNL     1      -6.835  16.076  66.861  1.00  0.00    -0.220 OA 
HETATM   17  N   UNL     1      -8.635  17.107  67.812  1.00  0.00    -0.213 N  
HETATM   18  H   UNL     1      -9.487  16.979  68.356  1.00  0.00     0.000 HD 
BRANCH  17  19
HETATM   19  C   UNL     1      -8.209  18.467  67.478  1.00  0.00    -0.248 C  
HETATM   20  C   UNL     1      -8.727  18.936  66.114  1.00  0.00    -0.175 C  
HETATM   21  C   UNL     1     -10.239  19.138  66.135  1.00  0.00    -0.463 C  
HETATM   22  N   UNL     1     -10.647  20.069  67.191  1.00  0.00    -0.379 NA 
HETATM   23  H   UNL     1     -11.656  20.217  67.182  1.00  0.00     0.000 HD 
HETATM   24  C   UNL     1     -10.186  19.642  68.514  1.00  0.00    -0.421 C  
HETATM   25  C   UNL     1      -8.672  19.437  68.562  1.00  0.00    -0.407 C  
ENDBRANCH  17  19
ENDBRANCH  10  15
ENDBRANCH   3   6
TORSDOF 3
ENDMDL
MODEL       18
REMARK 921   NORMALIZED FREE ENERGY PREDICTED BY IDOCK:   -5.80 KCAL/MOL
REMARK 922        TOTAL FREE ENERGY PREDICTED BY IDOCK:   -7.68 KCAL/MOL
REMARK 923 INTER-LIGAND FREE ENERGY PREDICTED BY IDOCK:   -6.97 KCAL/MOL
REMARK 924 INTRA-LIGAND FREE ENERGY PREDICTED BY IDOCK:   -0.71 KCAL/MOL
REMARK 927      BINDING AFFINITY PREDICTED BY RF-SCORE:    0.00 PKD
ROOT
HETATM    1  O   UNL     1     -10.940  18.204  64.899  1.00  0.00    -0.718 OA 
HETATM    2  S   UNL     1     -10.235  18.472  66.325  1.00  0.00    -0.406 S  
HETATM    3  O   UNL     1      -9.667  17.013  66.784  1.00  0.00    -0.248 OA 
HETATM    4  O   UNL     1     -11.274  18.896  67.244  1.00  0.00    -0.210 OA 
HETATM    5  O   UNL     1      -9.107  19.330  66.044  1.00  0.00    -0.433 OA 
ENDROOT
BRANCH   3   6
HETATM    6  N   UNL     1     -10.638  16.078  67.318  1.00  0.00    -0.313 N  
HETATM    7  C   UNL     1     -10.435  16.014  68.766  1.00  0.00    -0.248 C  
HETATM    8  C   UNL     1      -9.229  15.099  68.841  1.00  0.00    -0.209 C  
HETATM    9  N   UNL     1      -9.634  14.064  67.901  1.00  0.00    -0.215 N  
HETATM   10  C   UNL     1     -10.617  13.131  68.493  1.00  0.00    -0.259 C  
HETATM   11  C   UNL     1     -10.167  14.815  66.795  1.00  0.00    -0.266 C  
HETATM   12  O   UNL     1     -10.095  14.463  65.627  1.00  0.00    -0.322 OA 
HETATM   13  C   UNL     1     -11.882  13.889  68.954  1.00  0.00    -0.393 C  
HETATM   14  C   UNL     1     -11.561  15.276  69.537  1.00  0.00    -0.339 C  
BRANCH  10  15
HETATM   15  C   UNL     1     -11.047  11.889  67.677  1.00  0.00    -0.257 C  
HETATM   16  O   UNL     1     -12.135  11.345  67.858  1.00  0.00    -0.646 OA 
HETATM   17  N   UNL     1     -10.110  11.398  66.808  1.00  0.00    -0.211 N  
HETATM   18  H   UNL     1      -9.191  11.838  66.775  1.00  0.00     0.000 HD 
BRANCH  17  19
HETATM   19  C   UNL     1     -10.382  10.265  65.923  1.00  0.00    -0.171 C  
HETATM   20  C   UNL     1      -9.704  10.402  64.554  1.00  0.00    -0.393 C  
HETATM   21  C   UNL     1      -8.189  10.278  64.671  1.00  0.00    -0.161 C  
HETATM   22  N   UNL     1      -7.796   9.024  65.320  1.00  0.00    -0.099 NA 
HETATM   23  H   UNL     1      -6.781   8.939  65.372  1.00  0.00     0.000 HD 
HETATM   24  C   UNL     1      -8.409   8.868  66.641  1.00  0.00    -0.111 C  
HETATM   25  C   UNL     1      -9.933   8.966  66.588  1.00  0.00    -0.346 C  
ENDBRANCH  17  19
ENDBRANCH  10  15
ENDBRANCH   3   6
TORSDOF 3
ENDMDL
MODEL       19
REMARK 921   NORMALIZED FREE ENERGY PREDICTED BY IDOCK:   -5.75 KCAL/MOL
REMARK 922        TOTAL FREE ENERGY PREDICTED BY IDOCK:   -7.63 KCAL/MOL
REMARK 923 INTER-LIGAND FREE ENERGY PREDICTED BY IDOCK:   -7.05 KCAL/MOL
REMARK 924 INTRA-LIGAND FREE ENERGY PREDICTED BY IDOCK:   -0.58 KCAL/MOL
REMARK 927      BINDING AFFINITY PREDICTED BY RF-SCORE:    0.00 PKD
ROOT
HETATM    1  O   UNL     1      -8.809  17.308  65.659  1.00  0.00    -0.476 OA 
HETATM    2  S   UNL     1     -10.400  17.167  65.886  1.00  0.00    -0.204 S  
HETATM    3  O   UNL     1     -10.589  15.705  66.582  1.00  0.00    -0.301 OA 
HETATM    4  O   UNL     1     -11.021  17.163  64.575  1.00  0.00    -1.003 OA 
HETATM    5  O   UNL     1     -10.743  18.180  66.858  1.00  0.00    -0.337 OA 
ENDROOT
BRANCH   3   6
HETATM    6  N   UNL     1     -10.505  14.553  65.704  1.00  0.00    -0.316 N  
HETATM    7  C   UNL     1     -11.862  14.247  65.249  1.00  0.00    -0.374 C  
HETATM    8  C   UNL     1     -12.407  13.519  66.463  1.00  0.00    -0.327 C  
HETATM    9  N   UNL     1     -11.289  12.634  66.754  1.00  0.00    -0.301 N  
HETATM   10  C   UNL     1     -11.249  11.473  65.840  1.00  0.00    -0.177 C  
HETATM   11  C   UNL     1     -10.144  13.495  66.621  1.00  0.00    -0.277 C  
HETATM   12  O   UNL     1      -9.121  13.385  67.279  1.00  0.00    -0.203 OA 
HETATM   13  C   UNL     1     -11.129  11.936  64.371  1.00  0.00    -0.395 C  
HETATM   14  C   UNL     1     -11.930  13.220  64.089  1.00  0.00    -0.505 C  
BRANCH  10  15
HETATM   15  C   UNL     1     -10.209  10.358  66.100  1.00  0.00    -0.223 C  
HETATM   16  O   UNL     1      -9.719   9.706  65.179  1.00  0.00    -0.300 OA 
HETATM   17  N   UNL     1      -9.934  10.099  67.416  1.00  0.00    -0.186 N  
HETATM   18  H   UNL     1     -10.446  10.609  68.135  1.00  0.00     0.000 HD 
BRANCH  17  19
HETATM   19  C   UNL     1      -8.931   9.117  67.827  1.00  0.00    -0.127 C  
HETATM   20  C   UNL     1      -7.537   9.728  68.009  1.00  0.00    -0.082 C  
HETATM   21  C   UNL     1      -7.493  10.659  69.216  1.00  0.00    -0.130 C  
HETATM   22  N   UNL     1      -7.924   9.979  70.441  1.00  0.00    -0.407 NA 
HETATM   23  H   UNL     1      -7.869  10.602  71.247  1.00  0.00     0.000 HD 
HETATM   24  C   UNL     1      -9.262   9.399  70.312  1.00  0.00    -0.245 C  
HETATM   25  C   UNL     1      -9.367   8.441  69.125  1.00  0.00    -0.151 C  
ENDBRANCH  17  19
ENDBRANCH  10  15
ENDBRANCH   3   6
TORSDOF 3
ENDMDL
MODEL       20
REMARK 921   NORMALIZED FREE ENERGY PREDICTED BY IDOCK:   -5.72 KCAL/MOL
REMARK 922        TOTAL FREE ENERGY PREDICTED BY IDOCK:   -7.59 KCAL/MOL
REMARK 923 INTER-LIGAND FREE ENERGY PREDICTED BY IDOCK:   -7.27 KCAL/MOL
REMARK 924 INTRA-LIGAND FREE ENERGY PREDICTED BY IDOCK:   -0.32 KCAL/MOL
REMARK 927      BINDING AFFINITY PREDICTED BY RF-SCORE:    0.00 PKD
ROOT
HETATM    1  O   UNL     1     -13.061  14.065  65.436  1.00  0.00    -0.763 OA 
HETATM    2  S   UNL     1     -11.830  13.702  64.457  1.00  0.00    -0.432 S  
HETATM    3  O   UNL     1     -11.326  12.234  64.956  1.00  0.00    -0.312 OA 
HETATM    4  O   UNL     1     -10.787  14.680  64.701  1.00  0.00    -0.385 OA 
HETATM    5  O   UNL     1     -12.411  13.560  63.142  1.00  0.00    -0.759 OA 
ENDROOT
BRANCH   3   6
HETATM    6  N   UNL     1     -10.519  12.201  66.161  1.00  0.00    -0.242 N  
HETATM    7  C   UNL     1      -9.375  11.326  65.898  1.00  0.00    -0.219 C  
HETATM    8  C   UNL     1     -10.019   9.963  66.065  1.00  0.00    -0.268 C  
HETATM    9  N   UNL     1     -10.773  10.185  67.290  1.00  0.00    -0.266 N  
HETATM   10  C   UNL     1      -9.910  10.134  68.489  1.00  0.00    -0.154 C  
HETATM   11  C   UNL     1     -11.369  11.478  67.080  1.00  0.00    -0.269 C  
HETATM   12  O   UNL     1     -12.460  11.812  67.518  1.00  0.00     0.038 OA 
HETATM   13  C   UNL     1      -8.795  11.201  68.407  1.00  0.00    -0.157 C  
HETATM   14  C   UNL     1      -8.261  11.390  66.977  1.00  0.00    -0.160 C  
BRANCH  10  15
HETATM   15  C   UNL     1     -10.573  10.208  69.885  1.00  0.00    -0.285 C  
HETATM   16  O   UNL     1     -11.162  11.219  70.265  1.00  0.00    -0.191 OA 
HETATM   17  N   UNL     1     -10.391   9.112  70.686  1.00  0.00    -0.225 N  
HETATM   18  H   UNL     1      -9.810   8.346  70.347  1.00  0.00     0.000 HD 
BRANCH  17  19
HETATM   19  C   UNL     1     -11.002   9.002  72.010  1.00  0.00    -0.285 C  
HETATM   20  C   UNL     1     -12.509   8.727  71.951  1.00  0.00    -0.434 C  
HETATM   21  C   UNL     1     -12.796   7.326  71.420  1.00  0.00    -0.382 C  
HETATM   22  N   UNL     1     -12.112   6.297  72.207  1.00  0.00    -0.501 NA 
HETATM   23  H   UNL     1     -12.329   5.362  71.859  1.00  0.00     0.000 HD 
HETATM   24  C   UNL     1     -10.666   6.516  72.269  1.00  0.00    -0.223 C  
HETATM   25  C   UNL     1     -10.312   7.900  72.811  1.00  0.00    -0.399 C  
ENDBRANCH  17  19
ENDBRANCH  10  15
ENDBRANCH   3   6
TORSDOF 3
ENDMDL
MODEL       21
REMARK 921   NORMALIZED FREE ENERGY PREDICTED BY IDOCK:   -5.68 KCAL/MOL
REMARK 922        TOTAL FREE ENERGY PREDICTED BY IDOCK:   -7.54 KCAL/MOL
REMARK 923 INTER-LIGAND FREE ENERGY PREDICTED BY IDOCK:   -6.79 KCAL/MOL
REMARK 924 INTRA-LIGAND FREE ENERGY PREDICTED BY IDOCK:   -0.75 KCAL/MOL
REMARK 927      BINDING AFFINITY PREDICTED BY RF-SCORE:    0.00 PKD
ROOT
HETATM    1  O   UNL     1     -12.997   8.759  72.555  1.00  0.00    -0.397 OA 
HETATM    2  S   UNL     1     -11.752   7.802  72.184  1.00  0.00    -0.336 S  
HETATM    3  O   UNL     1     -10.732   8.760  71.346  1.00  0.00    -0.240 OA 
HETATM    4  O   UNL     1     -12.259   6.758  71.314  1.00  0.00    -0.356 OA 
HETATM    5  O   UNL     1     -11.129   7.470  73.445  1.00  0.00    -0.344 OA 
ENDROOT
BRANCH   3   6
HETATM    6  N   UNL     1     -11.080   9.024  69.963  1.00  0.00    -0.220 N  
HETATM    7  C   UNL     1      -9.937   8.627  69.139  1.00  0.00    -0.192 C  
HETATM    8  C   UNL     1      -9.021   9.819  69.335  1.00  0.00    -0.190 C  
HETATM    9  N   UNL     1      -9.975  10.906  69.162  1.00  0.00    -0.195 N  
HETATM   10  C   UNL     1     -10.292  11.142  67.737  1.00  0.00    -0.187 C  
HETATM   11  C   UNL     1     -11.113  10.469  69.927  1.00  0.00    -0.307 C  
HETATM   12  O   UNL     1     -11.870  11.220  70.523  1.00  0.00    -0.338 OA 
HETATM   13  C   UNL     1     -10.883   9.870  67.089  1.00  0.00    -0.227 C  
HETATM   14  C   UNL     1     -10.232   8.580  67.617  1.00  0.00    -0.297 C  
BRANCH  10  15
HETATM   15  C   UNL     1     -11.180  12.353  67.365  1.00  0.00    -0.297 C  
HETATM   16  O   UNL     1     -12.149  12.235  66.616  1.00  0.00    -0.612 OA 
HETATM   17  N   UNL     1     -10.770  13.562  67.859  1.00  0.00    -0.243 N  
HETATM   18  H   UNL     1      -9.903  13.607  68.394  1.00  0.00     0.000 HD 
BRANCH  17  19
HETATM   19  C   UNL     1     -11.532  14.793  67.646  1.00  0.00    -0.347 C  
HETATM   20  C   UNL     1     -11.825  15.546  68.949  1.00  0.00    -0.357 C  
HETATM   21  C   UNL     1     -10.552  16.133  69.549  1.00  0.00    -0.306 C  
HETATM   22  N   UNL     1      -9.854  17.000  68.596  1.00  0.00    -0.277 NA 
HETATM   23  H   UNL     1      -9.017  17.408  69.014  1.00  0.00     0.000 HD 
HETATM   24  C   UNL     1      -9.539  16.309  67.345  1.00  0.00    -0.230 C  
HETATM   25  C   UNL     1     -10.780  15.710  66.684  1.00  0.00    -0.296 C  
ENDBRANCH  17  19
ENDBRANCH  10  15
ENDBRANCH   3   6
TORSDOF 3
ENDMDL
MODEL       22
REMARK 921   NORMALIZED FREE ENERGY PREDICTED BY IDOCK:   -5.66 KCAL/MOL
REMARK 922        TOTAL FREE ENERGY PREDICTED BY IDOCK:   -7.52 KCAL/MOL
REMARK 923 INTER-LIGAND FREE ENERGY PREDICTED BY IDOCK:   -6.71 KCAL/MOL
REMARK 924 INTRA-LIGAND FREE ENERGY PREDICTED BY IDOCK:   -0.81 KCAL/MOL
REMARK 927      BINDING AFFINITY PREDICTED BY RF-SCORE:    0.00 PKD
ROOT
HETATM    1  O   UNL     1      -9.468  17.275  68.204  1.00  0.00    -0.262 OA 
HETATM    2  S   UNL     1      -9.893  17.471  66.660  1.00  0.00    -0.320 S  
HETATM    3  O   UNL     1     -11.002  16.308  66.386  1.00  0.00    -0.168 OA 
HETATM    4  O   UNL     1      -8.714  17.214  65.855  1.00  0.00    -0.526 OA 
HETATM    5  O   UNL     1     -10.557  18.753  66.602  1.00  0.00    -0.403 OA 
ENDROOT
BRANCH   3   6
HETATM    6  N   UNL     1     -10.496  14.963  66.187  1.00  0.00    -0.294 N  
HETATM    7  C   UNL     1     -11.079  14.454  64.945  1.00  0.00    -0.398 C  
HETATM    8  C   UNL     1     -12.464  14.065  65.423  1.00  0.00    -0.498 C  
HETATM    9  N   UNL     1     -12.124  13.372  66.657  1.00  0.00    -0.390 N  
HETATM   10  C   UNL     1     -11.621  12.005  66.404  1.00  0.00    -0.313 C  
HETATM   11  C   UNL     1     -11.138  14.233  67.256  1.00  0.00    -0.306 C  
HETATM   12  O   UNL     1     -10.995  14.379  68.461  1.00  0.00    -0.235 OA 
HETATM   13  C   UNL     1     -10.363  12.042  65.506  1.00  0.00    -0.298 C  
HETATM   14  C   UNL     1     -10.436  13.139  64.430  1.00  0.00    -0.427 C  
BRANCH  10  15
HETATM   15  C   UNL     1     -11.347  11.079  67.612  1.00  0.00    -0.281 C  
HETATM   16  O   UNL     1     -12.116  11.027  68.571  1.00  0.00    -0.573 OA 
HETATM   17  N   UNL     1     -10.165  10.389  67.574  1.00  0.00    -0.198 N  
HETATM   18  H   UNL     1      -9.527  10.549  66.795  1.00  0.00     0.000 HD 
BRANCH  17  19
HETATM   19  C   UNL     1      -9.786   9.429  68.610  1.00  0.00    -0.163 C  
HETATM   20  C   UNL     1      -9.981   7.972  68.173  1.00  0.00    -0.217 C  
HETATM   21  C   UNL     1      -8.986   7.581  67.086  1.00  0.00    -0.126 C  
HETATM   22  N   UNL     1      -7.602   7.814  67.508  1.00  0.00    -0.106 NA 
HETATM   23  H   UNL     1      -6.943   7.528  66.785  1.00  0.00     0.000 HD 
HETATM   24  C   UNL     1      -7.372   9.202  67.915  1.00  0.00    -0.084 C  
HETATM   25  C   UNL     1      -8.332   9.650  69.017  1.00  0.00    -0.122 C  
ENDBRANCH  17  19
ENDBRANCH  10  15
ENDBRANCH   3   6
TORSDOF 3
ENDMDL
MODEL       23
REMARK 921   NORMALIZED FREE ENERGY PREDICTED BY IDOCK:   -5.65 KCAL/MOL
REMARK 922        TOTAL FREE ENERGY PREDICTED BY IDOCK:   -7.51 KCAL/MOL
REMARK 923 INTER-LIGAND FREE ENERGY PREDICTED BY IDOCK:   -6.95 KCAL/MOL
REMARK 924 INTRA-LIGAND FREE ENERGY PREDICTED BY IDOCK:   -0.56 KCAL/MOL
REMARK 927      BINDING AFFINITY PREDICTED BY RF-SCORE:    0.00 PKD
ROOT
HETATM    1  O   UNL     1     -10.432  12.815  63.458  1.00  0.00    -0.333 OA 
HETATM    2  S   UNL     1     -11.692  13.270  64.358  1.00  0.00    -0.410 S  
HETATM    3  O   UNL     1     -11.183  14.614  65.129  1.00  0.00    -0.337 OA 
HETATM    4  O   UNL     1     -11.928  12.218  65.328  1.00  0.00    -0.387 OA 
HETATM    5  O   UNL     1     -12.722  13.649  63.419  1.00  0.00    -0.762 OA 
ENDROOT
BRANCH   3   6
HETATM    6  N   UNL     1     -10.305  14.416  66.266  1.00  0.00    -0.287 N  
HETATM    7  C   UNL     1     -11.149  14.282  67.454  1.00  0.00    -0.304 C  
HETATM    8  C   UNL     1     -11.485  15.735  67.726  1.00  0.00    -0.175 C  
HETATM    9  N   UNL     1     -10.169  16.336  67.570  1.00  0.00    -0.264 N  
HETATM   10  C   UNL     1      -9.314  16.115  68.755  1.00  0.00    -0.229 C  
HETATM   11  C   UNL     1      -9.658  15.704  66.382  1.00  0.00    -0.290 C  
HETATM   12  O   UNL     1      -8.912  16.248  65.581  1.00  0.00    -0.403 OA 
HETATM   13  C   UNL     1      -9.128  14.605  69.022  1.00  0.00    -0.097 C  
HETATM   14  C   UNL     1     -10.397  13.790  68.719  1.00  0.00    -0.198 C  
BRANCH  10  15
HETATM   15  C   UNL     1      -7.932  16.808  68.815  1.00  0.00    -0.250 C  
HETATM   16  O   UNL     1      -7.010  16.350  69.489  1.00  0.00    -0.225 OA 
HETATM   17  N   UNL     1      -7.834  17.993  68.136  1.00  0.00    -0.263 N  
HETATM   18  H   UNL     1      -8.664  18.368  67.677  1.00  0.00     0.000 HD 
BRANCH  17  19
HETATM   19  C   UNL     1      -6.581  18.742  68.047  1.00  0.00    -0.219 C  
HETATM   20  C   UNL     1      -5.909  18.618  66.674  1.00  0.00    -0.172 C  
HETATM   21  C   UNL     1      -6.715  19.337  65.596  1.00  0.00    -0.278 C  
HETATM   22  N   UNL     1      -6.941  20.744  65.937  1.00  0.00    -0.488 NA 
HETATM   23  H   UNL     1      -7.459  21.223  65.200  1.00  0.00     0.000 HD 
HETATM   24  C   UNL     1      -7.600  20.901  67.235  1.00  0.00    -0.256 C  
HETATM   25  C   UNL     1      -6.830  20.214  68.363  1.00  0.00    -0.322 C  
ENDBRANCH  17  19
ENDBRANCH  10  15
ENDBRANCH   3   6
TORSDOF 3
ENDMDL
MODEL       24
REMARK 921   NORMALIZED FREE ENERGY PREDICTED BY IDOCK:   -5.62 KCAL/MOL
REMARK 922        TOTAL FREE ENERGY PREDICTED BY IDOCK:   -7.46 KCAL/MOL
REMARK 923 INTER-LIGAND FREE ENERGY PREDICTED BY IDOCK:   -6.77 KCAL/MOL
REMARK 924 INTRA-LIGAND FREE ENERGY PREDICTED BY IDOCK:   -0.70 KCAL/MOL
REMARK 927      BINDING AFFINITY PREDICTED BY RF-SCORE:    0.00 PKD
ROOT
HETATM    1  O   UNL     1      -6.437   9.575  71.847  1.00  0.00    -0.298 OA 
HETATM    2  S   UNL     1      -7.498   8.368  71.999  1.00  0.00    -0.086 S  
HETATM    3  O   UNL     1      -8.490   8.528  70.714  1.00  0.00    -0.125 OA 
HETATM    4  O   UNL     1      -8.245   8.606  73.219  1.00  0.00    -0.411 OA 
HETATM    5  O   UNL     1      -6.730   7.156  71.831  1.00  0.00    -0.055 OA 
ENDROOT
BRANCH   3   6
HETATM    6  N   UNL     1      -9.498   9.568  70.799  1.00  0.00    -0.228 N  
HETATM    7  C   UNL     1     -10.805   8.910  70.838  1.00  0.00    -0.248 C  
HETATM    8  C   UNL     1     -10.997   8.579  69.371  1.00  0.00    -0.005 C  
HETATM    9  N   UNL     1     -10.597   9.842  68.769  1.00  0.00    -0.214 N  
HETATM   10  C   UNL     1     -11.658  10.866  68.872  1.00  0.00    -0.309 C  
HETATM   11  C   UNL     1      -9.405  10.190  69.497  1.00  0.00    -0.210 C  
HETATM   12  O   UNL     1      -8.459  10.797  69.018  1.00  0.00    -0.153 OA 
HETATM   13  C   UNL     1     -12.023  11.129  70.351  1.00  0.00    -0.469 C  
HETATM   14  C   UNL     1     -11.982   9.850  71.206  1.00  0.00    -0.489 C  
BRANCH  10  15
HETATM   15  C   UNL     1     -11.453  12.223  68.159  1.00  0.00    -0.316 C  
HETATM   16  O   UNL     1     -11.183  13.247  68.786  1.00  0.00    -0.248 OA 
HETATM   17  N   UNL     1     -11.667  12.220  66.807  1.00  0.00    -0.367 N  
HETATM   18  H   UNL     1     -11.983  11.359  66.360  1.00  0.00     0.000 HD 
BRANCH  17  19
HETATM   19  C   UNL     1     -11.459  13.408  65.979  1.00  0.00    -0.326 C  
HETATM   20  C   UNL     1     -10.158  13.349  65.169  1.00  0.00    -0.266 C  
HETATM   21  C   UNL     1     -10.232  12.286  64.078  1.00  0.00    -0.373 C  
HETATM   22  N   UNL     1     -11.383  12.495  63.195  1.00  0.00    -0.747 NA 
HETATM   23  H   UNL     1     -11.411  11.794  62.454  1.00  0.00     0.000 HD 
HETATM   24  C   UNL     1     -12.647  12.536  63.932  1.00  0.00    -0.387 C  
HETATM   25  C   UNL     1     -12.642  13.597  65.033  1.00  0.00    -0.434 C  
ENDBRANCH  17  19
ENDBRANCH  10  15
ENDBRANCH   3   6
TORSDOF 3
ENDMDL
MODEL       25
REMARK 921   NORMALIZED FREE ENERGY PREDICTED BY IDOCK:   -5.59 KCAL/MOL
REMARK 922        TOTAL FREE ENERGY PREDICTED BY IDOCK:   -7.44 KCAL/MOL
REMARK 923 INTER-LIGAND FREE ENERGY PREDICTED BY IDOCK:   -6.69 KCAL/MOL
REMARK 924 INTRA-LIGAND FREE ENERGY PREDICTED BY IDOCK:   -0.75 KCAL/MOL
REMARK 927      BINDING AFFINITY PREDICTED BY RF-SCORE:    0.00 PKD
ROOT
HETATM    1  O   UNL     1     -12.335  16.241  72.045  1.00  0.00    -0.440 OA 
HETATM    2  S   UNL     1     -13.007  14.805  71.746  1.00  0.00    -0.359 S  
HETATM    3  O   UNL     1     -11.984  14.082  70.702  1.00  0.00    -0.318 OA 
HETATM    4  O   UNL     1     -14.274  15.054  71.086  1.00  0.00    -0.410 OA 
HETATM    5  O   UNL     1     -12.958  14.087  72.999  1.00  0.00    -0.452 OA 
ENDROOT
BRANCH   3   6
HETATM    6  N   UNL     1     -12.049  14.520  69.321  1.00  0.00    -0.313 N  
HETATM    7  C   UNL     1     -12.028  13.322  68.480  1.00  0.00    -0.304 C  
HETATM    8  C   UNL     1     -10.549  12.990  68.502  1.00  0.00    -0.258 C  
HETATM    9  N   UNL     1      -9.985  14.312  68.273  1.00  0.00    -0.232 N  
HETATM   10  C   UNL     1     -10.068  14.711  66.852  1.00  0.00    -0.255 C  
HETATM   11  C   UNL     1     -10.764  15.156  69.140  1.00  0.00    -0.253 C  
HETATM   12  O   UNL     1     -10.331  16.153  69.699  1.00  0.00    -0.263 OA 
HETATM   13  C   UNL     1     -11.536  14.720  66.369  1.00  0.00    -0.319 C  
HETATM   14  C   UNL     1     -12.369  13.584  66.989  1.00  0.00    -0.260 C  
BRANCH  10  15
HETATM   15  C   UNL     1      -9.387  16.027  66.408  1.00  0.00    -0.298 C  
HETATM   16  O   UNL     1      -9.761  16.642  65.410  1.00  0.00    -0.501 OA 
HETATM   17  N   UNL     1      -8.304  16.414  67.151  1.00  0.00    -0.175 N  
HETATM   18  H   UNL     1      -7.985  15.809  67.908  1.00  0.00     0.000 HD 
BRANCH  17  19
HETATM   19  C   UNL     1      -7.587  17.663  66.898  1.00  0.00    -0.214 C  
HETATM   20  C   UNL     1      -7.468  18.546  68.146  1.00  0.00    -0.284 C  
HETATM   21  C   UNL     1      -6.538  17.922  69.180  1.00  0.00    -0.240 C  
HETATM   22  N   UNL     1      -5.214  17.640  68.618  1.00  0.00    -0.142 NA 
HETATM   23  H   UNL     1      -4.591  17.245  69.322  1.00  0.00     0.000 HD 
HETATM   24  C   UNL     1      -5.286  16.781  67.434  1.00  0.00    -0.139 C  
HETATM   25  C   UNL     1      -6.194  17.362  66.350  1.00  0.00    -0.258 C  
ENDBRANCH  17  19
ENDBRANCH  10  15
ENDBRANCH   3   6
TORSDOF 3
ENDMDL
MODEL       26
REMARK 921   NORMALIZED FREE ENERGY PREDICTED BY IDOCK:   -5.54 KCAL/MOL
REMARK 922        TOTAL FREE ENERGY PREDICTED BY IDOCK:   -7.38 KCAL/MOL
REMARK 923 INTER-LIGAND FREE ENERGY PREDICTED BY IDOCK:   -6.53 KCAL/MOL
REMARK 924 INTRA-LIGAND FREE ENERGY PREDICTED BY IDOCK:   -0.85 KCAL/MOL
REMARK 927      BINDING AFFINITY PREDICTED BY RF-SCORE:    0.00 PKD
ROOT
HETATM    1  O   UNL     1     -13.328  13.797  72.646  1.00  0.00    -0.526 OA 
HETATM    2  S   UNL     1     -12.942  15.358  72.509  1.00  0.00    -0.452 S  
HETATM    3  O   UNL     1     -12.652  15.572  70.918  1.00  0.00    -0.402 OA 
HETATM    4  O   UNL     1     -11.715  15.562  73.255  1.00  0.00    -0.428 OA 
HETATM    5  O   UNL     1     -14.142  16.085  72.853  1.00  0.00    -0.530 OA 
ENDROOT
BRANCH   3   6
HETATM    6  N   UNL     1     -11.373  15.101  70.422  1.00  0.00    -0.272 N  
HETATM    7  C   UNL     1     -10.770  16.194  69.657  1.00  0.00    -0.325 C  
HETATM    8  C   UNL     1     -11.533  16.077  68.352  1.00  0.00    -0.331 C  
HETATM    9  N   UNL     1     -11.471  14.637  68.147  1.00  0.00    -0.308 N  
HETATM   10  C   UNL     1     -10.153  14.207  67.634  1.00  0.00    -0.236 C  
HETATM   11  C   UNL     1     -11.769  14.106  69.451  1.00  0.00    -0.313 C  
HETATM   12  O   UNL     1     -12.364  13.057  69.647  1.00  0.00    -0.189 OA 
HETATM   13  C   UNL     1      -9.027  14.605  68.615  1.00  0.00    -0.184 C  
HETATM   14  C   UNL     1      -9.281  15.966  69.285  1.00  0.00    -0.254 C  
BRANCH  10  15
HETATM   15  C   UNL     1      -9.961  12.727  67.227  1.00  0.00    -0.219 C  
HETATM   16  O   UNL     1      -9.998  12.373  66.049  1.00  0.00    -0.246 OA 
HETATM   17  N   UNL     1      -9.827  11.840  68.261  1.00  0.00    -0.194 N  
HETATM   18  H   UNL     1      -9.902  12.184  69.218  1.00  0.00     0.000 HD 
BRANCH  17  19
HETATM   19  C   UNL     1      -9.581  10.415  68.042  1.00  0.00    -0.143 C  
HETATM   20  C   UNL     1      -8.261   9.937  68.659  1.00  0.00    -0.108 C  
HETATM   21  C   UNL     1      -8.322   9.955  70.182  1.00  0.00    -0.126 C  
HETATM   22  N   UNL     1      -9.446   9.164  70.690  1.00  0.00    -0.240 NA 
HETATM   23  H   UNL     1      -9.465   9.163  71.710  1.00  0.00     0.000 HD 
HETATM   24  C   UNL     1     -10.729   9.606  70.138  1.00  0.00    -0.275 C  
HETATM   25  C   UNL     1     -10.737   9.594  68.609  1.00  0.00    -0.233 C  
ENDBRANCH  17  19
ENDBRANCH  10  15
ENDBRANCH   3   6
TORSDOF 3
ENDMDL
MODEL       27
REMARK 921   NORMALIZED FREE ENERGY PREDICTED BY IDOCK:   -5.53 KCAL/MOL
REMARK 922        TOTAL FREE ENERGY PREDICTED BY IDOCK:   -7.36 KCAL/MOL
REMARK 923 INTER-LIGAND FREE ENERGY PREDICTED BY IDOCK:   -6.63 KCAL/MOL
REMARK 924 INTRA-LIGAND FREE ENERGY PREDICTED BY IDOCK:   -0.73 KCAL/MOL
REMARK 927      BINDING AFFINITY PREDICTED BY RF-SCORE:    0.00 PKD
ROOT
HETATM    1  O   UNL     1     -12.395   9.522  71.982  1.00  0.00    -0.368 OA 
HETATM    2  S   UNL     1     -11.725   8.068  71.779  1.00  0.00    -0.310 S  
HETATM    3  O   UNL     1     -10.415   8.345  70.849  1.00  0.00    -0.190 OA 
HETATM    4  O   UNL     1     -12.677   7.257  71.044  1.00  0.00    -0.322 OA 
HETATM    5  O   UNL     1     -11.273   7.664  73.091  1.00  0.00    -0.391 OA 
ENDROOT
BRANCH   3   6
HETATM    6  N   UNL     1     -10.656   8.550  69.434  1.00  0.00    -0.217 N  
HETATM    7  C   UNL     1     -10.057   7.422  68.719  1.00  0.00    -0.179 C  
HETATM    8  C   UNL     1      -8.597   7.829  68.723  1.00  0.00    -0.129 C  
HETATM    9  N   UNL     1      -8.720   9.228  68.340  1.00  0.00    -0.128 N  
HETATM   10  C   UNL     1      -8.956   9.386  66.889  1.00  0.00    -0.131 C  
HETATM   11  C   UNL     1      -9.820   9.693  69.144  1.00  0.00    -0.186 C  
HETATM   12  O   UNL     1      -9.918  10.830  69.582  1.00  0.00    -0.130 OA 
HETATM   13  C   UNL     1     -10.247   8.652  66.461  1.00  0.00    -0.295 C  
HETATM   14  C   UNL     1     -10.456   7.331  67.222  1.00  0.00    -0.380 C  
BRANCH  10  15
HETATM   15  C   UNL     1      -8.970  10.813  66.290  1.00  0.00    -0.170 C  
HETATM   16  O   UNL     1      -8.106  11.640  66.577  1.00  0.00    -0.152 OA 
HETATM   17  N   UNL     1     -10.041  11.109  65.491  1.00  0.00    -0.244 N  
HETATM   18  H   UNL     1     -10.774  10.411  65.370  1.00  0.00     0.000 HD 
BRANCH  17  19
HETATM   19  C   UNL     1     -10.171  12.393  64.803  1.00  0.00    -0.279 C  
HETATM   20  C   UNL     1     -11.054  12.312  63.551  1.00  0.00    -0.533 C  
HETATM   21  C   UNL     1     -12.514  12.068  63.918  1.00  0.00    -0.436 C  
HETATM   22  N   UNL     1     -13.019  13.088  64.842  1.00  0.00    -0.768 NA 
HETATM   23  H   UNL     1     -14.002  12.931  65.062  1.00  0.00     0.000 HD 
HETATM   24  C   UNL     1     -12.211  13.180  66.060  1.00  0.00    -0.414 C  
HETATM   25  C   UNL     1     -10.736  13.441  65.759  1.00  0.00    -0.280 C  
ENDBRANCH  17  19
ENDBRANCH  10  15
ENDBRANCH   3   6
TORSDOF 3
ENDMDL
MODEL       28
REMARK 921   NORMALIZED FREE ENERGY PREDICTED BY IDOCK:   -5.49 KCAL/MOL
REMARK 922        TOTAL FREE ENERGY PREDICTED BY IDOCK:   -7.32 KCAL/MOL
REMARK 923 INTER-LIGAND FREE ENERGY PREDICTED BY IDOCK:   -7.08 KCAL/MOL
REMARK 924 INTRA-LIGAND FREE ENERGY PREDICTED BY IDOCK:   -0.24 KCAL/MOL
REMARK 927      BINDING AFFINITY PREDICTED BY RF-SCORE:    0.00 PKD
ROOT
HETATM    1  O   UNL     1     -10.953  18.034  64.970  1.00  0.00    -0.748 OA 
HETATM    2  S   UNL     1     -10.117  18.551  66.249  1.00  0.00    -0.381 S  
HETATM    3  O   UNL     1      -9.681  17.189  67.033  1.00  0.00    -0.250 OA 
HETATM    4  O   UNL     1     -11.031  19.314  67.078  1.00  0.00    -0.454 OA 
HETATM    5  O   UNL     1      -8.926  19.166  65.710  1.00  0.00    -0.384 OA 
ENDROOT
BRANCH   3   6
HETATM    6  N   UNL     1     -10.706  16.542  67.829  1.00  0.00    -0.337 N  
HETATM    7  C   UNL     1     -10.397  16.801  69.237  1.00  0.00    -0.309 C  
HETATM    8  C   UNL     1      -9.301  15.781  69.476  1.00  0.00    -0.238 C  
HETATM    9  N   UNL     1      -9.895  14.613  68.841  1.00  0.00    -0.224 N  
HETATM   10  C   UNL     1     -10.927  13.984  69.693  1.00  0.00    -0.040 C  
HETATM   11  C   UNL     1     -10.424  15.141  67.611  1.00  0.00    -0.253 C  
HETATM   12  O   UNL     1     -10.486  14.514  66.565  1.00  0.00    -0.277 OA 
HETATM   13  C   UNL     1     -12.057  14.988  70.014  1.00  0.00    -0.382 C  
HETATM   14  C   UNL     1     -11.535  16.420  70.220  1.00  0.00    -0.132 C  
BRANCH  10  15
HETATM   15  C   UNL     1     -11.558  12.650  69.232  1.00  0.00    -0.318 C  
HETATM   16  O   UNL     1     -12.089  12.536  68.128  1.00  0.00    -0.307 OA 
HETATM   17  N   UNL     1     -11.553  11.641  70.157  1.00  0.00    -0.485 N  
HETATM   18  H   UNL     1     -11.183  11.829  71.089  1.00  0.00     0.000 HD 
BRANCH  17  19
HETATM   19  C   UNL     1     -12.058  10.302  69.857  1.00  0.00    -0.108 C  
HETATM   20  C   UNL     1     -11.038   9.197  70.159  1.00  0.00    -0.248 C  
HETATM   21  C   UNL     1     -10.805   9.053  71.659  1.00  0.00    -0.366 C  
HETATM   22  N   UNL     1     -12.056   8.812  72.382  1.00  0.00    -0.345 NA 
HETATM   23  H   UNL     1     -11.888   8.693  73.381  1.00  0.00     0.000 HD 
HETATM   24  C   UNL     1     -13.050   9.859  72.134  1.00  0.00    -0.403 C  
HETATM   25  C   UNL     1     -13.341  10.041  70.644  1.00  0.00    -0.091 C  
ENDBRANCH  17  19
ENDBRANCH  10  15
ENDBRANCH   3   6
TORSDOF 3
ENDMDL
MODEL       29
REMARK 921   NORMALIZED FREE ENERGY PREDICTED BY IDOCK:   -5.49 KCAL/MOL
REMARK 922        TOTAL FREE ENERGY PREDICTED BY IDOCK:   -7.32 KCAL/MOL
REMARK 923 INTER-LIGAND FREE ENERGY PREDICTED BY IDOCK:   -6.52 KCAL/MOL
REMARK 924 INTRA-LIGAND FREE ENERGY PREDICTED BY IDOCK:   -0.80 KCAL/MOL
REMARK 927      BINDING AFFINITY PREDICTED BY RF-SCORE:    0.00 PKD
ROOT
HETATM    1  O   UNL     1     -12.593   6.812  71.949  1.00  0.00    -0.345 OA 
HETATM    2  S   UNL     1     -11.105   6.481  71.421  1.00  0.00    -0.281 S  
HETATM    3  O   UNL     1     -10.456   7.938  71.081  1.00  0.00    -0.204 OA 
HETATM    4  O   UNL     1     -11.245   5.717  70.196  1.00  0.00    -0.319 OA 
HETATM    5  O   UNL     1     -10.405   5.927  72.557  1.00  0.00    -0.187 OA 
ENDROOT
BRANCH   3   6
HETATM    6  N   UNL     1     -10.874   8.561  69.840  1.00  0.00    -0.230 N  
HETATM    7  C   UNL     1      -9.702   8.627  68.965  1.00  0.00    -0.173 C  
HETATM    8  C   UNL     1      -8.984   9.829  69.547  1.00  0.00    -0.204 C  
HETATM    9  N   UNL     1     -10.103  10.749  69.694  1.00  0.00    -0.097 N  
HETATM   10  C   UNL     1     -10.487  11.364  68.406  1.00  0.00    -0.200 C  
HETATM   11  C   UNL     1     -11.138   9.920  70.254  1.00  0.00    -0.308 C  
HETATM   12  O   UNL     1     -11.991  10.319  71.034  1.00  0.00    -0.329 OA 
HETATM   13  C   UNL     1     -10.883  10.280  67.378  1.00  0.00    -0.336 C  
HETATM   14  C   UNL     1     -10.023   9.010  67.497  1.00  0.00    -0.262 C  
BRANCH  10  15
HETATM   15  C   UNL     1     -11.565  12.473  68.404  1.00  0.00    -0.322 C  
HETATM   16  O   UNL     1     -12.254  12.700  67.411  1.00  0.00    -0.406 OA 
HETATM   17  N   UNL     1     -11.644  13.225  69.546  1.00  0.00    -0.357 N  
HETATM   18  H   UNL     1     -10.978  13.049  70.298  1.00  0.00     0.000 HD 
BRANCH  17  19
HETATM   19  C   UNL     1     -12.648  14.273  69.725  1.00  0.00    -0.106 C  
HETATM   20  C   UNL     1     -13.265  14.275  71.129  1.00  0.00    -0.387 C  
HETATM   21  C   UNL     1     -12.249  14.711  72.179  1.00  0.00    -0.271 C  
HETATM   22  N   UNL     1     -11.673  16.021  71.866  1.00  0.00    -0.488 NA 
HETATM   23  H   UNL     1     -11.013  16.316  72.586  1.00  0.00     0.000 HD 
HETATM   24  C   UNL     1     -11.056  16.053  70.538  1.00  0.00    -0.353 C  
HETATM   25  C   UNL     1     -12.031  15.640  69.436  1.00  0.00    -0.349 C  
ENDBRANCH  17  19
ENDBRANCH  10  15
ENDBRANCH   3   6
TORSDOF 3
ENDMDL
MODEL       30
REMARK 921   NORMALIZED FREE ENERGY PREDICTED BY IDOCK:   -5.45 KCAL/MOL
REMARK 922        TOTAL FREE ENERGY PREDICTED BY IDOCK:   -7.27 KCAL/MOL
REMARK 923 INTER-LIGAND FREE ENERGY PREDICTED BY IDOCK:   -6.63 KCAL/MOL
REMARK 924 INTRA-LIGAND FREE ENERGY PREDICTED BY IDOCK:   -0.64 KCAL/MOL
REMARK 927      BINDING AFFINITY PREDICTED BY RF-SCORE:    0.00 PKD
ROOT
HETATM    1  O   UNL     1     -10.634  19.712  65.536  1.00  0.00    -0.457 OA 
HETATM    2  S   UNL     1      -9.210  19.730  66.295  1.00  0.00    -0.357 S  
HETATM    3  O   UNL     1      -8.675  18.192  66.204  1.00  0.00    -0.460 OA 
HETATM    4  O   UNL     1      -9.468  20.070  67.681  1.00  0.00    -0.345 OA 
HETATM    5  O   UNL     1      -8.350  20.559  65.483  1.00  0.00     0.187 OA 
ENDROOT
BRANCH   3   6
HETATM    6  N   UNL     1      -9.274  17.242  67.121  1.00  0.00    -0.231 N  
HETATM    7  C   UNL     1      -8.223  16.796  68.038  1.00  0.00    -0.192 C  
HETATM    8  C   UNL     1      -7.499  15.788  67.167  1.00  0.00    -0.224 C  
HETATM    9  N   UNL     1      -8.635  15.065  66.614  1.00  0.00    -0.250 N  
HETATM   10  C   UNL     1      -9.205  14.104  67.582  1.00  0.00    -0.193 C  
HETATM   11  C   UNL     1      -9.552  16.116  66.258  1.00  0.00    -0.306 C  
HETATM   12  O   UNL     1     -10.320  16.066  65.309  1.00  0.00    -0.471 OA 
HETATM   13  C   UNL     1      -9.671  14.829  68.864  1.00  0.00    -0.215 C  
HETATM   14  C   UNL     1      -8.741  15.990  69.258  1.00  0.00    -0.224 C  
BRANCH  10  15
HETATM   15  C   UNL     1     -10.329  13.151  67.109  1.00  0.00    -0.247 C  
HETATM   16  O   UNL     1     -11.473  13.235  67.553  1.00  0.00    -0.287 OA 
HETATM   17  N   UNL     1      -9.945  12.172  66.233  1.00  0.00    -0.224 N  
HETATM   18  H   UNL     1      -8.961  12.097  65.978  1.00  0.00     0.000 HD 
BRANCH  17  19
HETATM   19  C   UNL     1     -10.898  11.229  65.648  1.00  0.00    -0.177 C  
HETATM   20  C   UNL     1     -11.802  11.874  64.589  1.00  0.00    -0.282 C  
HETATM   21  C   UNL     1     -11.011  12.248  63.340  1.00  0.00    -0.405 C  
HETATM   22  N   UNL     1     -10.302  11.093  62.781  1.00  0.00    -0.741 NA 
HETATM   23  H   UNL     1      -9.796  11.347  61.932  1.00  0.00     0.000 HD 
HETATM   24  C   UNL     1      -9.413  10.463  63.759  1.00  0.00    -0.305 C  
HETATM   25  C   UNL     1     -10.151  10.049  65.032  1.00  0.00    -0.228 C  
ENDBRANCH  17  19
ENDBRANCH  10  15
ENDBRANCH   3   6
TORSDOF 3
ENDMDL
MODEL       31
REMARK 921   NORMALIZED FREE ENERGY PREDICTED BY IDOCK:   -5.42 KCAL/MOL
REMARK 922        TOTAL FREE ENERGY PREDICTED BY IDOCK:   -7.24 KCAL/MOL
REMARK 923 INTER-LIGAND FREE ENERGY PREDICTED BY IDOCK:   -6.46 KCAL/MOL
REMARK 924 INTRA-LIGAND FREE ENERGY PREDICTED BY IDOCK:   -0.78 KCAL/MOL
REMARK 927      BINDING AFFINITY PREDICTED BY RF-SCORE:    0.00 PKD
ROOT
HETATM    1  O   UNL     1      -8.828  17.368  65.581  1.00  0.00    -0.448 OA 
HETATM    2  S   UNL     1     -10.428  17.368  65.789  1.00  0.00    -0.100 S  
HETATM    3  O   UNL     1     -10.703  16.177  66.868  1.00  0.00    -0.314 OA 
HETATM    4  O   UNL     1     -11.025  17.014  64.515  1.00  0.00    -1.031 OA 
HETATM    5  O   UNL     1     -10.736  18.632  66.419  1.00  0.00    -0.362 OA 
ENDROOT
BRANCH   3   6
HETATM    6  N   UNL     1     -10.661  14.819  66.360  1.00  0.00    -0.306 N  
HETATM    7  C   UNL     1     -11.987  14.233  66.566  1.00  0.00    -0.427 C  
HETATM    8  C   UNL     1     -11.915  13.886  68.040  1.00  0.00    -0.355 C  
HETATM    9  N   UNL     1     -10.595  13.273  68.095  1.00  0.00    -0.242 N  
HETATM   10  C   UNL     1     -10.604  11.890  67.575  1.00  0.00    -0.219 C  
HETATM   11  C   UNL     1      -9.786  14.166  67.307  1.00  0.00    -0.236 C  
HETATM   12  O   UNL     1      -8.604  14.390  67.520  1.00  0.00    -0.168 OA 
HETATM   13  C   UNL     1     -11.092  11.858  66.109  1.00  0.00    -0.374 C  
HETATM   14  C   UNL     1     -12.207  12.882  65.835  1.00  0.00    -0.469 C  
BRANCH  10  15
HETATM   15  C   UNL     1      -9.314  11.044  67.692  1.00  0.00    -0.157 C  
HETATM   16  O   UNL     1      -8.627  11.054  68.712  1.00  0.00    -0.152 OA 
HETATM   17  N   UNL     1      -8.955  10.353  66.565  1.00  0.00    -0.144 N  
HETATM   18  H   UNL     1      -9.515  10.464  65.721  1.00  0.00     0.000 HD 
BRANCH  17  19
HETATM   19  C   UNL     1      -7.795   9.463  66.531  1.00  0.00    -0.097 C  
HETATM   20  C   UNL     1      -8.089   8.078  67.121  1.00  0.00    -0.117 C  
HETATM   21  C   UNL     1      -9.045   7.289  66.233  1.00  0.00    -0.149 C  
HETATM   22  N   UNL     1      -8.539   7.170  64.863  1.00  0.00    -0.351 NA 
HETATM   23  H   UNL     1      -9.173   6.620  64.282  1.00  0.00     0.000 HD 
HETATM   24  C   UNL     1      -8.266   8.476  64.258  1.00  0.00    -0.145 C  
HETATM   25  C   UNL     1      -7.298   9.311  65.095  1.00  0.00    -0.098 C  
ENDBRANCH  17  19
ENDBRANCH  10  15
ENDBRANCH   3   6
TORSDOF 3
ENDMDL
MODEL       32
REMARK 921   NORMALIZED FREE ENERGY PREDICTED BY IDOCK:   -5.42 KCAL/MOL
REMARK 922        TOTAL FREE ENERGY PREDICTED BY IDOCK:   -7.24 KCAL/MOL
REMARK 923 INTER-LIGAND FREE ENERGY PREDICTED BY IDOCK:   -6.65 KCAL/MOL
REMARK 924 INTRA-LIGAND FREE ENERGY PREDICTED BY IDOCK:   -0.58 KCAL/MOL
REMARK 927      BINDING AFFINITY PREDICTED BY RF-SCORE:    0.00 PKD
ROOT
HETATM    1  O   UNL     1     -10.913  16.685  70.074  1.00  0.00    -0.333 OA 
HETATM    2  S   UNL     1     -10.302  16.503  68.592  1.00  0.00    -0.309 S  
HETATM    3  O   UNL     1     -10.986  15.134  68.029  1.00  0.00    -0.274 OA 
HETATM    4  O   UNL     1      -8.873  16.304  68.740  1.00  0.00    -0.219 OA 
HETATM    5  O   UNL     1     -10.814  17.615  67.824  1.00  0.00    -0.367 OA 
ENDROOT
BRANCH   3   6
HETATM    6  N   UNL     1     -10.440  13.885  68.524  1.00  0.00    -0.246 N  
HETATM    7  C   UNL     1     -10.169  13.035  67.364  1.00  0.00    -0.231 C  
HETATM    8  C   UNL     1     -11.563  12.523  67.059  1.00  0.00    -0.368 C  
HETATM    9  N   UNL     1     -12.006  12.172  68.400  1.00  0.00    -0.288 N  
HETATM   10  C   UNL     1     -11.430  10.890  68.857  1.00  0.00    -0.300 C  
HETATM   11  C   UNL     1     -11.578  13.296  69.192  1.00  0.00    -0.319 C  
HETATM   12  O   UNL     1     -12.176  13.714  70.172  1.00  0.00    -0.330 OA 
HETATM   13  C   UNL     1      -9.886  10.953  68.858  1.00  0.00    -0.203 C  
HETATM   14  C   UNL     1      -9.327  11.771  67.681  1.00  0.00    -0.180 C  
BRANCH  10  15
HETATM   15  C   UNL     1     -11.908  10.298  70.204  1.00  0.00    -0.263 C  
HETATM   16  O   UNL     1     -12.981  10.628  70.707  1.00  0.00    -0.364 OA 
HETATM   17  N   UNL     1     -11.028   9.454  70.826  1.00  0.00    -0.277 N  
HETATM   18  H   UNL     1     -10.113   9.297  70.403  1.00  0.00     0.000 HD 
BRANCH  17  19
HETATM   19  C   UNL     1     -11.353   8.767  72.076  1.00  0.00    -0.371 C  
HETATM   20  C   UNL     1     -12.374   7.638  71.888  1.00  0.00    -0.337 C  
HETATM   21  C   UNL     1     -11.775   6.475  71.105  1.00  0.00    -0.335 C  
HETATM   22  N   UNL     1     -10.553   5.968  71.736  1.00  0.00    -0.221 NA 
HETATM   23  H   UNL     1     -10.173   5.175  71.219  1.00  0.00     0.000 HD 
HETATM   24  C   UNL     1      -9.546   7.016  71.913  1.00  0.00    -0.150 C  
HETATM   25  C   UNL     1     -10.081   8.207  72.708  1.00  0.00    -0.367 C  
ENDBRANCH  17  19
ENDBRANCH  10  15
ENDBRANCH   3   6
TORSDOF 3
ENDMDL
MODEL       33
REMARK 921   NORMALIZED FREE ENERGY PREDICTED BY IDOCK:   -5.37 KCAL/MOL
REMARK 922        TOTAL FREE ENERGY PREDICTED BY IDOCK:   -7.18 KCAL/MOL
REMARK 923 INTER-LIGAND FREE ENERGY PREDICTED BY IDOCK:   -6.81 KCAL/MOL
REMARK 924 INTRA-LIGAND FREE ENERGY PREDICTED BY IDOCK:   -0.36 KCAL/MOL
REMARK 927      BINDING AFFINITY PREDICTED BY RF-SCORE:    0.00 PKD
ROOT
HETATM    1  O   UNL     1     -12.769   7.061  71.140  1.00  0.00    -0.381 OA 
HETATM    2  S   UNL     1     -11.296   6.626  70.646  1.00  0.00    -0.369 S  
HETATM    3  O   UNL     1     -10.496   8.032  70.446  1.00  0.00    -0.210 OA 
HETATM    4  O   UNL     1     -11.451   5.971  69.361  1.00  0.00    -0.372 OA 
HETATM    5  O   UNL     1     -10.706   5.923  71.762  1.00  0.00    -0.229 OA 
ENDROOT
BRANCH   3   6
HETATM    6  N   UNL     1     -10.795   8.783  69.241  1.00  0.00    -0.140 N  
HETATM    7  C   UNL     1      -9.688   8.571  68.306  1.00  0.00    -0.155 C  
HETATM    8  C   UNL     1      -8.656   9.526  68.872  1.00  0.00    -0.128 C  
HETATM    9  N   UNL     1      -9.488  10.700  69.096  1.00  0.00    -0.195 N  
HETATM   10  C   UNL     1      -9.758  11.435  67.843  1.00  0.00    -0.180 C  
HETATM   11  C   UNL     1     -10.676  10.150  69.695  1.00  0.00    -0.264 C  
HETATM   12  O   UNL     1     -11.357  10.730  70.527  1.00  0.00    -0.307 OA 
HETATM   13  C   UNL     1     -10.471  10.525  66.817  1.00  0.00    -0.302 C  
HETATM   14  C   UNL     1      -9.966   9.072  66.864  1.00  0.00    -0.313 C  
BRANCH  10  15
HETATM   15  C   UNL     1     -10.509  12.785  67.921  1.00  0.00    -0.220 C  
HETATM   16  O   UNL     1     -10.410  13.521  68.902  1.00  0.00    -0.198 OA 
HETATM   17  N   UNL     1     -11.340  13.062  66.869  1.00  0.00    -0.296 N  
HETATM   18  H   UNL     1     -11.451  12.366  66.132  1.00  0.00     0.000 HD 
BRANCH  17  19
HETATM   19  C   UNL     1     -12.075  14.323  66.764  1.00  0.00    -0.417 C  
HETATM   20  C   UNL     1     -11.159  15.552  66.800  1.00  0.00    -0.206 C  
HETATM   21  C   UNL     1     -10.308  15.646  65.539  1.00  0.00    -0.396 C  
HETATM   22  N   UNL     1     -11.133  15.651  64.327  1.00  0.00    -0.804 NA 
HETATM   23  H   UNL     1     -10.557  15.738  63.490  1.00  0.00     0.000 HD 
HETATM   24  C   UNL     1     -12.008  14.480  64.248  1.00  0.00    -0.397 C  
HETATM   25  C   UNL     1     -12.901  14.338  65.480  1.00  0.00    -0.334 C  
ENDBRANCH  17  19
ENDBRANCH  10  15
ENDBRANCH   3   6
TORSDOF 3
ENDMDL
MODEL       34
REMARK 921   NORMALIZED FREE ENERGY PREDICTED BY IDOCK:   -5.33 KCAL/MOL
REMARK 922        TOTAL FREE ENERGY PREDICTED BY IDOCK:   -7.13 KCAL/MOL
REMARK 923 INTER-LIGAND FREE ENERGY PREDICTED BY IDOCK:   -6.36 KCAL/MOL
REMARK 924 INTRA-LIGAND FREE ENERGY PREDICTED BY IDOCK:   -0.77 KCAL/MOL
REMARK 927      BINDING AFFINITY PREDICTED BY RF-SCORE:    0.00 PKD
ROOT
HETATM    1  O   UNL     1     -13.177  11.922  64.260  1.00  0.00    -0.618 OA 
HETATM    2  S   UNL     1     -12.287  13.133  64.848  1.00  0.00    -0.440 S  
HETATM    3  O   UNL     1     -11.289  12.424  65.925  1.00  0.00    -0.322 OA 
HETATM    4  O   UNL     1     -13.191  14.029  65.544  1.00  0.00    -0.710 OA 
HETATM    5  O   UNL     1     -11.494  13.605  63.737  1.00  0.00    -0.260 OA 
ENDROOT
BRANCH   3   6
HETATM    6  N   UNL     1     -11.863  12.078  67.212  1.00  0.00    -0.266 N  
HETATM    7  C   UNL     1     -11.381  13.059  68.185  1.00  0.00    -0.294 C  
HETATM    8  C   UNL     1      -9.986  12.528  68.452  1.00  0.00    -0.212 C  
HETATM    9  N   UNL     1     -10.278  11.110  68.609  1.00  0.00    -0.198 N  
HETATM   10  C   UNL     1     -10.853  10.806  69.936  1.00  0.00    -0.202 C  
HETATM   11  C   UNL     1     -11.187  10.840  67.526  1.00  0.00    -0.274 C  
HETATM   12  O   UNL     1     -11.248   9.775  66.930  1.00  0.00     0.080 OA 
HETATM   13  C   UNL     1     -12.161  11.597  70.161  1.00  0.00    -0.367 C  
HETATM   14  C   UNL     1     -12.109  13.011  69.555  1.00  0.00    -0.289 C  
BRANCH  10  15
HETATM   15  C   UNL     1     -11.090   9.327  70.322  1.00  0.00    -0.251 C  
HETATM   16  O   UNL     1     -11.968   9.003  71.121  1.00  0.00    -0.287 OA 
HETATM   17  N   UNL     1     -10.214   8.426  69.780  1.00  0.00    -0.202 N  
HETATM   18  H   UNL     1      -9.448   8.770  69.202  1.00  0.00     0.000 HD 
BRANCH  17  19
HETATM   19  C   UNL     1     -10.338   6.985  70.000  1.00  0.00    -0.202 C  
HETATM   20  C   UNL     1     -11.269   6.305  68.989  1.00  0.00    -0.415 C  
HETATM   21  C   UNL     1     -10.660   6.300  67.591  1.00  0.00    -0.271 C  
HETATM   22  N   UNL     1      -9.336   5.671  67.579  1.00  0.00    -0.109 NA 
HETATM   23  H   UNL     1      -8.946   5.650  66.636  1.00  0.00     0.000 HD 
HETATM   24  C   UNL     1      -8.411   6.307  68.520  1.00  0.00    -0.115 C  
HETATM   25  C   UNL     1      -8.960   6.330  69.946  1.00  0.00    -0.141 C  
ENDBRANCH  17  19
ENDBRANCH  10  15
ENDBRANCH   3   6
TORSDOF 3
ENDMDL
MODEL       35
REMARK 921   NORMALIZED FREE ENERGY PREDICTED BY IDOCK:   -5.33 KCAL/MOL
REMARK 922        TOTAL FREE ENERGY PREDICTED BY IDOCK:   -7.12 KCAL/MOL
REMARK 923 INTER-LIGAND FREE ENERGY PREDICTED BY IDOCK:   -6.47 KCAL/MOL
REMARK 924 INTRA-LIGAND FREE ENERGY PREDICTED BY IDOCK:   -0.65 KCAL/MOL
REMARK 927      BINDING AFFINITY PREDICTED BY RF-SCORE:    0.00 PKD
ROOT
HETATM    1  O   UNL     1     -11.926  12.069  64.146  1.00  0.00    -0.381 OA 
HETATM    2  S   UNL     1     -10.419  11.492  64.147  1.00  0.00    -0.387 S  
HETATM    3  O   UNL     1      -9.956  11.552  65.709  1.00  0.00    -0.216 OA 
HETATM    4  O   UNL     1      -9.609  12.410  63.368  1.00  0.00    -0.234 OA 
HETATM    5  O   UNL     1     -10.535  10.105  63.761  1.00  0.00     0.382 OA 
ENDROOT
BRANCH   3   6
HETATM    6  N   UNL     1      -9.573  12.853  66.224  1.00  0.00    -0.263 N  
HETATM    7  C   UNL     1      -8.325  12.680  66.969  1.00  0.00    -0.130 C  
HETATM    8  C   UNL     1      -8.852  12.110  68.271  1.00  0.00    -0.182 C  
HETATM    9  N   UNL     1      -9.974  13.006  68.508  1.00  0.00    -0.209 N  
HETATM   10  C   UNL     1      -9.535  14.315  69.039  1.00  0.00     0.014 C  
HETATM   11  C   UNL     1     -10.596  13.103  67.214  1.00  0.00    -0.246 C  
HETATM   12  O   UNL     1     -11.797  13.247  67.038  1.00  0.00    -0.365 OA 
HETATM   13  C   UNL     1      -8.563  15.005  68.057  1.00  0.00    -0.158 C  
HETATM   14  C   UNL     1      -7.624  14.009  67.355  1.00  0.00    -0.167 C  
BRANCH  10  15
HETATM   15  C   UNL     1     -10.610  15.336  69.480  1.00  0.00    -0.267 C  
HETATM   16  O   UNL     1     -10.896  16.311  68.786  1.00  0.00    -0.278 OA 
HETATM   17  N   UNL     1     -11.158  15.123  70.716  1.00  0.00    -0.466 N  
HETATM   18  H   UNL     1     -10.808  14.351  71.283  1.00  0.00     0.000 HD 
BRANCH  17  19
HETATM   19  C   UNL     1     -12.227  15.964  71.254  1.00  0.00    -0.422 C  
HETATM   20  C   UNL     1     -13.607  15.301  71.168  1.00  0.00    -0.540 C  
HETATM   21  C   UNL     1     -13.712  14.114  72.119  1.00  0.00    -0.493 C  
HETATM   22  N   UNL     1     -13.408  14.497  73.500  1.00  0.00    -0.358 NA 
HETATM   23  H   UNL     1     -13.504  13.703  74.133  1.00  0.00     0.000 HD 
HETATM   24  C   UNL     1     -12.087  15.117  73.625  1.00  0.00    -0.467 C  
HETATM   25  C   UNL     1     -11.924  16.327  72.706  1.00  0.00    -0.636 C  
ENDBRANCH  17  19
ENDBRANCH  10  15
ENDBRANCH   3   6
TORSDOF 3
ENDMDL
MODEL       36
REMARK 921   NORMALIZED FREE ENERGY PREDICTED BY IDOCK:   -5.31 KCAL/MOL
REMARK 922        TOTAL FREE ENERGY PREDICTED BY IDOCK:   -7.11 KCAL/MOL
REMARK 923 INTER-LIGAND FREE ENERGY PREDICTED BY IDOCK:   -6.25 KCAL/MOL
REMARK 924 INTRA-LIGAND FREE ENERGY PREDICTED BY IDOCK:   -0.86 KCAL/MOL
REMARK 927      BINDING AFFINITY PREDICTED BY RF-SCORE:    0.00 PKD
ROOT
HETATM    1  O   UNL     1      -6.477  16.257  66.722  1.00  0.00    -0.280 OA 
HETATM    2  S   UNL     1      -7.835  17.101  66.940  1.00  0.00    -0.239 S  
HETATM    3  O   UNL     1      -8.976  15.976  67.241  1.00  0.00    -0.191 OA 
HETATM    4  O   UNL     1      -8.131  17.767  65.686  1.00  0.00    -0.518 OA 
HETATM    5  O   UNL     1      -7.624  17.867  68.147  1.00  0.00    -0.242 OA 
ENDROOT
BRANCH   3   6
HETATM    6  N   UNL     1      -9.486  15.247  66.096  1.00  0.00    -0.306 N  
HETATM    7  C   UNL     1     -10.911  15.561  65.975  1.00  0.00    -0.300 C  
HETATM    8  C   UNL     1     -11.490  14.658  67.047  1.00  0.00    -0.368 C  
HETATM    9  N   UNL     1     -10.769  13.426  66.760  1.00  0.00    -0.276 N  
HETATM   10  C   UNL     1     -11.330  12.716  65.591  1.00  0.00    -0.322 C  
HETATM   11  C   UNL     1      -9.418  13.877  66.550  1.00  0.00    -0.274 C  
HETATM   12  O   UNL     1      -8.425  13.226  66.838  1.00  0.00    -0.166 OA 
HETATM   13  C   UNL     1     -11.281  13.610  64.331  1.00  0.00    -0.382 C  
HETATM   14  C   UNL     1     -11.558  15.090  64.646  1.00  0.00    -0.386 C  
BRANCH  10  15
HETATM   15  C   UNL     1     -10.773  11.317  65.234  1.00  0.00    -0.237 C  
HETATM   16  O   UNL     1     -10.748  10.911  64.073  1.00  0.00    -0.353 OA 
HETATM   17  N   UNL     1     -10.389  10.544  66.296  1.00  0.00    -0.230 N  
HETATM   18  H   UNL     1     -10.525  10.902  67.241  1.00  0.00     0.000 HD 
BRANCH  17  19
HETATM   19  C   UNL     1      -9.788   9.221  66.124  1.00  0.00    -0.293 C  
HETATM   20  C   UNL     1      -8.258   9.244  66.223  1.00  0.00    -0.107 C  
HETATM   21  C   UNL     1      -7.800   9.550  67.645  1.00  0.00    -0.102 C  
HETATM   22  N   UNL     1      -8.368   8.607  68.613  1.00  0.00    -0.121 NA 
HETATM   23  H   UNL     1      -8.037   8.805  69.557  1.00  0.00     0.000 HD 
HETATM   24  C   UNL     1      -9.831   8.573  68.561  1.00  0.00    -0.173 C  
HETATM   25  C   UNL     1     -10.354   8.254  67.161  1.00  0.00    -0.387 C  
ENDBRANCH  17  19
ENDBRANCH  10  15
ENDBRANCH   3   6
TORSDOF 3
ENDMDL
MODEL       37
REMARK 921   NORMALIZED FREE ENERGY PREDICTED BY IDOCK:   -5.23 KCAL/MOL
REMARK 922        TOTAL FREE ENERGY PREDICTED BY IDOCK:   -7.02 KCAL/MOL
REMARK 923 INTER-LIGAND FREE ENERGY PREDICTED BY IDOCK:   -6.63 KCAL/MOL
REMARK 924 INTRA-LIGAND FREE ENERGY PREDICTED BY IDOCK:   -0.39 KCAL/MOL
REMARK 927      BINDING AFFINITY PREDICTED BY RF-SCORE:    0.00 PKD
ROOT
HETATM    1  O   UNL     1      -8.656  17.636  65.758  1.00  0.00    -0.516 OA 
HETATM    2  S   UNL     1     -10.228  17.449  66.071  1.00  0.00    -0.237 S  
HETATM    3  O   UNL     1     -10.340  15.971  66.751  1.00  0.00    -0.288 OA 
HETATM    4  O   UNL     1     -10.921  17.448  64.797  1.00  0.00    -0.964 OA 
HETATM    5  O   UNL     1     -10.542  18.436  67.078  1.00  0.00    -0.395 OA 
ENDROOT
BRANCH   3   6
HETATM    6  N   UNL     1     -10.275  14.836  65.850  1.00  0.00    -0.295 N  
HETATM    7  C   UNL     1     -11.613  14.643  65.289  1.00  0.00    -0.354 C  
HETATM    8  C   UNL     1     -12.300  13.932  66.438  1.00  0.00    -0.426 C  
HETATM    9  N   UNL     1     -11.275  12.958  66.786  1.00  0.00    -0.286 N  
HETATM   10  C   UNL     1     -11.252  11.818  65.846  1.00  0.00    -0.290 C  
HETATM   11  C   UNL     1     -10.063  13.734  66.761  1.00  0.00    -0.265 C  
HETATM   12  O   UNL     1      -9.103  13.532  67.489  1.00  0.00    -0.194 OA 
HETATM   13  C   UNL     1     -10.989  12.304  64.403  1.00  0.00    -0.374 C  
HETATM   14  C   UNL     1     -11.669  13.650  64.098  1.00  0.00    -0.424 C  
BRANCH  10  15
HETATM   15  C   UNL     1     -10.319  10.623  66.150  1.00  0.00    -0.227 C  
HETATM   16  O   UNL     1     -10.439   9.957  67.178  1.00  0.00    -0.230 OA 
HETATM   17  N   UNL     1      -9.315  10.410  65.245  1.00  0.00    -0.196 N  
HETATM   18  H   UNL     1      -9.211  11.057  64.464  1.00  0.00     0.000 HD 
BRANCH  17  19
HETATM   19  C   UNL     1      -8.385   9.286  65.358  1.00  0.00    -0.137 C  
HETATM   20  C   UNL     1      -8.004   8.688  63.998  1.00  0.00    -0.158 C  
HETATM   21  C   UNL     1      -7.143   9.653  63.190  1.00  0.00    -0.107 C  
HETATM   22  N   UNL     1      -5.946  10.061  63.930  1.00  0.00    -0.122 NA 
HETATM   23  H   UNL     1      -5.363  10.687  63.373  1.00  0.00     0.000 HD 
HETATM   24  C   UNL     1      -6.271  10.656  65.228  1.00  0.00    -0.046 C  
HETATM   25  C   UNL     1      -7.122   9.728  66.094  1.00  0.00    -0.099 C  
ENDBRANCH  17  19
ENDBRANCH  10  15
ENDBRANCH   3   6
TORSDOF 3
ENDMDL
MODEL       38
REMARK 921   NORMALIZED FREE ENERGY PREDICTED BY IDOCK:   -5.22 KCAL/MOL
REMARK 922        TOTAL FREE ENERGY PREDICTED BY IDOCK:   -7.01 KCAL/MOL
REMARK 923 INTER-LIGAND FREE ENERGY PREDICTED BY IDOCK:   -6.36 KCAL/MOL
REMARK 924 INTRA-LIGAND FREE ENERGY PREDICTED BY IDOCK:   -0.65 KCAL/MOL
REMARK 927      BINDING AFFINITY PREDICTED BY RF-SCORE:    0.00 PKD
ROOT
HETATM    1  O   UNL     1      -9.043   7.586  70.913  1.00  0.00    -0.151 OA 
HETATM    2  S   UNL     1     -10.340   7.646  71.871  1.00  0.00    -0.205 S  
HETATM    3  O   UNL     1     -11.450   8.475  71.010  1.00  0.00    -0.265 OA 
HETATM    4  O   UNL     1      -9.970   8.412  73.046  1.00  0.00    -0.229 OA 
HETATM    5  O   UNL     1     -10.792   6.280  71.996  1.00  0.00    -0.227 OA 
ENDROOT
BRANCH   3   6
HETATM    6  N   UNL     1     -11.288   9.916  70.960  1.00  0.00    -0.369 N  
HETATM    7  C   UNL     1     -12.599  10.514  71.216  1.00  0.00    -0.426 C  
HETATM    8  C   UNL     1     -13.253  10.350  69.858  1.00  0.00     0.610 C  
HETATM    9  N   UNL     1     -12.168  10.794  68.996  1.00  0.00    -0.131 N  
HETATM   10  C   UNL     1     -12.047  12.267  68.970  1.00  0.00    -0.145 C  
HETATM   11  C   UNL     1     -11.013  10.144  69.559  1.00  0.00    -0.256 C  
HETATM   12  O   UNL     1     -10.054   9.761  68.906  1.00  0.00    -0.169 OA 
HETATM   13  C   UNL     1     -11.794  12.820  70.391  1.00  0.00    -0.238 C  
HETATM   14  C   UNL     1     -12.563  12.044  71.474  1.00  0.00    -0.279 C  
BRANCH  10  15
HETATM   15  C   UNL     1     -11.036  12.913  67.994  1.00  0.00    -0.253 C  
HETATM   16  O   UNL     1      -9.990  13.423  68.394  1.00  0.00    -0.235 OA 
HETATM   17  N   UNL     1     -11.420  12.946  66.680  1.00  0.00    -0.324 N  
HETATM   18  H   UNL     1     -12.342  12.593  66.428  1.00  0.00     0.000 HD 
BRANCH  17  19
HETATM   19  C   UNL     1     -10.553  13.470  65.625  1.00  0.00    -0.284 C  
HETATM   20  C   UNL     1     -10.509  12.568  64.386  1.00  0.00    -0.384 C  
HETATM   21  C   UNL     1     -11.844  12.576  63.648  1.00  0.00    -0.530 C  
HETATM   22  N   UNL     1     -12.255  13.935  63.285  1.00  0.00    -1.111 NA 
HETATM   23  H   UNL     1     -13.136  13.928  62.771  1.00  0.00     0.000 HD 
HETATM   24  C   UNL     1     -12.327  14.822  64.448  1.00  0.00    -0.368 C  
HETATM   25  C   UNL     1     -11.011  14.870  65.223  1.00  0.00    -0.389 C  
ENDBRANCH  17  19
ENDBRANCH  10  15
ENDBRANCH   3   6
TORSDOF 3
ENDMDL
MODEL       39
REMARK 921   NORMALIZED FREE ENERGY PREDICTED BY IDOCK:   -5.19 KCAL/MOL
REMARK 922        TOTAL FREE ENERGY PREDICTED BY IDOCK:   -6.96 KCAL/MOL
REMARK 923 INTER-LIGAND FREE ENERGY PREDICTED BY IDOCK:   -6.05 KCAL/MOL
REMARK 924 INTRA-LIGAND FREE ENERGY PREDICTED BY IDOCK:   -0.91 KCAL/MOL
REMARK 927      BINDING AFFINITY PREDICTED BY RF-SCORE:    0.00 PKD
ROOT
HETATM    1  O   UNL     1     -12.586  12.976  65.985  1.00  0.00    -0.453 OA 
HETATM    2  S   UNL     1     -11.685  12.619  64.696  1.00  0.00    -0.380 S  
HETATM    3  O   UNL     1     -11.021  11.172  65.045  1.00  0.00    -0.218 OA 
HETATM    4  O   UNL     1     -10.641  13.623  64.612  1.00  0.00    -0.398 OA 
HETATM    5  O   UNL     1     -12.619  12.439  63.609  1.00  0.00    -0.658 OA 
ENDROOT
BRANCH   3   6
HETATM    6  N   UNL     1      -9.897  11.178  65.962  1.00  0.00    -0.219 N  
HETATM    7  C   UNL     1      -8.786  10.493  65.300  1.00  0.00    -0.188 C  
HETATM    8  C   UNL     1      -9.188   9.045  65.504  1.00  0.00    -0.198 C  
HETATM    9  N   UNL     1      -9.570   9.080  66.909  1.00  0.00    -0.171 N  
HETATM   10  C   UNL     1      -8.393   9.078  67.803  1.00  0.00    -0.117 C  
HETATM   11  C   UNL     1     -10.349  10.287  67.007  1.00  0.00    -0.243 C  
HETATM   12  O   UNL     1     -11.295  10.434  67.767  1.00  0.00    -0.353 OA 
HETATM   13  C   UNL     1      -7.485  10.295  67.518  1.00  0.00    -0.090 C  
HETATM   14  C   UNL     1      -7.421  10.646  66.021  1.00  0.00    -0.137 C  
BRANCH  10  15
HETATM   15  C   UNL     1      -8.621   8.970  69.330  1.00  0.00    -0.136 C  
HETATM   16  O   UNL     1      -7.788   9.384  70.136  1.00  0.00    -0.104 OA 
HETATM   17  N   UNL     1      -9.762   8.320  69.714  1.00  0.00    -0.178 N  
HETATM   18  H   UNL     1     -10.363   7.914  68.997  1.00  0.00     0.000 HD 
BRANCH  17  19
HETATM   19  C   UNL     1     -10.151   8.185  71.118  1.00  0.00    -0.184 C  
HETATM   20  C   UNL     1     -11.070   9.317  71.593  1.00  0.00    -0.438 C  
HETATM   21  C   UNL     1     -12.444   9.227  70.937  1.00  0.00    -0.128 C  
HETATM   22  N   UNL     1     -13.070   7.922  71.165  1.00  0.00    -0.536 NA 
HETATM   23  H   UNL     1     -13.998   7.879  70.744  1.00  0.00     0.000 HD 
HETATM   24  C   UNL     1     -12.228   6.815  70.705  1.00  0.00    -0.254 C  
HETATM   25  C   UNL     1     -10.839   6.840  71.341  1.00  0.00    -0.269 C  
ENDBRANCH  17  19
ENDBRANCH  10  15
ENDBRANCH   3   6
TORSDOF 3
ENDMDL
MODEL       40
REMARK 921   NORMALIZED FREE ENERGY PREDICTED BY IDOCK:   -5.18 KCAL/MOL
REMARK 922        TOTAL FREE ENERGY PREDICTED BY IDOCK:   -6.96 KCAL/MOL
REMARK 923 INTER-LIGAND FREE ENERGY PREDICTED BY IDOCK:   -6.43 KCAL/MOL
REMARK 924 INTRA-LIGAND FREE ENERGY PREDICTED BY IDOCK:   -0.52 KCAL/MOL
REMARK 927      BINDING AFFINITY PREDICTED BY RF-SCORE:    0.00 PKD
ROOT
HETATM    1  O   UNL     1      -8.669   9.781  70.162  1.00  0.00    -0.207 OA 
HETATM    2  S   UNL     1     -10.178   9.649  69.605  1.00  0.00    -0.239 S  
HETATM    3  O   UNL     1     -10.245  10.688  68.350  1.00  0.00    -0.161 OA 
HETATM    4  O   UNL     1     -11.065  10.106  70.658  1.00  0.00    -0.307 OA 
HETATM    5  O   UNL     1     -10.283   8.305  69.087  1.00  0.00    -0.208 OA 
ENDROOT
BRANCH   3   6
HETATM    6  N   UNL     1     -10.375  12.095  68.678  1.00  0.00    -0.218 N  
HETATM    7  C   UNL     1     -11.785  12.453  68.524  1.00  0.00    -0.326 C  
HETATM    8  C   UNL     1     -11.875  12.602  67.018  1.00  0.00    -0.345 C  
HETATM    9  N   UNL     1     -10.672  13.382  66.766  1.00  0.00    -0.276 N  
HETATM   10  C   UNL     1     -10.855  14.809  67.108  1.00  0.00    -0.311 C  
HETATM   11  C   UNL     1      -9.681  12.730  67.581  1.00  0.00    -0.205 C  
HETATM   12  O   UNL     1      -8.497  12.649  67.290  1.00  0.00    -0.178 OA 
HETATM   13  C   UNL     1     -11.234  14.971  68.597  1.00  0.00    -0.289 C  
HETATM   14  C   UNL     1     -12.157  13.846  69.098  1.00  0.00    -0.377 C  
BRANCH  10  15
HETATM   15  C   UNL     1      -9.722  15.805  66.768  1.00  0.00    -0.238 C  
HETATM   16  O   UNL     1      -8.950  15.608  65.831  1.00  0.00    -0.320 OA 
HETATM   17  N   UNL     1      -9.593  16.868  67.621  1.00  0.00    -0.246 N  
HETATM   18  H   UNL     1     -10.204  16.923  68.436  1.00  0.00     0.000 HD 
BRANCH  17  19
HETATM   19  C   UNL     1      -8.609  17.929  67.405  1.00  0.00    -0.239 C  
HETATM   20  C   UNL     1      -9.005  18.889  66.277  1.00  0.00    -0.267 C  
HETATM   21  C   UNL     1     -10.213  19.735  66.667  1.00  0.00    -0.478 C  
HETATM   22  N   UNL     1      -9.980  20.469  67.914  1.00  0.00    -0.300 NA 
HETATM   23  H   UNL     1     -10.783  21.051  68.155  1.00  0.00     0.000 HD 
HETATM   24  C   UNL     1      -9.619  19.582  69.021  1.00  0.00    -0.355 C  
HETATM   25  C   UNL     1      -8.401  18.717  68.697  1.00  0.00    -0.344 C  
ENDBRANCH  17  19
ENDBRANCH  10  15
ENDBRANCH   3   6
TORSDOF 3
ENDMDL
MODEL       41
REMARK 921   NORMALIZED FREE ENERGY PREDICTED BY IDOCK:   -5.17 KCAL/MOL
REMARK 922        TOTAL FREE ENERGY PREDICTED BY IDOCK:   -6.94 KCAL/MOL
REMARK 923 INTER-LIGAND FREE ENERGY PREDICTED BY IDOCK:   -6.18 KCAL/MOL
REMARK 924 INTRA-LIGAND FREE ENERGY PREDICTED BY IDOCK:   -0.76 KCAL/MOL
REMARK 927      BINDING AFFINITY PREDICTED BY RF-SCORE:    0.00 PKD
ROOT
HETATM    1  O   UNL     1      -7.881  10.383  65.593  1.00  0.00    -0.146 OA 
HETATM    2  S   UNL     1      -9.331   9.841  66.047  1.00  0.00    -0.214 S  
HETATM    3  O   UNL     1     -10.384  10.939  65.460  1.00  0.00    -0.260 OA 
HETATM    4  O   UNL     1      -9.363   9.868  67.497  1.00  0.00    -0.139 OA 
HETATM    5  O   UNL     1      -9.522   8.600  65.331  1.00  0.00    -0.074 OA 
ENDROOT
BRANCH   3   6
HETATM    6  N   UNL     1     -10.500  12.184  66.195  1.00  0.00    -0.242 N  
HETATM    7  C   UNL     1     -11.873  12.271  66.695  1.00  0.00    -0.289 C  
HETATM    8  C   UNL     1     -12.600  12.722  65.443  1.00  0.00    -0.320 C  
HETATM    9  N   UNL     1     -11.696  13.767  64.985  1.00  0.00    -0.331 N  
HETATM   10  C   UNL     1     -11.857  15.017  65.757  1.00  0.00    -0.029 C  
HETATM   11  C   UNL     1     -10.396  13.170  65.143  1.00  0.00    -0.311 C  
HETATM   12  O   UNL     1      -9.442  13.398  64.415  1.00  0.00     0.311 OA 
HETATM   13  C   UNL     1     -11.590  14.771  67.259  1.00  0.00    -0.385 C  
HETATM   14  C   UNL     1     -12.103  13.400  67.734  1.00  0.00    -0.299 C  
BRANCH  10  15
HETATM   15  C   UNL     1     -11.074  16.274  65.309  1.00  0.00    -0.151 C  
HETATM   16  O   UNL     1     -11.157  16.710  64.161  1.00  0.00    -1.005 OA 
HETATM   17  N   UNL     1     -10.232  16.813  66.245  1.00  0.00    -0.322 N  
HETATM   18  H   UNL     1     -10.136  16.347  67.147  1.00  0.00     0.000 HD 
BRANCH  17  19
HETATM   19  C   UNL     1      -9.467  18.034  65.997  1.00  0.00    -0.040 C  
HETATM   20  C   UNL     1     -10.325  19.302  66.076  1.00  0.00    -0.556 C  
HETATM   21  C   UNL     1     -10.784  19.573  67.504  1.00  0.00    -0.440 C  
HETATM   22  N   UNL     1      -9.652  19.656  68.431  1.00  0.00    -0.367 NA 
HETATM   23  H   UNL     1      -9.966  19.862  69.380  1.00  0.00     0.000 HD 
HETATM   24  C   UNL     1      -8.819  18.452  68.399  1.00  0.00    -0.320 C  
HETATM   25  C   UNL     1      -8.313  18.135  66.992  1.00  0.00    -0.250 C  
ENDBRANCH  17  19
ENDBRANCH  10  15
ENDBRANCH   3   6
TORSDOF 3
ENDMDL
MODEL       42
REMARK 921   NORMALIZED FREE ENERGY PREDICTED BY IDOCK:   -5.16 KCAL/MOL
REMARK 922        TOTAL FREE ENERGY PREDICTED BY IDOCK:   -6.93 KCAL/MOL
REMARK 923 INTER-LIGAND FREE ENERGY PREDICTED BY IDOCK:   -6.21 KCAL/MOL
REMARK 924 INTRA-LIGAND FREE ENERGY PREDICTED BY IDOCK:   -0.71 KCAL/MOL
REMARK 927      BINDING AFFINITY PREDICTED BY RF-SCORE:    0.00 PKD
ROOT
HETATM    1  O   UNL     1      -8.649  17.447  66.201  1.00  0.00    -0.437 OA 
HETATM    2  S   UNL     1     -10.242  17.644  66.370  1.00  0.00    -0.348 S  
HETATM    3  O   UNL     1     -10.734  16.324  67.191  1.00  0.00    -0.309 OA 
HETATM    4  O   UNL     1     -10.819  17.628  65.040  1.00  0.00    -0.758 OA 
HETATM    5  O   UNL     1     -10.400  18.796  67.227  1.00  0.00    -0.369 OA 
ENDROOT
BRANCH   3   6
HETATM    6  N   UNL     1     -10.858  15.095  66.430  1.00  0.00    -0.324 N  
HETATM    7  C   UNL     1     -12.249  14.650  66.538  1.00  0.00    -0.131 C  
HETATM    8  C   UNL     1     -12.235  14.018  67.916  1.00  0.00    -0.153 C  
HETATM    9  N   UNL     1     -11.003  13.247  67.832  1.00  0.00    -0.242 N  
HETATM   10  C   UNL     1     -11.181  12.002  67.055  1.00  0.00    -0.320 C  
HETATM   11  C   UNL     1     -10.081  14.166  67.219  1.00  0.00    -0.256 C  
HETATM   12  O   UNL     1      -8.882  14.196  67.454  1.00  0.00    -0.184 OA 
HETATM   13  C   UNL     1     -11.655  12.316  65.618  1.00  0.00    -0.433 C  
HETATM   14  C   UNL     1     -12.630  13.505  65.564  1.00  0.00    -0.531 C  
BRANCH  10  15
HETATM   15  C   UNL     1     -10.009  10.995  66.987  1.00  0.00    -0.190 C  
HETATM   16  O   UNL     1      -9.282  10.919  65.997  1.00  0.00    -0.175 OA 
HETATM   17  N   UNL     1      -9.889  10.152  68.058  1.00  0.00    -0.146 N  
HETATM   18  H   UNL     1     -10.583  10.201  68.804  1.00  0.00     0.000 HD 
BRANCH  17  19
HETATM   19  C   UNL     1      -8.799   9.183  68.173  1.00  0.00    -0.129 C  
HETATM   20  C   UNL     1      -8.209   9.114  69.586  1.00  0.00    -0.116 C  
HETATM   21  C   UNL     1      -9.199   8.504  70.572  1.00  0.00    -0.156 C  
HETATM   22  N   UNL     1      -9.653   7.180  70.136  1.00  0.00    -0.168 NA 
HETATM   23  H   UNL     1     -10.296   6.769  70.813  1.00  0.00     0.000 HD 
HETATM   24  C   UNL     1     -10.242   7.210  68.796  1.00  0.00    -0.179 C  
HETATM   25  C   UNL     1      -9.289   7.798  67.756  1.00  0.00    -0.155 C  
ENDBRANCH  17  19
ENDBRANCH  10  15
ENDBRANCH   3   6
TORSDOF 3
ENDMDL
MODEL       43
REMARK 921   NORMALIZED FREE ENERGY PREDICTED BY IDOCK:   -5.16 KCAL/MOL
REMARK 922        TOTAL FREE ENERGY PREDICTED BY IDOCK:   -6.92 KCAL/MOL
REMARK 923 INTER-LIGAND FREE ENERGY PREDICTED BY IDOCK:   -6.08 KCAL/MOL
REMARK 924 INTRA-LIGAND FREE ENERGY PREDICTED BY IDOCK:   -0.84 KCAL/MOL
REMARK 927      BINDING AFFINITY PREDICTED BY RF-SCORE:    0.00 PKD
ROOT
HETATM    1  O   UNL     1     -12.778  13.182  71.257  1.00  0.00    -0.363 OA 
HETATM    2  S   UNL     1     -12.490  14.687  70.755  1.00  0.00    -0.366 S  
HETATM    3  O   UNL     1     -12.393  14.569  69.131  1.00  0.00    -0.244 OA 
HETATM    4  O   UNL     1     -11.200  15.078  71.289  1.00  0.00    -0.304 OA 
HETATM    5  O   UNL     1     -13.680  15.439  71.084  1.00  0.00    -0.495 OA 
ENDROOT
BRANCH   3   6
HETATM    6  N   UNL     1     -11.155  14.038  68.593  1.00  0.00    -0.252 N  
HETATM    7  C   UNL     1     -10.545  15.089  67.778  1.00  0.00    -0.264 C  
HETATM    8  C   UNL     1     -11.367  14.974  66.509  1.00  0.00    -0.280 C  
HETATM    9  N   UNL     1     -11.368  13.529  66.335  1.00  0.00    -0.308 N  
HETATM   10  C   UNL     1     -10.090  13.036  65.778  1.00  0.00    -0.287 C  
HETATM   11  C   UNL     1     -11.629  13.038  67.663  1.00  0.00    -0.355 C  
HETATM   12  O   UNL     1     -12.254  12.017  67.908  1.00  0.00    -0.470 OA 
HETATM   13  C   UNL     1      -8.909  13.412  66.701  1.00  0.00    -0.076 C  
HETATM   14  C   UNL     1      -9.083  14.797  67.349  1.00  0.00    -0.202 C  
BRANCH  10  15
HETATM   15  C   UNL     1      -9.972  11.542  65.397  1.00  0.00    -0.248 C  
HETATM   16  O   UNL     1     -10.106  11.160  64.235  1.00  0.00    -0.271 OA 
HETATM   17  N   UNL     1      -9.789  10.677  66.443  1.00  0.00    -0.203 N  
HETATM   18  H   UNL     1      -9.784  11.047  67.393  1.00  0.00     0.000 HD 
BRANCH  17  19
HETATM   19  C   UNL     1      -9.601   9.240  66.245  1.00  0.00    -0.248 C  
HETATM   20  C   UNL     1      -8.125   8.823  66.269  1.00  0.00    -0.107 C  
HETATM   21  C   UNL     1      -7.531   8.970  67.665  1.00  0.00    -0.085 C  
HETATM   22  N   UNL     1      -8.297   8.218  68.663  1.00  0.00    -0.124 NA 
HETATM   23  H   UNL     1      -7.878   8.302  69.589  1.00  0.00     0.000 HD 
HETATM   24  C   UNL     1      -9.709   8.604  68.683  1.00  0.00    -0.163 C  
HETATM   25  C   UNL     1     -10.369   8.463  67.312  1.00  0.00    -0.369 C  
ENDBRANCH  17  19
ENDBRANCH  10  15
ENDBRANCH   3   6
TORSDOF 3
ENDMDL
MODEL       44
REMARK 921   NORMALIZED FREE ENERGY PREDICTED BY IDOCK:   -5.15 KCAL/MOL
REMARK 922        TOTAL FREE ENERGY PREDICTED BY IDOCK:   -6.92 KCAL/MOL
REMARK 923 INTER-LIGAND FREE ENERGY PREDICTED BY IDOCK:   -6.04 KCAL/MOL
REMARK 924 INTRA-LIGAND FREE ENERGY PREDICTED BY IDOCK:   -0.88 KCAL/MOL
REMARK 927      BINDING AFFINITY PREDICTED BY RF-SCORE:    0.00 PKD
ROOT
HETATM    1  O   UNL     1     -13.065   9.025  71.179  1.00  0.00    -0.252 OA 
HETATM    2  S   UNL     1     -11.701   8.187  71.374  1.00  0.00    -0.293 S  
HETATM    3  O   UNL     1     -10.594   8.991  70.487  1.00  0.00    -0.203 OA 
HETATM    4  O   UNL     1     -11.919   6.873  70.798  1.00  0.00    -0.363 OA 
HETATM    5  O   UNL     1     -11.355   8.330  72.769  1.00  0.00    -0.381 OA 
ENDROOT
BRANCH   3   6
HETATM    6  N   UNL     1     -10.640   8.788  69.051  1.00  0.00    -0.206 N  
HETATM    7  C   UNL     1      -9.382   8.152  68.657  1.00  0.00    -0.143 C  
HETATM    8  C   UNL     1      -8.452   9.349  68.648  1.00  0.00    -0.119 C  
HETATM    9  N   UNL     1      -9.283  10.313  67.940  1.00  0.00    -0.137 N  
HETATM   10  C   UNL     1      -9.293  10.070  66.482  1.00  0.00    -0.162 C  
HETATM   11  C   UNL     1     -10.576  10.141  68.548  1.00  0.00    -0.216 C  
HETATM   12  O   UNL     1     -11.389  11.041  68.700  1.00  0.00    -0.235 OA 
HETATM   13  C   UNL     1      -9.820   8.652  66.166  1.00  0.00    -0.269 C  
HETATM   14  C   UNL     1      -9.369   7.609  67.204  1.00  0.00    -0.180 C  
BRANCH  10  15
HETATM   15  C   UNL     1     -10.011  11.087  65.564  1.00  0.00    -0.256 C  
HETATM   16  O   UNL     1     -10.429  10.768  64.452  1.00  0.00    -0.365 OA 
HETATM   17  N   UNL     1     -10.078  12.369  66.039  1.00  0.00    -0.246 N  
HETATM   18  H   UNL     1      -9.626  12.590  66.926  1.00  0.00     0.000 HD 
BRANCH  17  19
HETATM   19  C   UNL     1     -10.774  13.435  65.318  1.00  0.00    -0.313 C  
HETATM   20  C   UNL     1     -12.166  13.731  65.890  1.00  0.00    -0.501 C  
HETATM   21  C   UNL     1     -12.072  14.373  67.270  1.00  0.00    -0.323 C  
HETATM   22  N   UNL     1     -11.253  15.588  67.249  1.00  0.00    -0.276 NA 
HETATM   23  H   UNL     1     -11.216  16.024  68.170  1.00  0.00     0.000 HD 
HETATM   24  C   UNL     1      -9.908  15.340  66.726  1.00  0.00    -0.236 C  
HETATM   25  C   UNL     1      -9.933  14.709  65.334  1.00  0.00    -0.365 C  
ENDBRANCH  17  19
ENDBRANCH  10  15
ENDBRANCH   3   6
TORSDOF 3
ENDMDL
MODEL       45
REMARK 921   NORMALIZED FREE ENERGY PREDICTED BY IDOCK:   -5.15 KCAL/MOL
REMARK 922        TOTAL FREE ENERGY PREDICTED BY IDOCK:   -6.92 KCAL/MOL
REMARK 923 INTER-LIGAND FREE ENERGY PREDICTED BY IDOCK:   -6.37 KCAL/MOL
REMARK 924 INTRA-LIGAND FREE ENERGY PREDICTED BY IDOCK:   -0.55 KCAL/MOL
REMARK 927      BINDING AFFINITY PREDICTED BY RF-SCORE:    0.00 PKD
ROOT
HETATM    1  O   UNL     1      -9.127   9.557  68.035  1.00  0.00    -0.124 OA 
HETATM    2  S   UNL     1      -9.638   8.938  66.635  1.00  0.00    -0.241 S  
HETATM    3  O   UNL     1      -9.544  10.176  65.579  1.00  0.00    -0.210 OA 
HETATM    4  O   UNL     1     -11.027   8.560  66.815  1.00  0.00    -0.019 OA 
HETATM    5  O   UNL     1      -8.650   7.951  66.266  1.00  0.00    -0.133 OA 
ENDROOT
BRANCH   3   6
HETATM    6  N   UNL     1     -10.599  11.169  65.648  1.00  0.00    -0.248 N  
HETATM    7  C   UNL     1     -11.148  11.321  64.300  1.00  0.00    -0.222 C  
HETATM    8  C   UNL     1     -10.095  12.208  63.666  1.00  0.00    -0.385 C  
HETATM    9  N   UNL     1      -9.916  13.190  64.725  1.00  0.00    -0.190 N  
HETATM   10  C   UNL     1     -11.010  14.184  64.751  1.00  0.00    -0.400 C  
HETATM   11  C   UNL     1      -9.860  12.383  65.916  1.00  0.00    -0.252 C  
HETATM   12  O   UNL     1      -9.193  12.657  66.902  1.00  0.00    -0.205 OA 
HETATM   13  C   UNL     1     -12.375  13.490  64.959  1.00  0.00    -0.468 C  
HETATM   14  C   UNL     1     -12.466  12.136  64.235  1.00  0.00    -0.461 C  
BRANCH  10  15
HETATM   15  C   UNL     1     -10.903  15.382  65.724  1.00  0.00    -0.343 C  
HETATM   16  O   UNL     1     -10.390  16.446  65.382  1.00  0.00    -0.535 OA 
HETATM   17  N   UNL     1     -11.344  15.150  66.999  1.00  0.00    -0.316 N  
HETATM   18  H   UNL     1     -11.670  14.216  67.245  1.00  0.00     0.000 HD 
BRANCH  17  19
HETATM   19  C   UNL     1     -11.365  16.196  68.021  1.00  0.00    -0.234 C  
HETATM   20  C   UNL     1     -11.999  15.730  69.338  1.00  0.00    -0.321 C  
HETATM   21  C   UNL     1     -11.121  14.701  70.042  1.00  0.00    -0.164 C  
HETATM   22  N   UNL     1      -9.766  15.210  70.271  1.00  0.00    -0.398 NA 
HETATM   23  H   UNL     1      -9.193  14.524  70.764  1.00  0.00     0.000 HD 
HETATM   24  C   UNL     1      -9.120  15.646  69.032  1.00  0.00    -0.241 C  
HETATM   25  C   UNL     1      -9.946  16.694  68.285  1.00  0.00    -0.261 C  
ENDBRANCH  17  19
ENDBRANCH  10  15
ENDBRANCH   3   6
TORSDOF 3
ENDMDL
MODEL       46
REMARK 921   NORMALIZED FREE ENERGY PREDICTED BY IDOCK:   -5.07 KCAL/MOL
REMARK 922        TOTAL FREE ENERGY PREDICTED BY IDOCK:   -6.83 KCAL/MOL
REMARK 923 INTER-LIGAND FREE ENERGY PREDICTED BY IDOCK:   -6.13 KCAL/MOL
REMARK 924 INTRA-LIGAND FREE ENERGY PREDICTED BY IDOCK:   -0.70 KCAL/MOL
REMARK 927      BINDING AFFINITY PREDICTED BY RF-SCORE:    0.00 PKD
ROOT
HETATM    1  O   UNL     1     -11.408   6.216  68.931  1.00  0.00    -0.367 OA 
HETATM    2  S   UNL     1     -10.225   5.688  67.969  1.00  0.00    -0.188 S  
HETATM    3  O   UNL     1      -9.193   6.946  67.857  1.00  0.00    -0.126 OA 
HETATM    4  O   UNL     1     -10.815   5.430  66.669  1.00  0.00    -0.277 OA 
HETATM    5  O   UNL     1      -9.572   4.629  68.703  1.00  0.00    -0.146 OA 
ENDROOT
BRANCH   3   6
HETATM    6  N   UNL     1      -9.580   8.025  66.969  1.00  0.00    -0.180 N  
HETATM    7  C   UNL     1      -8.429   8.325  66.116  1.00  0.00    -0.134 C  
HETATM    8  C   UNL     1      -7.584   9.154  67.064  1.00  0.00    -0.091 C  
HETATM    9  N   UNL     1      -8.604  10.035  67.612  1.00  0.00    -0.118 N  
HETATM   10  C   UNL     1      -8.959  11.122  66.676  1.00  0.00    -0.170 C  
HETATM   11  C   UNL     1      -9.701   9.142  67.880  1.00  0.00    -0.154 C  
HETATM   12  O   UNL     1     -10.491   9.280  68.802  1.00  0.00    -0.207 OA 
HETATM   13  C   UNL     1      -9.484  10.547  65.341  1.00  0.00    -0.273 C  
HETATM   14  C   UNL     1      -8.747   9.263  64.921  1.00  0.00    -0.224 C  
BRANCH  10  15
HETATM   15  C   UNL     1      -9.925  12.231  67.157  1.00  0.00    -0.205 C  
HETATM   16  O   UNL     1      -9.942  12.607  68.328  1.00  0.00    -0.223 OA 
HETATM   17  N   UNL     1     -10.801  12.702  66.216  1.00  0.00    -0.268 N  
HETATM   18  H   UNL     1     -10.801  12.280  65.288  1.00  0.00     0.000 HD 
BRANCH  17  19
HETATM   19  C   UNL     1     -11.738  13.790  66.496  1.00  0.00    -0.385 C  
HETATM   20  C   UNL     1     -11.068  15.170  66.495  1.00  0.00    -0.305 C  
HETATM   21  C   UNL     1     -10.623  15.568  65.092  1.00  0.00    -0.431 C  
HETATM   22  N   UNL     1     -11.737  15.533  64.139  1.00  0.00    -0.866 NA 
HETATM   23  H   UNL     1     -11.436  15.825  63.209  1.00  0.00     0.000 HD 
HETATM   24  C   UNL     1     -12.390  14.224  64.098  1.00  0.00    -0.327 C  
HETATM   25  C   UNL     1     -12.874  13.773  65.476  1.00  0.00    -0.464 C  
ENDBRANCH  17  19
ENDBRANCH  10  15
ENDBRANCH   3   6
TORSDOF 3
ENDMDL
MODEL       47
REMARK 921   NORMALIZED FREE ENERGY PREDICTED BY IDOCK:   -5.07 KCAL/MOL
REMARK 922        TOTAL FREE ENERGY PREDICTED BY IDOCK:   -6.82 KCAL/MOL
REMARK 923 INTER-LIGAND FREE ENERGY PREDICTED BY IDOCK:   -6.10 KCAL/MOL
REMARK 924 INTRA-LIGAND FREE ENERGY PREDICTED BY IDOCK:   -0.72 KCAL/MOL
REMARK 927      BINDING AFFINITY PREDICTED BY RF-SCORE:    0.00 PKD
ROOT
HETATM    1  O   UNL     1     -10.625   6.946  67.933  1.00  0.00    -0.196 OA 
HETATM    2  S   UNL     1      -9.189   6.616  67.276  1.00  0.00    -0.128 S  
HETATM    3  O   UNL     1      -8.645   8.054  66.733  1.00  0.00    -0.123 OA 
HETATM    4  O   UNL     1      -9.426   5.733  66.150  1.00  0.00    -0.159 OA 
HETATM    5  O   UNL     1      -8.348   6.198  68.374  1.00  0.00    -0.113 OA 
ENDROOT
BRANCH   3   6
HETATM    6  N   UNL     1      -9.220   8.540  65.493  1.00  0.00    -0.105 N  
HETATM    7  C   UNL     1      -8.122   8.731  64.545  1.00  0.00    -0.156 C  
HETATM    8  C   UNL     1      -7.563  10.057  65.025  1.00  0.00    -0.139 C  
HETATM    9  N   UNL     1      -8.798  10.807  65.200  1.00  0.00    -0.197 N  
HETATM   10  C   UNL     1      -9.342  11.287  63.912  1.00  0.00    -0.130 C  
HETATM   11  C   UNL     1      -9.664   9.866  65.861  1.00  0.00    -0.262 C  
HETATM   12  O   UNL     1     -10.522  10.175  66.674  1.00  0.00    -0.228 OA 
HETATM   13  C   UNL     1      -9.626  10.102  62.961  1.00  0.00    -0.216 C  
HETATM   14  C   UNL     1      -8.578   8.983  63.083  1.00  0.00    -0.157 C  
BRANCH  10  15
HETATM   15  C   UNL     1     -10.574  12.223  63.928  1.00  0.00    -0.427 C  
HETATM   16  O   UNL     1     -11.618  11.923  63.350  1.00  0.00    -0.423 OA 
HETATM   17  N   UNL     1     -10.396  13.426  64.556  1.00  0.00    -0.545 N  
HETATM   18  H   UNL     1      -9.476  13.654  64.932  1.00  0.00     0.000 HD 
BRANCH  17  19
HETATM   19  C   UNL     1     -11.480  14.396  64.708  1.00  0.00    -0.402 C  
HETATM   20  C   UNL     1     -12.480  14.007  65.804  1.00  0.00    -0.523 C  
HETATM   21  C   UNL     1     -11.851  14.106  67.189  1.00  0.00    -0.423 C  
HETATM   22  N   UNL     1     -11.302  15.441  67.441  1.00  0.00    -0.290 NA 
HETATM   23  H   UNL     1     -10.905  15.506  68.378  1.00  0.00     0.000 HD 
HETATM   24  C   UNL     1     -10.326  15.840  66.425  1.00  0.00    -0.299 C  
HETATM   25  C   UNL     1     -10.903  15.777  65.010  1.00  0.00    -0.461 C  
ENDBRANCH  17  19
ENDBRANCH  10  15
ENDBRANCH   3   6
TORSDOF 3
ENDMDL
MODEL       48
REMARK 921   NORMALIZED FREE ENERGY PREDICTED BY IDOCK:   -5.05 KCAL/MOL
REMARK 922        TOTAL FREE ENERGY PREDICTED BY IDOCK:   -6.80 KCAL/MOL
REMARK 923 INTER-LIGAND FREE ENERGY PREDICTED BY IDOCK:   -6.03 KCAL/MOL
REMARK 924 INTRA-LIGAND FREE ENERGY PREDICTED BY IDOCK:   -0.77 KCAL/MOL
REMARK 927      BINDING AFFINITY PREDICTED BY RF-SCORE:    0.00 PKD
ROOT
HETATM    1  O   UNL     1      -9.298  15.347  69.712  1.00  0.00    -0.253 OA 
HETATM    2  S   UNL     1     -10.602  15.955  68.982  1.00  0.00    -0.268 S  
HETATM    3  O   UNL     1     -11.290  14.677  68.237  1.00  0.00    -0.270 OA 
HETATM    4  O   UNL     1     -10.133  16.899  67.986  1.00  0.00    -0.270 OA 
HETATM    5  O   UNL     1     -11.477  16.384  70.048  1.00  0.00    -0.264 OA 
ENDROOT
BRANCH   3   6
HETATM    6  N   UNL     1     -10.671  14.236  67.002  1.00  0.00    -0.287 N  
HETATM    7  C   UNL     1     -11.580  14.582  65.908  1.00  0.00    -0.349 C  
HETATM    8  C   UNL     1     -12.596  13.462  66.021  1.00  0.00    -0.296 C  
HETATM    9  N   UNL     1     -11.704  12.322  66.180  1.00  0.00    -0.397 N  
HETATM   10  C   UNL     1     -11.104  11.905  64.895  1.00  0.00    -0.307 C  
HETATM   11  C   UNL     1     -10.729  12.797  67.128  1.00  0.00    -0.245 C  
HETATM   12  O   UNL     1     -10.173  12.089  67.953  1.00  0.00    -0.187 OA 
HETATM   13  C   UNL     1     -10.302  13.064  64.262  1.00  0.00    -0.385 C  
HETATM   14  C   UNL     1     -10.961  14.435  64.493  1.00  0.00    -0.290 C  
BRANCH  10  15
HETATM   15  C   UNL     1     -10.242  10.621  64.859  1.00  0.00    -0.324 C  
HETATM   16  O   UNL     1      -9.574  10.321  63.870  1.00  0.00    -0.287 OA 
HETATM   17  N   UNL     1     -10.335   9.814  65.961  1.00  0.00    -0.177 N  
HETATM   18  H   UNL     1     -10.982  10.071  66.706  1.00  0.00     0.000 HD 
BRANCH  17  19
HETATM   19  C   UNL     1      -9.540   8.595  66.107  1.00  0.00    -0.235 C  
HETATM   20  C   UNL     1      -8.148   8.858  66.694  1.00  0.00    -0.107 C  
HETATM   21  C   UNL     1      -8.235   9.284  68.155  1.00  0.00    -0.119 C  
HETATM   22  N   UNL     1      -8.960   8.302  68.965  1.00  0.00    -0.147 NA 
HETATM   23  H   UNL     1      -8.992   8.583  69.945  1.00  0.00     0.000 HD 
HETATM   24  C   UNL     1     -10.304   8.040  68.446  1.00  0.00    -0.199 C  
HETATM   25  C   UNL     1     -10.284   7.591  66.985  1.00  0.00    -0.368 C  
ENDBRANCH  17  19
ENDBRANCH  10  15
ENDBRANCH   3   6
TORSDOF 3
ENDMDL
MODEL       49
REMARK 921   NORMALIZED FREE ENERGY PREDICTED BY IDOCK:   -5.04 KCAL/MOL
REMARK 922        TOTAL FREE ENERGY PREDICTED BY IDOCK:   -6.79 KCAL/MOL
REMARK 923 INTER-LIGAND FREE ENERGY PREDICTED BY IDOCK:   -5.93 KCAL/MOL
REMARK 924 INTRA-LIGAND FREE ENERGY PREDICTED BY IDOCK:   -0.86 KCAL/MOL
REMARK 927      BINDING AFFINITY PREDICTED BY RF-SCORE:    0.00 PKD
ROOT
HETATM    1  O   UNL     1      -7.782  10.051  62.368  1.00  0.00    -0.117 OA 
HETATM    2  S   UNL     1      -7.164   8.885  63.295  1.00  0.00    -0.093 S  
HETATM    3  O   UNL     1      -8.291   8.633  64.446  1.00  0.00    -0.164 OA 
HETATM    4  O   UNL     1      -5.960   9.415  63.906  1.00  0.00    -0.084 OA 
HETATM    5  O   UNL     1      -7.106   7.712  62.454  1.00  0.00    -0.074 OA 
ENDROOT
BRANCH   3   6
HETATM    6  N   UNL     1      -8.348   9.605  65.522  1.00  0.00    -0.134 N  
HETATM    7  C   UNL     1      -8.060   8.896  66.770  1.00  0.00    -0.111 C  
HETATM    8  C   UNL     1      -9.401   8.241  67.036  1.00  0.00    -0.160 C  
HETATM    9  N   UNL     1     -10.291   9.363  66.774  1.00  0.00    -0.248 N  
HETATM   10  C   UNL     1     -10.322  10.321  67.900  1.00  0.00    -0.196 C  
HETATM   11  C   UNL     1      -9.755   9.931  65.565  1.00  0.00    -0.302 C  
HETATM   12  O   UNL     1     -10.431  10.472  64.702  1.00  0.00    -0.311 OA 
HETATM   13  C   UNL     1      -8.909  10.879  68.182  1.00  0.00    -0.137 C  
HETATM   14  C   UNL     1      -7.806   9.824  67.987  1.00  0.00    -0.086 C  
BRANCH  10  15
HETATM   15  C   UNL     1     -11.324  11.498  67.846  1.00  0.00    -0.303 C  
HETATM   16  O   UNL     1     -12.394  11.461  68.453  1.00  0.00    -0.505 OA 
HETATM   17  N   UNL     1     -10.976  12.536  67.025  1.00  0.00    -0.258 N  
HETATM   18  H   UNL     1     -10.121  12.462  66.474  1.00  0.00     0.000 HD 
BRANCH  17  19
HETATM   19  C   UNL     1     -11.787  13.748  66.909  1.00  0.00    -0.413 C  
HETATM   20  C   UNL     1     -10.943  15.013  66.714  1.00  0.00    -0.323 C  
HETATM   21  C   UNL     1     -10.268  15.025  65.347  1.00  0.00    -0.381 C  
HETATM   22  N   UNL     1     -11.241  14.879  64.261  1.00  0.00    -0.636 NA 
HETATM   23  H   UNL     1     -10.783  14.913  63.349  1.00  0.00     0.000 HD 
HETATM   24  C   UNL     1     -12.053  13.669  64.402  1.00  0.00    -0.427 C  
HETATM   25  C   UNL     1     -12.771  13.606  65.750  1.00  0.00    -0.470 C  
ENDBRANCH  17  19
ENDBRANCH  10  15
ENDBRANCH   3   6
TORSDOF 3
ENDMDL
MODEL       50
REMARK 921   NORMALIZED FREE ENERGY PREDICTED BY IDOCK:   -5.04 KCAL/MOL
REMARK 922        TOTAL FREE ENERGY PREDICTED BY IDOCK:   -6.79 KCAL/MOL
REMARK 923 INTER-LIGAND FREE ENERGY PREDICTED BY IDOCK:   -6.02 KCAL/MOL
REMARK 924 INTRA-LIGAND FREE ENERGY PREDICTED BY IDOCK:   -0.77 KCAL/MOL
REMARK 927      BINDING AFFINITY PREDICTED BY RF-SCORE:    0.00 PKD
ROOT
HETATM    1  O   UNL     1     -11.271  12.128  63.110  1.00  0.00    -0.348 OA 
HETATM    2  S   UNL     1     -12.309  12.935  64.044  1.00  0.00    -0.365 S  
HETATM    3  O   UNL     1     -11.489  13.211  65.427  1.00  0.00    -0.295 OA 
HETATM    4  O   UNL     1     -13.424  12.048  64.312  1.00  0.00    -0.654 OA 
HETATM    5  O   UNL     1     -12.520  14.202  63.382  1.00  0.00    -0.797 OA 
ENDROOT
BRANCH   3   6
HETATM    6  N   UNL     1     -11.368  12.093  66.343  1.00  0.00    -0.339 N  
HETATM    7  C   UNL     1     -11.780  12.564  67.666  1.00  0.00    -0.361 C  
HETATM    8  C   UNL     1     -10.530  13.302  68.104  1.00  0.00    -0.245 C  
HETATM    9  N   UNL     1      -9.513  12.332  67.723  1.00  0.00    -0.191 N  
HETATM   10  C   UNL     1      -9.422  11.217  68.689  1.00  0.00    -0.193 C  
HETATM   11  C   UNL     1      -9.936  11.909  66.414  1.00  0.00    -0.213 C  
HETATM   12  O   UNL     1      -9.173  11.582  65.517  1.00  0.00    -0.211 OA 
HETATM   13  C   UNL     1     -10.775  10.480  68.805  1.00  0.00    -0.249 C  
HETATM   14  C   UNL     1     -11.978  11.435  68.712  1.00  0.00    -0.353 C  
BRANCH  10  15
HETATM   15  C   UNL     1      -8.296  10.171  68.513  1.00  0.00    -0.116 C  
HETATM   16  O   UNL     1      -7.361  10.090  69.309  1.00  0.00    -0.074 OA 
HETATM   17  N   UNL     1      -8.371   9.404  67.381  1.00  0.00    -0.124 N  
HETATM   18  H   UNL     1      -9.119   9.586  66.712  1.00  0.00     0.000 HD 
BRANCH  17  19
HETATM   19  C   UNL     1      -7.417   8.332  67.098  1.00  0.00    -0.089 C  
HETATM   20  C   UNL     1      -7.975   6.939  67.411  1.00  0.00    -0.112 C  
HETATM   21  C   UNL     1      -9.087   6.556  66.441  1.00  0.00    -0.155 C  
HETATM   22  N   UNL     1      -8.641   6.633  65.047  1.00  0.00    -0.346 NA 
HETATM   23  H   UNL     1      -9.383   6.351  64.406  1.00  0.00     0.000 HD 
HETATM   24  C   UNL     1      -8.119   7.957  64.704  1.00  0.00    -0.125 C  
HETATM   25  C   UNL     1      -6.987   8.393  65.634  1.00  0.00    -0.067 C  
ENDBRANCH  17  19
ENDBRANCH  10  15
ENDBRANCH   3   6
TORSDOF 3
ENDMDL
MODEL       51
REMARK 921   NORMALIZED FREE ENERGY PREDICTED BY IDOCK:   -5.02 KCAL/MOL
REMARK 922        TOTAL FREE ENERGY PREDICTED BY IDOCK:   -6.77 KCAL/MOL
REMARK 923 INTER-LIGAND FREE ENERGY PREDICTED BY IDOCK:   -5.99 KCAL/MOL
REMARK 924 INTRA-LIGAND FREE ENERGY PREDICTED BY IDOCK:   -0.77 KCAL/MOL
REMARK 927      BINDING AFFINITY PREDICTED BY RF-SCORE:    0.00 PKD
ROOT
HETATM    1  O   UNL     1     -10.380   4.691  65.546  1.00  0.00    -0.235 OA 
HETATM    2  S   UNL     1      -8.804   4.912  65.810  1.00  0.00    -0.140 S  
HETATM    3  O   UNL     1      -8.728   6.211  66.792  1.00  0.00    -0.113 OA 
HETATM    4  O   UNL     1      -8.197   5.235  64.533  1.00  0.00    -0.123 OA 
HETATM    5  O   UNL     1      -8.371   3.753  66.557  1.00  0.00    -0.102 OA 
ENDROOT
BRANCH   3   6
HETATM    6  N   UNL     1      -8.914   7.507  66.168  1.00  0.00    -0.166 N  
HETATM    7  C   UNL     1      -7.712   8.299  66.434  1.00  0.00    -0.091 C  
HETATM    8  C   UNL     1      -7.975   8.738  67.861  1.00  0.00    -0.107 C  
HETATM    9  N   UNL     1      -9.368   9.148  67.751  1.00  0.00    -0.136 N  
HETATM   10  C   UNL     1      -9.506  10.476  67.117  1.00  0.00    -0.159 C  
HETATM   11  C   UNL     1      -9.961   8.089  66.977  1.00  0.00    -0.254 C  
HETATM   12  O   UNL     1     -11.114   7.706  67.107  1.00  0.00    -0.173 OA 
HETATM   13  C   UNL     1      -8.889  10.474  65.701  1.00  0.00    -0.197 C  
HETATM   14  C   UNL     1      -7.617   9.611  65.611  1.00  0.00    -0.107 C  
BRANCH  10  15
HETATM   15  C   UNL     1     -10.909  11.125  67.051  1.00  0.00    -0.284 C  
HETATM   16  O   UNL     1     -11.765  10.898  67.905  1.00  0.00    -0.557 OA 
HETATM   17  N   UNL     1     -11.152  11.898  65.947  1.00  0.00    -0.312 N  
HETATM   18  H   UNL     1     -10.434  11.968  65.227  1.00  0.00     0.000 HD 
BRANCH  17  19
HETATM   19  C   UNL     1     -12.407  12.626  65.764  1.00  0.00    -0.253 C  
HETATM   20  C   UNL     1     -12.284  14.119  66.096  1.00  0.00    -0.465 C  
HETATM   21  C   UNL     1     -11.415  14.843  65.074  1.00  0.00    -0.379 C  
HETATM   22  N   UNL     1     -11.913  14.657  63.709  1.00  0.00    -0.858 NA 
HETATM   23  H   UNL     1     -11.341  15.165  63.034  1.00  0.00     0.000 HD 
HETATM   24  C   UNL     1     -12.026  13.242  63.348  1.00  0.00    -0.427 C  
HETATM   25  C   UNL     1     -12.901  12.461  64.329  1.00  0.00    -0.356 C  
ENDBRANCH  17  19
ENDBRANCH  10  15
ENDBRANCH   3   6
TORSDOF 3
ENDMDL
MODEL       52
REMARK 921   NORMALIZED FREE ENERGY PREDICTED BY IDOCK:   -5.02 KCAL/MOL
REMARK 922        TOTAL FREE ENERGY PREDICTED BY IDOCK:   -6.76 KCAL/MOL
REMARK 923 INTER-LIGAND FREE ENERGY PREDICTED BY IDOCK:   -5.94 KCAL/MOL
REMARK 924 INTRA-LIGAND FREE ENERGY PREDICTED BY IDOCK:   -0.82 KCAL/MOL
REMARK 927      BINDING AFFINITY PREDICTED BY RF-SCORE:    0.00 PKD
ROOT
HETATM    1  O   UNL     1      -8.399  18.063  65.824  1.00  0.00    -0.508 OA 
HETATM    2  S   UNL     1      -9.918  18.190  66.353  1.00  0.00    -0.369 S  
HETATM    3  O   UNL     1     -10.049  17.045  67.506  1.00  0.00    -0.277 OA 
HETATM    4  O   UNL     1     -10.787  17.858  65.240  1.00  0.00    -0.614 OA 
HETATM    5  O   UNL     1      -9.999  19.485  66.988  1.00  0.00    -0.333 OA 
ENDROOT
BRANCH   3   6
HETATM    6  N   UNL     1     -10.210  15.678  67.049  1.00  0.00    -0.268 N  
HETATM    7  C   UNL     1     -11.427  15.149  67.666  1.00  0.00    -0.309 C  
HETATM    8  C   UNL     1     -10.918  14.824  69.056  1.00  0.00    -0.248 C  
HETATM    9  N   UNL     1      -9.666  14.160  68.723  1.00  0.00    -0.190 N  
HETATM   10  C   UNL     1      -9.880  12.769  68.269  1.00  0.00    -0.224 C  
HETATM   11  C   UNL     1      -9.109  15.006  67.700  1.00  0.00    -0.182 C  
HETATM   12  O   UNL     1      -7.911  15.187  67.535  1.00  0.00    -0.144 OA 
HETATM   13  C   UNL     1     -10.795  12.733  67.024  1.00  0.00    -0.282 C  
HETATM   14  C   UNL     1     -11.906  13.796  67.076  1.00  0.00    -0.445 C  
BRANCH  10  15
HETATM   15  C   UNL     1      -8.645  11.874  68.010  1.00  0.00    -0.168 C  
HETATM   16  O   UNL     1      -7.731  11.785  68.828  1.00  0.00    -0.130 OA 
HETATM   17  N   UNL     1      -8.606  11.259  66.788  1.00  0.00    -0.153 N  
HETATM   18  H   UNL     1      -9.349  11.451  66.116  1.00  0.00     0.000 HD 
BRANCH  17  19
HETATM   19  C   UNL     1      -7.537  10.335  66.411  1.00  0.00    -0.117 C  
HETATM   20  C   UNL     1      -7.777   8.907  66.916  1.00  0.00    -0.098 C  
HETATM   21  C   UNL     1      -8.948   8.253  66.190  1.00  0.00    -0.181 C  
HETATM   22  N   UNL     1      -8.759   8.263  64.737  1.00  0.00    -0.404 NA 
HETATM   23  H   UNL     1      -9.535   7.802  64.261  1.00  0.00     0.000 HD 
HETATM   24  C   UNL     1      -8.546   9.615  64.215  1.00  0.00    -0.191 C  
HETATM   25  C   UNL     1      -7.372  10.320  64.893  1.00  0.00    -0.110 C  
ENDBRANCH  17  19
ENDBRANCH  10  15
ENDBRANCH   3   6
TORSDOF 3
ENDMDL
MODEL       53
REMARK 921   NORMALIZED FREE ENERGY PREDICTED BY IDOCK:   -5.02 KCAL/MOL
REMARK 922        TOTAL FREE ENERGY PREDICTED BY IDOCK:   -6.76 KCAL/MOL
REMARK 923 INTER-LIGAND FREE ENERGY PREDICTED BY IDOCK:   -5.96 KCAL/MOL
REMARK 924 INTRA-LIGAND FREE ENERGY PREDICTED BY IDOCK:   -0.80 KCAL/MOL
REMARK 927      BINDING AFFINITY PREDICTED BY RF-SCORE:    0.00 PKD
ROOT
HETATM    1  O   UNL     1     -12.138   7.162  70.843  1.00  0.00    -0.338 OA 
HETATM    2  S   UNL     1     -10.830   6.572  70.105  1.00  0.00    -0.312 S  
HETATM    3  O   UNL     1      -9.956   7.889  69.703  1.00  0.00    -0.184 OA 
HETATM    4  O   UNL     1     -11.282   5.906  68.899  1.00  0.00    -0.291 OA 
HETATM    5  O   UNL     1     -10.108   5.842  71.122  1.00  0.00    -0.187 OA 
ENDROOT
BRANCH   3   6
HETATM    6  N   UNL     1     -10.404   8.636  68.544  1.00  0.00    -0.202 N  
HETATM    7  C   UNL     1      -9.243   8.840  67.677  1.00  0.00    -0.134 C  
HETATM    8  C   UNL     1      -8.558   9.990  68.389  1.00  0.00    -0.113 C  
HETATM    9  N   UNL     1      -9.704  10.851  68.647  1.00  0.00    -0.179 N  
HETATM   10  C   UNL     1     -10.119  11.596  67.440  1.00  0.00    -0.198 C  
HETATM   11  C   UNL     1     -10.708   9.930  69.113  1.00  0.00    -0.224 C  
HETATM   12  O   UNL     1     -11.565  10.208  69.938  1.00  0.00    -0.253 OA 
HETATM   13  C   UNL     1     -10.490  10.625  66.296  1.00  0.00    -0.268 C  
HETATM   14  C   UNL     1      -9.588   9.379  66.264  1.00  0.00    -0.297 C  
BRANCH  10  15
HETATM   15  C   UNL     1     -11.232  12.663  67.571  1.00  0.00    -0.288 C  
HETATM   16  O   UNL     1     -11.929  12.988  66.611  1.00  0.00    -0.399 OA 
HETATM   17  N   UNL     1     -11.332  13.266  68.796  1.00  0.00    -0.271 N  
HETATM   18  H   UNL     1     -10.660  13.020  69.523  1.00  0.00     0.000 HD 
BRANCH  17  19
HETATM   19  C   UNL     1     -12.369  14.252  69.099  1.00  0.00    -0.130 C  
HETATM   20  C   UNL     1     -12.876  14.159  70.543  1.00  0.00    -0.310 C  
HETATM   21  C   UNL     1     -11.806  14.599  71.536  1.00  0.00    -0.280 C  
HETATM   22  N   UNL     1     -11.319  15.950  71.245  1.00  0.00    -0.389 NA 
HETATM   23  H   UNL     1     -10.621  16.246  71.929  1.00  0.00     0.000 HD 
HETATM   24  C   UNL     1     -10.807  16.073  69.879  1.00  0.00    -0.351 C  
HETATM   25  C   UNL     1     -11.842  15.661  68.833  1.00  0.00    -0.368 C  
ENDBRANCH  17  19
ENDBRANCH  10  15
ENDBRANCH   3   6
TORSDOF 3
ENDMDL
MODEL       54
REMARK 921   NORMALIZED FREE ENERGY PREDICTED BY IDOCK:   -5.01 KCAL/MOL
REMARK 922        TOTAL FREE ENERGY PREDICTED BY IDOCK:   -6.75 KCAL/MOL
REMARK 923 INTER-LIGAND FREE ENERGY PREDICTED BY IDOCK:   -5.94 KCAL/MOL
REMARK 924 INTRA-LIGAND FREE ENERGY PREDICTED BY IDOCK:   -0.81 KCAL/MOL
REMARK 927      BINDING AFFINITY PREDICTED BY RF-SCORE:    0.00 PKD
ROOT
HETATM    1  O   UNL     1      -8.151  10.524  65.373  1.00  0.00    -0.155 OA 
HETATM    2  S   UNL     1      -9.316  10.084  66.398  1.00  0.00    -0.176 S  
HETATM    3  O   UNL     1     -10.447  11.251  66.262  1.00  0.00    -0.243 OA 
HETATM    4  O   UNL     1      -8.748  10.115  67.732  1.00  0.00    -0.122 OA 
HETATM    5  O   UNL     1      -9.862   8.859  65.860  1.00  0.00    -0.255 OA 
ENDROOT
BRANCH   3   6
HETATM    6  N   UNL     1     -10.173  12.502  66.943  1.00  0.00    -0.225 N  
HETATM    7  C   UNL     1     -11.267  12.737  67.886  1.00  0.00    -0.274 C  
HETATM    8  C   UNL     1     -12.337  13.263  66.949  1.00  0.00    -0.161 C  
HETATM    9  N   UNL     1     -11.552  14.204  66.164  1.00  0.00    -0.358 N  
HETATM   10  C   UNL     1     -11.305  15.465  66.896  1.00  0.00    -0.147 C  
HETATM   11  C   UNL     1     -10.345  13.471  65.884  1.00  0.00    -0.299 C  
HETATM   12  O   UNL     1      -9.689  13.594  64.860  1.00  0.00    -0.081 OA 
HETATM   13  C   UNL     1     -10.555  15.193  68.219  1.00  0.00    -0.243 C  
HETATM   14  C   UNL     1     -11.004  13.886  68.895  1.00  0.00    -0.290 C  
BRANCH  10  15
HETATM   15  C   UNL     1     -10.607  16.630  66.155  1.00  0.00    -0.215 C  
HETATM   16  O   UNL     1     -10.821  16.856  64.964  1.00  0.00    -0.666 OA 
HETATM   17  N   UNL     1      -9.688  17.332  66.887  1.00  0.00    -0.263 N  
HETATM   18  H   UNL     1      -9.486  17.032  67.841  1.00  0.00     0.000 HD 
BRANCH  17  19
HETATM   19  C   UNL     1      -8.985  18.496  66.351  1.00  0.00    -0.266 C  
HETATM   20  C   UNL     1      -9.339  19.796  67.083  1.00  0.00    -0.458 C  
HETATM   21  C   UNL     1      -8.790  19.799  68.505  1.00  0.00    -0.226 C  
HETATM   22  N   UNL     1      -7.343  19.570  68.528  1.00  0.00    -0.321 NA 
HETATM   23  H   UNL     1      -6.981  19.597  69.482  1.00  0.00     0.000 HD 
HETATM   24  C   UNL     1      -6.967  18.325  67.855  1.00  0.00    -0.211 C  
HETATM   25  C   UNL     1      -7.476  18.269  66.415  1.00  0.00    -0.284 C  
ENDBRANCH  17  19
ENDBRANCH  10  15
ENDBRANCH   3   6
TORSDOF 3
ENDMDL
MODEL       55
REMARK 921   NORMALIZED FREE ENERGY PREDICTED BY IDOCK:   -5.00 KCAL/MOL
REMARK 922        TOTAL FREE ENERGY PREDICTED BY IDOCK:   -6.75 KCAL/MOL
REMARK 923 INTER-LIGAND FREE ENERGY PREDICTED BY IDOCK:   -5.99 KCAL/MOL
REMARK 924 INTRA-LIGAND FREE ENERGY PREDICTED BY IDOCK:   -0.75 KCAL/MOL
REMARK 927      BINDING AFFINITY PREDICTED BY RF-SCORE:    0.00 PKD
ROOT
HETATM    1  O   UNL     1     -12.140  14.447  69.244  1.00  0.00    -0.322 OA 
HETATM    2  S   UNL     1     -10.844  14.587  68.293  1.00  0.00    -0.249 S  
HETATM    3  O   UNL     1     -10.708  13.134  67.566  1.00  0.00    -0.235 OA 
HETATM    4  O   UNL     1      -9.700  14.804  69.158  1.00  0.00    -0.207 OA 
HETATM    5  O   UNL     1     -11.204  15.564  67.291  1.00  0.00    -0.308 OA 
ENDROOT
BRANCH   3   6
HETATM    6  N   UNL     1     -10.141  12.061  68.361  1.00  0.00    -0.208 N  
HETATM    7  C   UNL     1      -8.785  11.818  67.867  1.00  0.00    -0.164 C  
HETATM    8  C   UNL     1      -9.080  10.998  66.626  1.00  0.00    -0.166 C  
HETATM    9  N   UNL     1     -10.068  10.072  67.161  1.00  0.00    -0.201 N  
HETATM   10  C   UNL     1      -9.443   8.993  67.956  1.00  0.00    -0.142 C  
HETATM   11  C   UNL     1     -10.927  10.922  67.942  1.00  0.00    -0.271 C  
HETATM   12  O   UNL     1     -12.126  10.738  68.090  1.00  0.00    -0.493 OA 
HETATM   13  C   UNL     1      -8.640   9.580  69.138  1.00  0.00    -0.140 C  
HETATM   14  C   UNL     1      -7.930  10.897  68.776  1.00  0.00    -0.139 C  
BRANCH  10  15
HETATM   15  C   UNL     1     -10.335   7.843  68.478  1.00  0.00    -0.200 C  
HETATM   16  O   UNL     1     -10.840   7.021  67.714  1.00  0.00    -0.228 OA 
HETATM   17  N   UNL     1     -10.584   7.851  69.825  1.00  0.00    -0.240 N  
HETATM   18  H   UNL     1     -10.215   8.616  70.389  1.00  0.00     0.000 HD 
BRANCH  17  19
HETATM   19  C   UNL     1     -11.361   6.801  70.483  1.00  0.00    -0.343 C  
HETATM   20  C   UNL     1     -10.586   6.102  71.607  1.00  0.00    -0.276 C  
HETATM   21  C   UNL     1     -10.365   7.037  72.791  1.00  0.00    -0.222 C  
HETATM   22  N   UNL     1     -11.628   7.583  73.295  1.00  0.00    -0.617 NA 
HETATM   23  H   UNL     1     -11.473   8.188  74.101  1.00  0.00     0.000 HD 
HETATM   24  C   UNL     1     -12.387   8.276  72.252  1.00  0.00    -0.356 C  
HETATM   25  C   UNL     1     -12.657   7.384  71.041  1.00  0.00    -0.264 C  
ENDBRANCH  17  19
ENDBRANCH  10  15
ENDBRANCH   3   6
TORSDOF 3
ENDMDL
MODEL       56
REMARK 921   NORMALIZED FREE ENERGY PREDICTED BY IDOCK:   -4.97 KCAL/MOL
REMARK 922        TOTAL FREE ENERGY PREDICTED BY IDOCK:   -6.71 KCAL/MOL
REMARK 923 INTER-LIGAND FREE ENERGY PREDICTED BY IDOCK:   -6.02 KCAL/MOL
REMARK 924 INTRA-LIGAND FREE ENERGY PREDICTED BY IDOCK:   -0.69 KCAL/MOL
REMARK 927      BINDING AFFINITY PREDICTED BY RF-SCORE:    0.00 PKD
ROOT
HETATM    1  O   UNL     1      -6.782  10.325  68.503  1.00  0.00    -0.056 OA 
HETATM    2  S   UNL     1      -8.054   9.725  67.712  1.00  0.00    -0.113 S  
HETATM    3  O   UNL     1      -8.924  11.034  67.278  1.00  0.00    -0.138 OA 
HETATM    4  O   UNL     1      -8.814   8.933  68.661  1.00  0.00    -0.136 OA 
HETATM    5  O   UNL     1      -7.516   9.121  66.515  1.00  0.00    -0.091 OA 
ENDROOT
BRANCH   3   6
HETATM    6  N   UNL     1      -9.726  11.654  68.315  1.00  0.00    -0.192 N  
HETATM    7  C   UNL     1     -11.103  11.193  68.139  1.00  0.00    -0.264 C  
HETATM    8  C   UNL     1     -11.554  12.082  66.997  1.00  0.00    -0.317 C  
HETATM    9  N   UNL     1     -11.041  13.366  67.454  1.00  0.00    -0.271 N  
HETATM   10  C   UNL     1     -11.895  13.961  68.504  1.00  0.00    -0.366 C  
HETATM   11  C   UNL     1      -9.718  13.044  67.919  1.00  0.00    -0.218 C  
HETATM   12  O   UNL     1      -8.763  13.804  67.853  1.00  0.00    -0.162 OA 
HETATM   13  C   UNL     1     -11.999  13.019  69.724  1.00  0.00    -0.377 C  
HETATM   14  C   UNL     1     -12.047  11.534  69.323  1.00  0.00    -0.344 C  
BRANCH  10  15
HETATM   15  C   UNL     1     -11.574  15.390  69.001  1.00  0.00    -0.347 C  
HETATM   16  O   UNL     1     -12.064  15.837  70.037  1.00  0.00    -0.365 OA 
HETATM   17  N   UNL     1     -10.779  16.140  68.176  1.00  0.00    -0.302 N  
HETATM   18  H   UNL     1     -10.484  15.744  67.284  1.00  0.00     0.000 HD 
BRANCH  17  19
HETATM   19  C   UNL     1     -10.337  17.488  68.530  1.00  0.00    -0.380 C  
HETATM   20  C   UNL     1      -8.811  17.641  68.508  1.00  0.00    -0.285 C  
HETATM   21  C   UNL     1      -8.266  17.556  67.086  1.00  0.00    -0.212 C  
HETATM   22  N   UNL     1      -8.897  18.542  66.204  1.00  0.00    -0.494 NA 
HETATM   23  H   UNL     1      -8.510  18.496  65.262  1.00  0.00     0.000 HD 
HETATM   24  C   UNL     1     -10.356  18.415  66.184  1.00  0.00    -0.407 C  
HETATM   25  C   UNL     1     -10.966  18.507  67.582  1.00  0.00    -0.185 C  
ENDBRANCH  17  19
ENDBRANCH  10  15
ENDBRANCH   3   6
TORSDOF 3
ENDMDL
MODEL       57
REMARK 921   NORMALIZED FREE ENERGY PREDICTED BY IDOCK:   -4.97 KCAL/MOL
REMARK 922        TOTAL FREE ENERGY PREDICTED BY IDOCK:   -6.71 KCAL/MOL
REMARK 923 INTER-LIGAND FREE ENERGY PREDICTED BY IDOCK:   -6.31 KCAL/MOL
REMARK 924 INTRA-LIGAND FREE ENERGY PREDICTED BY IDOCK:   -0.40 KCAL/MOL
REMARK 927      BINDING AFFINITY PREDICTED BY RF-SCORE:    0.00 PKD
ROOT
HETATM    1  O   UNL     1      -8.383   9.551  67.752  1.00  0.00    -0.117 OA 
HETATM    2  S   UNL     1      -9.930   9.678  67.315  1.00  0.00    -0.211 S  
HETATM    3  O   UNL     1     -10.137  11.262  66.988  1.00  0.00    -0.197 OA 
HETATM    4  O   UNL     1     -10.732   9.314  68.468  1.00  0.00    -0.209 OA 
HETATM    5  O   UNL     1     -10.044   8.941  66.078  1.00  0.00    -0.260 OA 
ENDROOT
BRANCH   3   6
HETATM    6  N   UNL     1     -10.276  12.147  68.129  1.00  0.00    -0.198 N  
HETATM    7  C   UNL     1     -11.706  12.388  68.327  1.00  0.00    -0.345 C  
HETATM    8  C   UNL     1     -11.968  13.424  67.251  1.00  0.00    -0.347 C  
HETATM    9  N   UNL     1     -10.828  14.304  67.459  1.00  0.00    -0.276 N  
HETATM   10  C   UNL     1     -11.018  15.191  68.627  1.00  0.00    -0.255 C  
HETATM   11  C   UNL     1      -9.730  13.387  67.622  1.00  0.00    -0.222 C  
HETATM   12  O   UNL     1      -8.584  13.616  67.265  1.00  0.00    -0.197 OA 
HETATM   13  C   UNL     1     -11.233  14.364  69.914  1.00  0.00    -0.226 C  
HETATM   14  C   UNL     1     -12.056  13.088  69.666  1.00  0.00    -0.304 C  
BRANCH  10  15
HETATM   15  C   UNL     1      -9.963  16.288  68.906  1.00  0.00    -0.248 C  
HETATM   16  O   UNL     1      -8.955  16.057  69.572  1.00  0.00    -0.222 OA 
HETATM   17  N   UNL     1     -10.267  17.536  68.433  1.00  0.00    -0.350 N  
HETATM   18  H   UNL     1     -11.165  17.683  67.973  1.00  0.00     0.000 HD 
BRANCH  17  19
HETATM   19  C   UNL     1      -9.349  18.667  68.564  1.00  0.00    -0.346 C  
HETATM   20  C   UNL     1      -8.121  18.546  67.654  1.00  0.00    -0.262 C  
HETATM   21  C   UNL     1      -8.503  18.696  66.185  1.00  0.00    -0.141 C  
HETATM   22  N   UNL     1      -9.212  19.954  65.935  1.00  0.00    -0.471 NA 
HETATM   23  H   UNL     1      -9.442  20.057  64.946  1.00  0.00     0.000 HD 
HETATM   24  C   UNL     1     -10.403  20.096  66.773  1.00  0.00    -0.374 C  
HETATM   25  C   UNL     1     -10.083  19.971  68.263  1.00  0.00    -0.531 C  
ENDBRANCH  17  19
ENDBRANCH  10  15
ENDBRANCH   3   6
TORSDOF 3
ENDMDL
MODEL       58
REMARK 921   NORMALIZED FREE ENERGY PREDICTED BY IDOCK:   -4.93 KCAL/MOL
REMARK 922        TOTAL FREE ENERGY PREDICTED BY IDOCK:   -6.66 KCAL/MOL
REMARK 923 INTER-LIGAND FREE ENERGY PREDICTED BY IDOCK:   -5.93 KCAL/MOL
REMARK 924 INTRA-LIGAND FREE ENERGY PREDICTED BY IDOCK:   -0.72 KCAL/MOL
REMARK 927      BINDING AFFINITY PREDICTED BY RF-SCORE:    0.00 PKD
ROOT
HETATM    1  O   UNL     1      -5.440  18.839  68.020  1.00  0.00    -0.172 OA 
HETATM    2  S   UNL     1      -6.726  19.616  68.606  1.00  0.00    -0.309 S  
HETATM    3  O   UNL     1      -7.891  18.479  68.693  1.00  0.00    -0.312 OA 
HETATM    4  O   UNL     1      -7.103  20.620  67.628  1.00  0.00    -0.310 OA 
HETATM    5  O   UNL     1      -6.366  20.000  69.951  1.00  0.00    -0.345 OA 
ENDROOT
BRANCH   3   6
HETATM    6  N   UNL     1      -8.542  18.120  67.447  1.00  0.00    -0.242 N  
HETATM    7  C   UNL     1      -9.885  18.701  67.471  1.00  0.00    -0.320 C  
HETATM    8  C   UNL     1     -10.607  17.703  68.355  1.00  0.00    -0.316 C  
HETATM    9  N   UNL     1     -10.131  16.455  67.775  1.00  0.00    -0.255 N  
HETATM   10  C   UNL     1     -10.827  16.128  66.513  1.00  0.00    -0.139 C  
HETATM   11  C   UNL     1      -8.722  16.694  67.596  1.00  0.00    -0.202 C  
HETATM   12  O   UNL     1      -7.862  15.830  67.687  1.00  0.00    -0.133 OA 
HETATM   13  C   UNL     1     -10.630  17.253  65.472  1.00  0.00    -0.136 C  
HETATM   14  C   UNL     1     -10.625  18.654  66.108  1.00  0.00    -0.409 C  
BRANCH  10  15
HETATM   15  C   UNL     1     -10.543  14.765  65.839  1.00  0.00    -0.314 C  
HETATM   16  O   UNL     1     -10.701  14.600  64.630  1.00  0.00    -0.393 OA 
HETATM   17  N   UNL     1     -10.183  13.750  66.684  1.00  0.00    -0.271 N  
HETATM   18  H   UNL     1     -10.164  13.928  67.687  1.00  0.00     0.000 HD 
BRANCH  17  19
HETATM   19  C   UNL     1      -9.825  12.418  66.197  1.00  0.00    -0.252 C  
HETATM   20  C   UNL     1      -8.699  11.769  67.011  1.00  0.00    -0.181 C  
HETATM   21  C   UNL     1      -9.167  11.411  68.417  1.00  0.00    -0.183 C  
HETATM   22  N   UNL     1     -10.350  10.547  68.392  1.00  0.00    -0.168 NA 
HETATM   23  H   UNL     1     -10.642  10.293  69.336  1.00  0.00     0.000 HD 
HETATM   24  C   UNL     1     -11.456  11.144  67.639  1.00  0.00    -0.250 C  
HETATM   25  C   UNL     1     -11.053  11.511  66.211  1.00  0.00    -0.321 C  
ENDBRANCH  17  19
ENDBRANCH  10  15
ENDBRANCH   3   6
TORSDOF 3
ENDMDL
MODEL       59
REMARK 921   NORMALIZED FREE ENERGY PREDICTED BY IDOCK:   -4.93 KCAL/MOL
REMARK 922        TOTAL FREE ENERGY PREDICTED BY IDOCK:   -6.66 KCAL/MOL
REMARK 923 INTER-LIGAND FREE ENERGY PREDICTED BY IDOCK:   -5.81 KCAL/MOL
REMARK 924 INTRA-LIGAND FREE ENERGY PREDICTED BY IDOCK:   -0.84 KCAL/MOL
REMARK 927      BINDING AFFINITY PREDICTED BY RF-SCORE:    0.00 PKD
ROOT
HETATM    1  O   UNL     1     -11.401   8.409  72.679  1.00  0.00    -0.372 OA 
HETATM    2  S   UNL     1     -11.282   6.964  71.972  1.00  0.00    -0.268 S  
HETATM    3  O   UNL     1     -10.090   7.140  70.873  1.00  0.00    -0.193 OA 
HETATM    4  O   UNL     1     -12.537   6.718  71.288  1.00  0.00    -0.353 OA 
HETATM    5  O   UNL     1     -10.819   6.065  73.004  1.00  0.00    -0.237 OA 
ENDROOT
BRANCH   3   6
HETATM    6  N   UNL     1     -10.436   7.832  69.646  1.00  0.00    -0.226 N  
HETATM    7  C   UNL     1     -10.195   6.906  68.538  1.00  0.00    -0.177 C  
HETATM    8  C   UNL     1      -8.690   7.017  68.400  1.00  0.00    -0.125 C  
HETATM    9  N   UNL     1      -8.532   8.463  68.471  1.00  0.00    -0.131 N  
HETATM   10  C   UNL     1      -8.888   9.122  67.196  1.00  0.00    -0.119 C  
HETATM   11  C   UNL     1      -9.399   8.835  69.558  1.00  0.00    -0.157 C  
HETATM   12  O   UNL     1      -9.185   9.767  70.319  1.00  0.00    -0.246 OA 
HETATM   13  C   UNL     1     -10.352   8.812  66.810  1.00  0.00    -0.328 C  
HETATM   14  C   UNL     1     -10.770   7.377  67.177  1.00  0.00    -0.400 C  
BRANCH  10  15
HETATM   15  C   UNL     1      -8.643  10.642  67.052  1.00  0.00    -0.128 C  
HETATM   16  O   UNL     1      -7.531  11.136  67.235  1.00  0.00    -0.106 OA 
HETATM   17  N   UNL     1      -9.753  11.399  66.786  1.00  0.00    -0.195 N  
HETATM   18  H   UNL     1     -10.663  10.940  66.742  1.00  0.00     0.000 HD 
BRANCH  17  19
HETATM   19  C   UNL     1      -9.681  12.843  66.564  1.00  0.00    -0.257 C  
HETATM   20  C   UNL     1     -10.653  13.329  65.482  1.00  0.00    -0.295 C  
HETATM   21  C   UNL     1     -12.101  13.213  65.946  1.00  0.00    -0.444 C  
HETATM   22  N   UNL     1     -12.327  13.930  67.204  1.00  0.00    -0.500 NA 
HETATM   23  H   UNL     1     -13.303  13.867  67.493  1.00  0.00     0.000 HD 
HETATM   24  C   UNL     1     -11.429  13.478  68.268  1.00  0.00    -0.310 C  
HETATM   25  C   UNL     1      -9.957  13.584  67.870  1.00  0.00    -0.245 C  
ENDBRANCH  17  19
ENDBRANCH  10  15
ENDBRANCH   3   6
TORSDOF 3
ENDMDL
MODEL       60
REMARK 921   NORMALIZED FREE ENERGY PREDICTED BY IDOCK:   -4.87 KCAL/MOL
REMARK 922        TOTAL FREE ENERGY PREDICTED BY IDOCK:   -6.59 KCAL/MOL
REMARK 923 INTER-LIGAND FREE ENERGY PREDICTED BY IDOCK:   -6.26 KCAL/MOL
REMARK 924 INTRA-LIGAND FREE ENERGY PREDICTED BY IDOCK:   -0.33 KCAL/MOL
REMARK 927      BINDING AFFINITY PREDICTED BY RF-SCORE:    0.00 PKD
ROOT
HETATM    1  O   UNL     1      -5.521  16.856  66.186  1.00  0.00    -0.308 OA 
HETATM    2  S   UNL     1      -6.681  17.911  66.565  1.00  0.00    -0.242 S  
HETATM    3  O   UNL     1      -7.858  17.005  67.239  1.00  0.00    -0.164 OA 
HETATM    4  O   UNL     1      -7.163  18.482  65.323  1.00  0.00    -0.504 OA 
HETATM    5  O   UNL     1      -6.115  18.755  67.592  1.00  0.00    -0.188 OA 
ENDROOT
BRANCH   3   6
HETATM    6  N   UNL     1      -8.695  16.248  66.328  1.00  0.00    -0.317 N  
HETATM    7  C   UNL     1      -9.969  16.959  66.210  1.00  0.00    -0.309 C  
HETATM    8  C   UNL     1     -10.651  16.529  67.494  1.00  0.00    -0.313 C  
HETATM    9  N   UNL     1     -10.364  15.103  67.472  1.00  0.00    -0.240 N  
HETATM   10  C   UNL     1     -11.246  14.374  66.537  1.00  0.00    -0.340 C  
HETATM   11  C   UNL     1      -8.976  15.053  67.092  1.00  0.00    -0.217 C  
HETATM   12  O   UNL     1      -8.188  14.201  67.475  1.00  0.00    -0.160 OA 
HETATM   13  C   UNL     1     -11.093  14.921  65.100  1.00  0.00    -0.399 C  
HETATM   14  C   UNL     1     -10.884  16.445  65.067  1.00  0.00    -0.289 C  
BRANCH  10  15
HETATM   15  C   UNL     1     -11.171  12.829  66.495  1.00  0.00    -0.307 C  
HETATM   16  O   UNL     1     -12.186  12.134  66.502  1.00  0.00    -0.584 OA 
HETATM   17  N   UNL     1      -9.910  12.296  66.529  1.00  0.00    -0.224 N  
HETATM   18  H   UNL     1      -9.112  12.925  66.621  1.00  0.00     0.000 HD 
BRANCH  17  19
HETATM   19  C   UNL     1      -9.667  10.857  66.438  1.00  0.00    -0.201 C  
HETATM   20  C   UNL     1      -9.813  10.317  65.010  1.00  0.00    -0.397 C  
HETATM   21  C   UNL     1      -8.692  10.824  64.109  1.00  0.00    -0.072 C  
HETATM   22  N   UNL     1      -7.370  10.499  64.652  1.00  0.00    -0.344 NA 
HETATM   23  H   UNL     1      -6.627  10.821  64.031  1.00  0.00     0.000 HD 
HETATM   24  C   UNL     1      -7.187  11.017  66.010  1.00  0.00    -0.014 C  
HETATM   25  C   UNL     1      -8.273  10.530  66.968  1.00  0.00    -0.125 C  
ENDBRANCH  17  19
ENDBRANCH  10  15
ENDBRANCH   3   6
TORSDOF 3
ENDMDL
MODEL       61
REMARK 921   NORMALIZED FREE ENERGY PREDICTED BY IDOCK:   -4.77 KCAL/MOL
REMARK 922        TOTAL FREE ENERGY PREDICTED BY IDOCK:   -6.47 KCAL/MOL
REMARK 923 INTER-LIGAND FREE ENERGY PREDICTED BY IDOCK:   -6.33 KCAL/MOL
REMARK 924 INTRA-LIGAND FREE ENERGY PREDICTED BY IDOCK:   -0.14 KCAL/MOL
REMARK 927      BINDING AFFINITY PREDICTED BY RF-SCORE:    0.00 PKD
ROOT
HETATM    1  O   UNL     1     -10.948  19.267  65.217  1.00  0.00    -0.487 OA 
HETATM    2  S   UNL     1      -9.856  19.352  66.401  1.00  0.00    -0.424 S  
HETATM    3  O   UNL     1      -9.384  17.809  66.637  1.00  0.00    -0.271 OA 
HETATM    4  O   UNL     1     -10.543  19.833  67.584  1.00  0.00    -0.429 OA 
HETATM    5  O   UNL     1      -8.742  20.087  65.848  1.00  0.00    -0.309 OA 
ENDROOT
BRANCH   3   6
HETATM    6  N   UNL     1     -10.291  16.961  67.388  1.00  0.00    -0.303 N  
HETATM    7  C   UNL     1      -9.977  17.132  68.807  1.00  0.00    -0.315 C  
HETATM    8  C   UNL     1      -8.749  16.251  68.932  1.00  0.00    -0.253 C  
HETATM    9  N   UNL     1      -9.201  15.076  68.202  1.00  0.00    -0.180 N  
HETATM   10  C   UNL     1     -10.115  14.240  69.009  1.00  0.00    -0.123 C  
HETATM   11  C   UNL     1      -9.833  15.636  67.036  1.00  0.00    -0.233 C  
HETATM   12  O   UNL     1      -9.843  15.102  65.937  1.00  0.00    -0.295 OA 
HETATM   13  C   UNL     1     -11.358  15.049  69.443  1.00  0.00    -0.314 C  
HETATM   14  C   UNL     1     -11.024  16.515  69.771  1.00  0.00    -0.292 C  
BRANCH  10  15
HETATM   15  C   UNL     1     -10.578  12.879  68.438  1.00  0.00    -0.253 C  
HETATM   16  O   UNL     1     -11.323  12.811  67.461  1.00  0.00    -0.276 OA 
HETATM   17  N   UNL     1     -10.168  11.774  69.134  1.00  0.00    -0.418 N  
HETATM   18  H   UNL     1      -9.632  11.903  69.991  1.00  0.00     0.000 HD 
BRANCH  17  19
HETATM   19  C   UNL     1     -10.473  10.414  68.691  1.00  0.00    -0.196 C  
HETATM   20  C   UNL     1      -9.260   9.699  68.082  1.00  0.00    -0.130 C  
HETATM   21  C   UNL     1      -8.207   9.394  69.142  1.00  0.00    -0.112 C  
HETATM   22  N   UNL     1      -8.764   8.615  70.251  1.00  0.00    -0.139 NA 
HETATM   23  H   UNL     1      -8.048   8.394  70.943  1.00  0.00     0.000 HD 
HETATM   24  C   UNL     1      -9.914   9.276  70.871  1.00  0.00    -0.297 C  
HETATM   25  C   UNL     1     -11.015   9.595  69.860  1.00  0.00    -0.281 C  
ENDBRANCH  17  19
ENDBRANCH  10  15
ENDBRANCH   3   6
TORSDOF 3
ENDMDL
MODEL       62
REMARK 921   NORMALIZED FREE ENERGY PREDICTED BY IDOCK:   -4.77 KCAL/MOL
REMARK 922        TOTAL FREE ENERGY PREDICTED BY IDOCK:   -6.47 KCAL/MOL
REMARK 923 INTER-LIGAND FREE ENERGY PREDICTED BY IDOCK:   -5.65 KCAL/MOL
REMARK 924 INTRA-LIGAND FREE ENERGY PREDICTED BY IDOCK:   -0.82 KCAL/MOL
REMARK 927      BINDING AFFINITY PREDICTED BY RF-SCORE:    0.00 PKD
ROOT
HETATM    1  O   UNL     1     -12.168  12.266  65.844  1.00  0.00    -0.634 OA 
HETATM    2  S   UNL     1     -10.655  12.805  65.693  1.00  0.00    -0.280 S  
HETATM    3  O   UNL     1      -9.725  11.478  65.879  1.00  0.00    -0.218 OA 
HETATM    4  O   UNL     1     -10.415  13.721  66.791  1.00  0.00    -0.267 OA 
HETATM    5  O   UNL     1     -10.539  13.251  64.324  1.00  0.00    -0.414 OA 
ENDROOT
BRANCH   3   6
HETATM    6  N   UNL     1      -9.534  11.005  67.237  1.00  0.00    -0.163 N  
HETATM    7  C   UNL     1      -8.117  11.172  67.565  1.00  0.00    -0.119 C  
HETATM    8  C   UNL     1      -7.523   9.968  66.861  1.00  0.00    -0.095 C  
HETATM    9  N   UNL     1      -8.469   8.939  67.268  1.00  0.00    -0.114 N  
HETATM   10  C   UNL     1      -8.231   8.484  68.654  1.00  0.00    -0.122 C  
HETATM   11  C   UNL     1      -9.746   9.582  67.098  1.00  0.00    -0.171 C  
HETATM   12  O   UNL     1     -10.770   9.001  66.772  1.00  0.00    -0.186 OA 
HETATM   13  C   UNL     1      -8.342   9.665  69.645  1.00  0.00    -0.173 C  
HETATM   14  C   UNL     1      -7.783  10.976  69.068  1.00  0.00    -0.132 C  
BRANCH  10  15
HETATM   15  C   UNL     1      -9.057   7.294  69.198  1.00  0.00    -0.137 C  
HETATM   16  O   UNL     1      -9.025   6.189  68.659  1.00  0.00    -0.126 OA 
HETATM   17  N   UNL     1      -9.874   7.576  70.259  1.00  0.00    -0.183 N  
HETATM   18  H   UNL     1      -9.927   8.537  70.598  1.00  0.00     0.000 HD 
BRANCH  17  19
HETATM   19  C   UNL     1     -10.674   6.549  70.925  1.00  0.00    -0.242 C  
HETATM   20  C   UNL     1     -10.324   6.389  72.409  1.00  0.00    -0.210 C  
HETATM   21  C   UNL     1     -10.754   7.610  73.215  1.00  0.00    -0.350 C  
HETATM   22  N   UNL     1     -12.182   7.895  73.047  1.00  0.00    -0.587 NA 
HETATM   23  H   UNL     1     -12.466   8.698  73.609  1.00  0.00     0.000 HD 
HETATM   24  C   UNL     1     -12.551   8.074  71.642  1.00  0.00    -0.322 C  
HETATM   25  C   UNL     1     -12.160   6.872  70.782  1.00  0.00    -0.400 C  
ENDBRANCH  17  19
ENDBRANCH  10  15
ENDBRANCH   3   6
TORSDOF 3
ENDMDL
MODEL       63
REMARK 921   NORMALIZED FREE ENERGY PREDICTED BY IDOCK:   -4.75 KCAL/MOL
REMARK 922        TOTAL FREE ENERGY PREDICTED BY IDOCK:   -6.44 KCAL/MOL
REMARK 923 INTER-LIGAND FREE ENERGY PREDICTED BY IDOCK:   -5.72 KCAL/MOL
REMARK 924 INTRA-LIGAND FREE ENERGY PREDICTED BY IDOCK:   -0.72 KCAL/MOL
REMARK 927      BINDING AFFINITY PREDICTED BY RF-SCORE:    0.00 PKD
ROOT
HETATM    1  O   UNL     1      -6.841  10.450  70.635  1.00  0.00    -0.328 OA 
HETATM    2  S   UNL     1      -7.954   9.335  70.284  1.00  0.00    -0.163 S  
HETATM    3  O   UNL     1      -8.420   9.683  68.761  1.00  0.00    -0.117 OA 
HETATM    4  O   UNL     1      -9.068   9.542  71.189  1.00  0.00    -0.239 OA 
HETATM    5  O   UNL     1      -7.246   8.075  70.265  1.00  0.00    -0.051 OA 
ENDROOT
BRANCH   3   6
HETATM    6  N   UNL     1      -9.333  10.798  68.601  1.00  0.00    -0.177 N  
HETATM    7  C   UNL     1     -10.656  10.244  68.311  1.00  0.00    -0.221 C  
HETATM    8  C   UNL     1     -10.506   9.911  66.840  1.00  0.00    -0.215 C  
HETATM    9  N   UNL     1      -9.871  11.132  66.364  1.00  0.00    -0.205 N  
HETATM   10  C   UNL     1     -10.842  12.236  66.209  1.00  0.00    -0.278 C  
HETATM   11  C   UNL     1      -8.873  11.396  67.367  1.00  0.00    -0.150 C  
HETATM   12  O   UNL     1      -7.793  11.921  67.140  1.00  0.00    -0.155 OA 
HETATM   13  C   UNL     1     -11.539  12.545  67.553  1.00  0.00    -0.424 C  
HETATM   14  C   UNL     1     -11.811  11.278  68.383  1.00  0.00    -0.331 C  
BRANCH  10  15
HETATM   15  C   UNL     1     -10.361  13.565  65.578  1.00  0.00    -0.300 C  
HETATM   16  O   UNL     1     -10.570  13.828  64.395  1.00  0.00    -0.418 OA 
HETATM   17  N   UNL     1      -9.629  14.380  66.399  1.00  0.00    -0.290 N  
HETATM   18  H   UNL     1      -9.408  14.059  67.341  1.00  0.00     0.000 HD 
BRANCH  17  19
HETATM   19  C   UNL     1      -9.151  15.694  65.971  1.00  0.00    -0.311 C  
HETATM   20  C   UNL     1     -10.153  16.818  66.268  1.00  0.00    -0.338 C  
HETATM   21  C   UNL     1     -10.280  17.066  67.767  1.00  0.00    -0.312 C  
HETATM   22  N   UNL     1      -8.981  17.356  68.380  1.00  0.00    -0.271 NA 
HETATM   23  H   UNL     1      -9.078  17.544  69.378  1.00  0.00     0.000 HD 
HETATM   24  C   UNL     1      -8.002  16.294  68.135  1.00  0.00    -0.157 C  
HETATM   25  C   UNL     1      -7.818  16.008  66.645  1.00  0.00    -0.266 C  
ENDBRANCH  17  19
ENDBRANCH  10  15
ENDBRANCH   3   6
TORSDOF 3
ENDMDL
MODEL       64
REMARK 921   NORMALIZED FREE ENERGY PREDICTED BY IDOCK:   -4.74 KCAL/MOL
REMARK 922        TOTAL FREE ENERGY PREDICTED BY IDOCK:   -6.43 KCAL/MOL
REMARK 923 INTER-LIGAND FREE ENERGY PREDICTED BY IDOCK:   -5.62 KCAL/MOL
REMARK 924 INTRA-LIGAND FREE ENERGY PREDICTED BY IDOCK:   -0.82 KCAL/MOL
REMARK 927      BINDING AFFINITY PREDICTED BY RF-SCORE:    0.00 PKD
ROOT
HETATM    1  O   UNL     1      -8.793   5.870  65.705  1.00  0.00    -0.151 OA 
HETATM    2  S   UNL     1      -9.073   5.559  67.263  1.00  0.00    -0.110 S  
HETATM    3  O   UNL     1      -9.896   6.859  67.801  1.00  0.00    -0.130 OA 
HETATM    4  O   UNL     1      -7.784   5.496  67.925  1.00  0.00    -0.090 OA 
HETATM    5  O   UNL     1      -9.962   4.421  67.276  1.00  0.00    -0.183 OA 
ENDROOT
BRANCH   3   6
HETATM    6  N   UNL     1      -9.119   8.054  68.068  1.00  0.00    -0.130 N  
HETATM    7  C   UNL     1      -9.433   8.486  69.431  1.00  0.00    -0.161 C  
HETATM    8  C   UNL     1     -10.766   9.173  69.209  1.00  0.00    -0.183 C  
HETATM    9  N   UNL     1     -10.456   9.956  68.021  1.00  0.00    -0.208 N  
HETATM   10  C   UNL     1      -9.670  11.166  68.344  1.00  0.00    -0.191 C  
HETATM   11  C   UNL     1      -9.737   9.023  67.192  1.00  0.00    -0.181 C  
HETATM   12  O   UNL     1      -9.777   9.018  65.971  1.00  0.00    -0.265 OA 
HETATM   13  C   UNL     1      -8.342  10.788  69.037  1.00  0.00    -0.138 C  
HETATM   14  C   UNL     1      -8.490   9.586  69.986  1.00  0.00    -0.210 C  
BRANCH  10  15
HETATM   15  C   UNL     1      -9.376  12.184  67.217  1.00  0.00    -0.183 C  
HETATM   16  O   UNL     1      -8.445  12.983  67.299  1.00  0.00    -0.188 OA 
HETATM   17  N   UNL     1     -10.261  12.184  66.173  1.00  0.00    -0.222 N  
HETATM   18  H   UNL     1     -11.069  11.562  66.212  1.00  0.00     0.000 HD 
BRANCH  17  19
HETATM   19  C   UNL     1     -10.091  13.045  65.003  1.00  0.00    -0.215 C  
HETATM   20  C   UNL     1     -10.567  12.386  63.703  1.00  0.00    -0.481 C  
HETATM   21  C   UNL     1     -12.084  12.227  63.686  1.00  0.00    -0.554 C  
HETATM   22  N   UNL     1     -12.765  13.508  63.897  1.00  0.00    -0.622 NA 
HETATM   23  H   UNL     1     -13.779  13.396  63.859  1.00  0.00     0.000 HD 
HETATM   24  C   UNL     1     -12.350  14.158  65.141  1.00  0.00    -0.451 C  
HETATM   25  C   UNL     1     -10.836  14.361  65.212  1.00  0.00    -0.370 C  
ENDBRANCH  17  19
ENDBRANCH  10  15
ENDBRANCH   3   6
TORSDOF 3
ENDMDL
MODEL       65
REMARK 921   NORMALIZED FREE ENERGY PREDICTED BY IDOCK:   -4.74 KCAL/MOL
REMARK 922        TOTAL FREE ENERGY PREDICTED BY IDOCK:   -6.43 KCAL/MOL
REMARK 923 INTER-LIGAND FREE ENERGY PREDICTED BY IDOCK:   -5.76 KCAL/MOL
REMARK 924 INTRA-LIGAND FREE ENERGY PREDICTED BY IDOCK:   -0.68 KCAL/MOL
REMARK 927      BINDING AFFINITY PREDICTED BY RF-SCORE:    0.00 PKD
ROOT
HETATM    1  O   UNL     1      -9.741   3.436  69.926  1.00  0.00    -0.161 OA 
HETATM    2  S   UNL     1      -9.468   3.747  71.485  1.00  0.00    -0.161 S  
HETATM    3  O   UNL     1     -10.473   4.982  71.840  1.00  0.00    -0.209 OA 
HETATM    4  O   UNL     1      -8.094   4.195  71.599  1.00  0.00    -0.082 OA 
HETATM    5  O   UNL     1      -9.921   2.575  72.198  1.00  0.00    -0.149 OA 
ENDROOT
BRANCH   3   6
HETATM    6  N   UNL     1     -10.063   6.300  71.395  1.00  0.00    -0.189 N  
HETATM    7  C   UNL     1      -9.508   7.002  72.553  1.00  0.00    -0.142 C  
HETATM    8  C   UNL     1     -10.780   7.428  73.259  1.00  0.00    -0.391 C  
HETATM    9  N   UNL     1     -11.544   7.935  72.128  1.00  0.00    -0.306 N  
HETATM   10  C   UNL     1     -11.096   9.282  71.716  1.00  0.00    -0.327 C  
HETATM   11  C   UNL     1     -11.331   6.936  71.114  1.00  0.00    -0.290 C  
HETATM   12  O   UNL     1     -12.156   6.630  70.266  1.00  0.00    -0.350 OA 
HETATM   13  C   UNL     1      -9.601   9.266  71.323  1.00  0.00    -0.272 C  
HETATM   14  C   UNL     1      -8.768   8.320  72.206  1.00  0.00    -0.264 C  
BRANCH  10  15
HETATM   15  C   UNL     1     -11.893  10.027  70.620  1.00  0.00    -0.325 C  
HETATM   16  O   UNL     1     -13.108  10.202  70.714  1.00  0.00    -0.369 OA 
HETATM   17  N   UNL     1     -11.175  10.405  69.518  1.00  0.00    -0.253 N  
HETATM   18  H   UNL     1     -10.191  10.145  69.459  1.00  0.00     0.000 HD 
BRANCH  17  19
HETATM   19  C   UNL     1     -11.769  11.169  68.421  1.00  0.00    -0.279 C  
HETATM   20  C   UNL     1     -11.732  12.683  68.660  1.00  0.00    -0.364 C  
HETATM   21  C   UNL     1     -10.306  13.219  68.602  1.00  0.00    -0.196 C  
HETATM   22  N   UNL     1      -9.650  12.879  67.337  1.00  0.00    -0.198 NA 
HETATM   23  H   UNL     1      -8.705  13.261  67.296  1.00  0.00     0.000 HD 
HETATM   24  C   UNL     1      -9.648  11.437  67.083  1.00  0.00    -0.179 C  
HETATM   25  C   UNL     1     -11.055  10.841  67.112  1.00  0.00    -0.297 C  
ENDBRANCH  17  19
ENDBRANCH  10  15
ENDBRANCH   3   6
TORSDOF 3
ENDMDL
MODEL       66
REMARK 921   NORMALIZED FREE ENERGY PREDICTED BY IDOCK:   -4.72 KCAL/MOL
REMARK 922        TOTAL FREE ENERGY PREDICTED BY IDOCK:   -6.42 KCAL/MOL
REMARK 923 INTER-LIGAND FREE ENERGY PREDICTED BY IDOCK:   -5.60 KCAL/MOL
REMARK 924 INTRA-LIGAND FREE ENERGY PREDICTED BY IDOCK:   -0.82 KCAL/MOL
REMARK 927      BINDING AFFINITY PREDICTED BY RF-SCORE:    0.00 PKD
ROOT
HETATM    1  O   UNL     1      -6.948   8.507  72.711  1.00  0.00    -0.186 OA 
HETATM    2  S   UNL     1      -8.050   7.339  72.864  1.00  0.00    -0.109 S  
HETATM    3  O   UNL     1      -9.145   7.651  71.697  1.00  0.00    -0.132 OA 
HETATM    4  O   UNL     1      -8.671   7.504  74.165  1.00  0.00    -0.209 OA 
HETATM    5  O   UNL     1      -7.364   6.113  72.527  1.00  0.00    -0.084 OA 
ENDROOT
BRANCH   3   6
HETATM    6  N   UNL     1     -10.087   8.722  71.960  1.00  0.00    -0.332 N  
HETATM    7  C   UNL     1     -11.424   8.129  72.005  1.00  0.00    -0.320 C  
HETATM    8  C   UNL     1     -11.716   7.981  70.524  1.00  0.00    -0.071 C  
HETATM    9  N   UNL     1     -11.279   9.285  70.046  1.00  0.00    -0.210 N  
HETATM   10  C   UNL     1     -12.274  10.341  70.329  1.00  0.00    -0.221 C  
HETATM   11  C   UNL     1     -10.031   9.486  70.735  1.00  0.00    -0.264 C  
HETATM   12  O   UNL     1      -9.081  10.097  70.269  1.00  0.00    -0.034 OA 
HETATM   13  C   UNL     1     -12.542  10.447  71.848  1.00  0.00    -0.387 C  
HETATM   14  C   UNL     1     -12.525   9.078  72.548  1.00  0.00    -0.309 C  
BRANCH  10  15
HETATM   15  C   UNL     1     -12.033  11.760  69.763  1.00  0.00    -0.322 C  
HETATM   16  O   UNL     1     -11.682  11.937  68.597  1.00  0.00    -0.283 OA 
HETATM   17  N   UNL     1     -12.159  12.786  70.661  1.00  0.00    -0.509 N  
HETATM   18  H   UNL     1     -12.357  12.565  71.636  1.00  0.00     0.000 HD 
BRANCH  17  19
HETATM   19  C   UNL     1     -12.021  14.189  70.271  1.00  0.00    -0.334 C  
HETATM   20  C   UNL     1     -13.360  14.934  70.240  1.00  0.00     0.124 C  
HETATM   21  C   UNL     1     -13.926  15.114  71.645  1.00  0.00    -0.523 C  
HETATM   22  N   UNL     1     -12.975  15.793  72.530  1.00  0.00    -0.449 NA 
HETATM   23  H   UNL     1     -13.371  15.931  73.460  1.00  0.00     0.000 HD 
HETATM   24  C   UNL     1     -11.689  15.098  72.600  1.00  0.00    -0.362 C  
HETATM   25  C   UNL     1     -11.060  14.901  71.220  1.00  0.00    -0.078 C  
ENDBRANCH  17  19
ENDBRANCH  10  15
ENDBRANCH   3   6
TORSDOF 3
ENDMDL
MODEL       67
REMARK 921   NORMALIZED FREE ENERGY PREDICTED BY IDOCK:   -4.68 KCAL/MOL
REMARK 922        TOTAL FREE ENERGY PREDICTED BY IDOCK:   -6.37 KCAL/MOL
REMARK 923 INTER-LIGAND FREE ENERGY PREDICTED BY IDOCK:   -5.54 KCAL/MOL
REMARK 924 INTRA-LIGAND FREE ENERGY PREDICTED BY IDOCK:   -0.82 KCAL/MOL
REMARK 927      BINDING AFFINITY PREDICTED BY RF-SCORE:    0.00 PKD
ROOT
HETATM    1  O   UNL     1      -9.072   5.648  65.528  1.00  0.00    -0.144 OA 
HETATM    2  S   UNL     1      -7.823   5.785  66.539  1.00  0.00    -0.101 S  
HETATM    3  O   UNL     1      -8.369   6.741  67.742  1.00  0.00    -0.118 OA 
HETATM    4  O   UNL     1      -6.764   6.468  65.822  1.00  0.00    -0.046 OA 
HETATM    5  O   UNL     1      -7.612   4.459  67.074  1.00  0.00    -0.083 OA 
ENDROOT
BRANCH   3   6
HETATM    6  N   UNL     1      -8.435   8.162  67.461  1.00  0.00    -0.126 N  
HETATM    7  C   UNL     1      -7.689   8.852  68.514  1.00  0.00    -0.098 C  
HETATM    8  C   UNL     1      -8.706   8.835  69.638  1.00  0.00    -0.136 C  
HETATM    9  N   UNL     1      -9.900   9.240  68.910  1.00  0.00    -0.161 N  
HETATM   10  C   UNL     1      -9.926  10.695  68.654  1.00  0.00    -0.181 C  
HETATM   11  C   UNL     1      -9.830   8.457  67.703  1.00  0.00    -0.173 C  
HETATM   12  O   UNL     1     -10.805   8.037  67.099  1.00  0.00    -0.278 OA 
HETATM   13  C   UNL     1      -8.689  11.130  67.837  1.00  0.00    -0.136 C  
HETATM   14  C   UNL     1      -7.419  10.353  68.226  1.00  0.00    -0.090 C  
BRANCH  10  15
HETATM   15  C   UNL     1     -11.191  11.315  68.016  1.00  0.00    -0.287 C  
HETATM   16  O   UNL     1     -12.282  11.282  68.585  1.00  0.00    -0.562 OA 
HETATM   17  N   UNL     1     -11.029  11.827  66.757  1.00  0.00    -0.274 N  
HETATM   18  H   UNL     1     -10.121  11.737  66.301  1.00  0.00     0.000 HD 
BRANCH  17  19
HETATM   19  C   UNL     1     -12.113  12.499  66.040  1.00  0.00    -0.321 C  
HETATM   20  C   UNL     1     -12.274  13.969  66.445  1.00  0.00    -0.492 C  
HETATM   21  C   UNL     1     -11.093  14.808  65.968  1.00  0.00    -0.330 C  
HETATM   22  N   UNL     1     -10.892  14.688  64.521  1.00  0.00    -0.625 NA 
HETATM   23  H   UNL     1     -10.116  15.271  64.207  1.00  0.00     0.000 HD 
HETATM   24  C   UNL     1     -10.715  13.298  64.099  1.00  0.00    -0.326 C  
HETATM   25  C   UNL     1     -11.878  12.406  64.535  1.00  0.00    -0.452 C  
ENDBRANCH  17  19
ENDBRANCH  10  15
ENDBRANCH   3   6
TORSDOF 3
ENDMDL
MODEL       68
REMARK 921   NORMALIZED FREE ENERGY PREDICTED BY IDOCK:   -4.67 KCAL/MOL
REMARK 922        TOTAL FREE ENERGY PREDICTED BY IDOCK:   -6.36 KCAL/MOL
REMARK 923 INTER-LIGAND FREE ENERGY PREDICTED BY IDOCK:   -5.49 KCAL/MOL
REMARK 924 INTRA-LIGAND FREE ENERGY PREDICTED BY IDOCK:   -0.87 KCAL/MOL
REMARK 927      BINDING AFFINITY PREDICTED BY RF-SCORE:    0.00 PKD
ROOT
HETATM    1  O   UNL     1      -8.648  10.969  67.080  1.00  0.00    -0.132 OA 
HETATM    2  S   UNL     1      -8.378   9.920  65.884  1.00  0.00    -0.127 S  
HETATM    3  O   UNL     1      -9.449   8.718  66.142  1.00  0.00    -0.218 OA 
HETATM    4  O   UNL     1      -7.031   9.412  66.057  1.00  0.00    -0.087 OA 
HETATM    5  O   UNL     1      -8.754  10.611  64.672  1.00  0.00    -0.184 OA 
ENDROOT
BRANCH   3   6
HETATM    6  N   UNL     1      -9.122   7.771  67.190  1.00  0.00    -0.130 N  
HETATM    7  C   UNL     1      -9.165   6.432  66.601  1.00  0.00    -0.151 C  
HETATM    8  C   UNL     1     -10.660   6.182  66.581  1.00  0.00    -0.228 C  
HETATM    9  N   UNL     1     -11.014   6.634  67.919  1.00  0.00    -0.269 N  
HETATM   10  C   UNL     1     -10.669   5.633  68.951  1.00  0.00    -0.209 C  
HETATM   11  C   UNL     1     -10.276   7.862  68.056  1.00  0.00    -0.208 C  
HETATM   12  O   UNL     1     -10.661   8.827  68.700  1.00  0.00    -0.208 OA 
HETATM   13  C   UNL     1      -9.155   5.323  68.929  1.00  0.00    -0.136 C  
HETATM   14  C   UNL     1      -8.573   5.318  67.505  1.00  0.00    -0.104 C  
BRANCH  10  15
HETATM   15  C   UNL     1     -11.106   5.893  70.412  1.00  0.00    -0.283 C  
HETATM   16  O   UNL     1     -10.605   5.278  71.353  1.00  0.00    -0.225 OA 
HETATM   17  N   UNL     1     -12.131   6.786  70.575  1.00  0.00    -0.561 N  
HETATM   18  H   UNL     1     -12.569   7.188  69.747  1.00  0.00     0.000 HD 
BRANCH  17  19
HETATM   19  C   UNL     1     -12.620   7.183  71.895  1.00  0.00    -0.293 C  
HETATM   20  C   UNL     1     -11.746   8.254  72.557  1.00  0.00    -0.451 C  
HETATM   21  C   UNL     1     -11.858   9.589  71.830  1.00  0.00    -0.360 C  
HETATM   22  N   UNL     1     -13.249  10.041  71.738  1.00  0.00    -0.424 NA 
HETATM   23  H   UNL     1     -13.313  10.946  71.271  1.00  0.00     0.000 HD 
HETATM   24  C   UNL     1     -14.112   9.051  71.091  1.00  0.00     0.010 C  
HETATM   25  C   UNL     1     -14.056   7.690  71.786  1.00  0.00    -0.510 C  
ENDBRANCH  17  19
ENDBRANCH  10  15
ENDBRANCH   3   6
TORSDOF 3
ENDMDL
MODEL       69
REMARK 921   NORMALIZED FREE ENERGY PREDICTED BY IDOCK:   -4.66 KCAL/MOL
REMARK 922        TOTAL FREE ENERGY PREDICTED BY IDOCK:   -6.34 KCAL/MOL
REMARK 923 INTER-LIGAND FREE ENERGY PREDICTED BY IDOCK:   -6.18 KCAL/MOL
REMARK 924 INTRA-LIGAND FREE ENERGY PREDICTED BY IDOCK:   -0.16 KCAL/MOL
REMARK 927      BINDING AFFINITY PREDICTED BY RF-SCORE:    0.00 PKD
ROOT
HETATM    1  O   UNL     1     -13.114  11.962  64.272  1.00  0.00    -0.578 OA 
HETATM    2  S   UNL     1     -12.120  13.071  64.894  1.00  0.00    -0.441 S  
HETATM    3  O   UNL     1     -11.137  12.231  65.887  1.00  0.00    -0.296 OA 
HETATM    4  O   UNL     1     -12.933  13.983  65.677  1.00  0.00    -0.608 OA 
HETATM    5  O   UNL     1     -11.336  13.554  63.782  1.00  0.00    -0.272 OA 
ENDROOT
BRANCH   3   6
HETATM    6  N   UNL     1     -11.687  11.847  67.173  1.00  0.00    -0.286 N  
HETATM    7  C   UNL     1     -11.281  12.864  68.145  1.00  0.00    -0.270 C  
HETATM    8  C   UNL     1      -9.852  12.438  68.417  1.00  0.00    -0.198 C  
HETATM    9  N   UNL     1     -10.038  11.003  68.577  1.00  0.00    -0.183 N  
HETATM   10  C   UNL     1     -10.593  10.661  69.904  1.00  0.00    -0.151 C  
HETATM   11  C   UNL     1     -10.922  10.663  67.493  1.00  0.00    -0.310 C  
HETATM   12  O   UNL     1     -10.903   9.595  66.900  1.00  0.00    -0.167 OA 
HETATM   13  C   UNL     1     -11.957  11.354  70.123  1.00  0.00    -0.460 C  
HETATM   14  C   UNL     1     -12.008  12.765  69.512  1.00  0.00    -0.338 C  
BRANCH  10  15
HETATM   15  C   UNL     1     -10.721   9.170  70.294  1.00  0.00    -0.231 C  
HETATM   16  O   UNL     1     -11.389   8.384  69.624  1.00  0.00     0.009 OA 
HETATM   17  N   UNL     1     -10.110   8.809  71.465  1.00  0.00    -0.272 N  
HETATM   18  H   UNL     1      -9.653   9.529  72.024  1.00  0.00     0.000 HD 
BRANCH  17  19
HETATM   19  C   UNL     1     -10.089   7.427  71.943  1.00  0.00    -0.178 C  
HETATM   20  C   UNL     1      -8.878   6.637  71.430  1.00  0.00    -0.139 C  
HETATM   21  C   UNL     1      -7.582   7.143  72.054  1.00  0.00    -0.090 C  
HETATM   22  N   UNL     1      -7.638   7.114  73.518  1.00  0.00    -0.088 NA 
HETATM   23  H   UNL     1      -6.758   7.431  73.927  1.00  0.00     0.000 HD 
HETATM   24  C   UNL     1      -8.771   7.875  74.046  1.00  0.00    -0.246 C  
HETATM   25  C   UNL     1     -10.106   7.403  73.469  1.00  0.00    -0.390 C  
ENDBRANCH  17  19
ENDBRANCH  10  15
ENDBRANCH   3   6
TORSDOF 3
ENDMDL
MODEL       70
REMARK 921   NORMALIZED FREE ENERGY PREDICTED BY IDOCK:   -4.65 KCAL/MOL
REMARK 922        TOTAL FREE ENERGY PREDICTED BY IDOCK:   -6.33 KCAL/MOL
REMARK 923 INTER-LIGAND FREE ENERGY PREDICTED BY IDOCK:   -5.79 KCAL/MOL
REMARK 924 INTRA-LIGAND FREE ENERGY PREDICTED BY IDOCK:   -0.54 KCAL/MOL
REMARK 927      BINDING AFFINITY PREDICTED BY RF-SCORE:    0.00 PKD
ROOT
HETATM    1  O   UNL     1      -6.088   8.974  72.558  1.00  0.00    -0.187 OA 
HETATM    2  S   UNL     1      -7.353   8.043  72.928  1.00  0.00    -0.117 S  
HETATM    3  O   UNL     1      -8.124   7.814  71.510  1.00  0.00    -0.094 OA 
HETATM    4  O   UNL     1      -8.201   8.808  73.821  1.00  0.00    -0.356 OA 
HETATM    5  O   UNL     1      -6.793   6.779  73.349  1.00  0.00    -0.075 OA 
ENDROOT
BRANCH   3   6
HETATM    6  N   UNL     1      -8.938   8.914  71.029  1.00  0.00    -0.221 N  
HETATM    7  C   UNL     1     -10.337   8.488  71.100  1.00  0.00    -0.215 C  
HETATM    8  C   UNL     1     -10.432   7.626  69.856  1.00  0.00    -0.231 C  
HETATM    9  N   UNL     1      -9.757   8.487  68.896  1.00  0.00    -0.167 N  
HETATM   10  C   UNL     1     -10.627   9.587  68.430  1.00  0.00    -0.219 C  
HETATM   11  C   UNL     1      -8.604   8.950  69.623  1.00  0.00    -0.131 C  
HETATM   12  O   UNL     1      -7.522   9.197  69.111  1.00  0.00    -0.070 OA 
HETATM   13  C   UNL     1     -11.092  10.459  69.618  1.00  0.00    -0.328 C  
HETATM   14  C   UNL     1     -11.363   9.632  70.887  1.00  0.00    -0.431 C  
BRANCH  10  15
HETATM   15  C   UNL     1     -10.116  10.512  67.300  1.00  0.00    -0.201 C  
HETATM   16  O   UNL     1      -9.276  10.130  66.486  1.00  0.00    -0.149 OA 
HETATM   17  N   UNL     1     -10.599  11.793  67.319  1.00  0.00    -0.217 N  
HETATM   18  H   UNL     1     -11.219  12.074  68.078  1.00  0.00     0.000 HD 
BRANCH  17  19
HETATM   19  C   UNL     1     -10.258  12.772  66.288  1.00  0.00    -0.253 C  
HETATM   20  C   UNL     1     -10.818  12.404  64.908  1.00  0.00    -0.333 C  
HETATM   21  C   UNL     1     -12.338  12.519  64.878  1.00  0.00    -0.470 C  
HETATM   22  N   UNL     1     -12.789  13.854  65.280  1.00  0.00    -0.749 NA 
HETATM   23  H   UNL     1     -13.806  13.929  65.233  1.00  0.00     0.000 HD 
HETATM   24  C   UNL     1     -12.291  14.232  66.603  1.00  0.00    -0.286 C  
HETATM   25  C   UNL     1     -10.767  14.154  66.694  1.00  0.00    -0.289 C  
ENDBRANCH  17  19
ENDBRANCH  10  15
ENDBRANCH   3   6
TORSDOF 3
ENDMDL
MODEL       71
REMARK 921   NORMALIZED FREE ENERGY PREDICTED BY IDOCK:   -4.65 KCAL/MOL
REMARK 922        TOTAL FREE ENERGY PREDICTED BY IDOCK:   -6.33 KCAL/MOL
REMARK 923 INTER-LIGAND FREE ENERGY PREDICTED BY IDOCK:   -5.67 KCAL/MOL
REMARK 924 INTRA-LIGAND FREE ENERGY PREDICTED BY IDOCK:   -0.65 KCAL/MOL
REMARK 927      BINDING AFFINITY PREDICTED BY RF-SCORE:    0.00 PKD
ROOT
HETATM    1  O   UNL     1     -10.047  10.963  69.210  1.00  0.00    -0.208 OA 
HETATM    2  S   UNL     1     -11.481  11.641  68.917  1.00  0.00    -0.317 S  
HETATM    3  O   UNL     1     -11.167  12.817  67.832  1.00  0.00    -0.244 OA 
HETATM    4  O   UNL     1     -11.935  12.238  70.159  1.00  0.00    -0.334 OA 
HETATM    5  O   UNL     1     -12.266  10.619  68.263  1.00  0.00    -0.345 OA 
ENDROOT
BRANCH   3   6
HETATM    6  N   UNL     1     -10.577  14.037  68.351  1.00  0.00    -0.247 N  
HETATM    7  C   UNL     1     -11.615  15.068  68.334  1.00  0.00    -0.331 C  
HETATM    8  C   UNL     1     -11.599  15.459  66.869  1.00  0.00     0.019 C  
HETATM    9  N   UNL     1     -10.164  15.563  66.647  1.00  0.00    -0.268 N  
HETATM   10  C   UNL     1      -9.610  16.823  67.184  1.00  0.00    -0.236 C  
HETATM   11  C   UNL     1      -9.644  14.393  67.305  1.00  0.00    -0.227 C  
HETATM   12  O   UNL     1      -8.657  13.776  66.932  1.00  0.00    -0.196 OA 
HETATM   13  C   UNL     1      -9.874  16.935  68.703  1.00  0.00    -0.270 C  
HETATM   14  C   UNL     1     -11.243  16.360  69.108  1.00  0.00    -0.275 C  
BRANCH  10  15
HETATM   15  C   UNL     1      -8.125  17.160  66.909  1.00  0.00    -0.216 C  
HETATM   16  O   UNL     1      -7.583  16.858  65.846  1.00  0.00    -0.276 OA 
HETATM   17  N   UNL     1      -7.446  17.739  67.947  1.00  0.00    -0.206 N  
HETATM   18  H   UNL     1      -7.928  17.875  68.835  1.00  0.00     0.000 HD 
BRANCH  17  19
HETATM   19  C   UNL     1      -6.054  18.170  67.827  1.00  0.00    -0.164 C  
HETATM   20  C   UNL     1      -5.900  19.481  67.046  1.00  0.00    -0.174 C  
HETATM   21  C   UNL     1      -6.468  20.661  67.827  1.00  0.00    -0.308 C  
HETATM   22  N   UNL     1      -5.859  20.776  69.155  1.00  0.00    -0.366 NA 
HETATM   23  H   UNL     1      -6.227  21.582  69.660  1.00  0.00     0.000 HD 
HETATM   24  C   UNL     1      -6.003  19.548  69.939  1.00  0.00    -0.280 C  
HETATM   25  C   UNL     1      -5.436  18.327  69.215  1.00  0.00    -0.204 C  
ENDBRANCH  17  19
ENDBRANCH  10  15
ENDBRANCH   3   6
TORSDOF 3
ENDMDL
MODEL       72
REMARK 921   NORMALIZED FREE ENERGY PREDICTED BY IDOCK:   -4.64 KCAL/MOL
REMARK 922        TOTAL FREE ENERGY PREDICTED BY IDOCK:   -6.32 KCAL/MOL
REMARK 923 INTER-LIGAND FREE ENERGY PREDICTED BY IDOCK:   -5.98 KCAL/MOL
REMARK 924 INTRA-LIGAND FREE ENERGY PREDICTED BY IDOCK:   -0.33 KCAL/MOL
REMARK 927      BINDING AFFINITY PREDICTED BY RF-SCORE:    0.00 PKD
ROOT
HETATM    1  O   UNL     1     -12.699  14.125  66.248  1.00  0.00    -0.401 OA 
HETATM    2  S   UNL     1     -11.774  13.423  65.128  1.00  0.00    -0.339 S  
HETATM    3  O   UNL     1     -11.592  11.888  65.648  1.00  0.00    -0.317 OA 
HETATM    4  O   UNL     1     -10.489  14.096  65.151  1.00  0.00    -0.353 OA 
HETATM    5  O   UNL     1     -12.572  13.403  63.924  1.00  0.00    -0.673 OA 
ENDROOT
BRANCH   3   6
HETATM    6  N   UNL     1     -10.640  11.675  66.721  1.00  0.00    -0.234 N  
HETATM    7  C   UNL     1      -9.533  10.887  66.177  1.00  0.00    -0.200 C  
HETATM    8  C   UNL     1     -10.144   9.499  66.187  1.00  0.00    -0.256 C  
HETATM    9  N   UNL     1     -10.741   9.492  67.515  1.00  0.00    -0.281 N  
HETATM   10  C   UNL     1      -9.735   9.264  68.574  1.00  0.00    -0.150 C  
HETATM   11  C   UNL     1     -11.366  10.786  67.601  1.00  0.00    -0.252 C  
HETATM   12  O   UNL     1     -12.395  11.013  68.220  1.00  0.00    -0.479 OA 
HETATM   13  C   UNL     1      -8.645  10.359  68.539  1.00  0.00    -0.134 C  
HETATM   14  C   UNL     1      -8.295  10.799  67.107  1.00  0.00    -0.126 C  
BRANCH  10  15
HETATM   15  C   UNL     1     -10.218   9.086  70.032  1.00  0.00    -0.203 C  
HETATM   16  O   UNL     1     -10.887   9.949  70.599  1.00  0.00    -0.301 OA 
HETATM   17  N   UNL     1      -9.789   7.950  70.664  1.00  0.00    -0.184 N  
HETATM   18  H   UNL     1      -9.156   7.321  70.170  1.00  0.00     0.000 HD 
BRANCH  17  19
HETATM   19  C   UNL     1     -10.205   7.606  72.023  1.00  0.00    -0.197 C  
HETATM   20  C   UNL     1     -10.600   6.131  72.171  1.00  0.00    -0.248 C  
HETATM   21  C   UNL     1      -9.387   5.217  72.035  1.00  0.00    -0.137 C  
HETATM   22  N   UNL     1      -8.333   5.569  72.991  1.00  0.00    -0.118 NA 
HETATM   23  H   UNL     1      -7.536   4.937  72.909  1.00  0.00     0.000 HD 
HETATM   24  C   UNL     1      -7.916   6.967  72.866  1.00  0.00    -0.103 C  
HETATM   25  C   UNL     1      -9.088   7.937  73.009  1.00  0.00    -0.300 C  
ENDBRANCH  17  19
ENDBRANCH  10  15
ENDBRANCH   3   6
TORSDOF 3
ENDMDL
MODEL       73
REMARK 921   NORMALIZED FREE ENERGY PREDICTED BY IDOCK:   -4.63 KCAL/MOL
REMARK 922        TOTAL FREE ENERGY PREDICTED BY IDOCK:   -6.31 KCAL/MOL
REMARK 923 INTER-LIGAND FREE ENERGY PREDICTED BY IDOCK:   -5.46 KCAL/MOL
REMARK 924 INTRA-LIGAND FREE ENERGY PREDICTED BY IDOCK:   -0.84 KCAL/MOL
REMARK 927      BINDING AFFINITY PREDICTED BY RF-SCORE:    0.00 PKD
ROOT
HETATM    1  O   UNL     1     -12.634  10.801  69.855  1.00  0.00    -0.294 OA 
HETATM    2  S   UNL     1     -13.019  10.317  71.345  1.00  0.00    -0.459 S  
HETATM    3  O   UNL     1     -11.676   9.572  71.895  1.00  0.00    -0.374 OA 
HETATM    4  O   UNL     1     -14.091   9.348  71.218  1.00  0.00    -0.210 OA 
HETATM    5  O   UNL     1     -13.210  11.529  72.109  1.00  0.00    -0.505 OA 
ENDROOT
BRANCH   3   6
HETATM    6  N   UNL     1     -11.433   8.229  71.405  1.00  0.00    -0.260 N  
HETATM    7  C   UNL     1     -11.265   7.360  72.571  1.00  0.00    -0.317 C  
HETATM    8  C   UNL     1      -9.834   7.682  72.957  1.00  0.00    -0.261 C  
HETATM    9  N   UNL     1      -9.199   7.635  71.648  1.00  0.00    -0.133 N  
HETATM   10  C   UNL     1      -8.965   6.247  71.195  1.00  0.00    -0.146 C  
HETATM   11  C   UNL     1     -10.122   8.353  70.809  1.00  0.00    -0.193 C  
HETATM   12  O   UNL     1      -9.792   9.033  69.849  1.00  0.00    -0.171 OA 
HETATM   13  C   UNL     1     -10.295   5.465  71.117  1.00  0.00    -0.304 C  
HETATM   14  C   UNL     1     -11.272   5.844  72.244  1.00  0.00    -0.343 C  
BRANCH  10  15
HETATM   15  C   UNL     1      -8.170   6.016  69.888  1.00  0.00    -0.118 C  
HETATM   16  O   UNL     1      -6.956   6.202  69.832  1.00  0.00    -0.065 OA 
HETATM   17  N   UNL     1      -8.917   5.669  68.795  1.00  0.00    -0.115 N  
HETATM   18  H   UNL     1      -9.932   5.625  68.885  1.00  0.00     0.000 HD 
BRANCH  17  19
HETATM   19  C   UNL     1      -8.310   5.360  67.500  1.00  0.00    -0.103 C  
HETATM   20  C   UNL     1      -7.997   3.868  67.330  1.00  0.00    -0.091 C  
HETATM   21  C   UNL     1      -9.274   3.043  67.218  1.00  0.00    -0.182 C  
HETATM   22  N   UNL     1     -10.134   3.518  66.131  1.00  0.00    -0.355 NA 
HETATM   23  H   UNL     1     -10.974   2.945  66.048  1.00  0.00     0.000 HD 
HETATM   24  C   UNL     1     -10.471   4.936  66.271  1.00  0.00    -0.304 C  
HETATM   25  C   UNL     1      -9.229   5.821  66.371  1.00  0.00    -0.160 C  
ENDBRANCH  17  19
ENDBRANCH  10  15
ENDBRANCH   3   6
TORSDOF 3
ENDMDL
MODEL       74
REMARK 921   NORMALIZED FREE ENERGY PREDICTED BY IDOCK:   -4.62 KCAL/MOL
REMARK 922        TOTAL FREE ENERGY PREDICTED BY IDOCK:   -6.29 KCAL/MOL
REMARK 923 INTER-LIGAND FREE ENERGY PREDICTED BY IDOCK:   -5.46 KCAL/MOL
REMARK 924 INTRA-LIGAND FREE ENERGY PREDICTED BY IDOCK:   -0.83 KCAL/MOL
REMARK 927      BINDING AFFINITY PREDICTED BY RF-SCORE:    0.00 PKD
ROOT
HETATM    1  O   UNL     1     -13.628   9.731  70.389  1.00  0.00     0.054 OA 
HETATM    2  S   UNL     1     -13.272   9.904  71.953  1.00  0.00    -0.447 S  
HETATM    3  O   UNL     1     -11.760   9.312  72.099  1.00  0.00    -0.319 OA 
HETATM    4  O   UNL     1     -14.193   9.067  72.697  1.00  0.00    -0.574 OA 
HETATM    5  O   UNL     1     -13.225  11.330  72.183  1.00  0.00    -0.481 OA 
ENDROOT
BRANCH   3   6
HETATM    6  N   UNL     1     -11.628   7.868  72.119  1.00  0.00    -0.306 N  
HETATM    7  C   UNL     1     -10.842   7.515  73.303  1.00  0.00    -0.355 C  
HETATM    8  C   UNL     1      -9.441   7.826  72.813  1.00  0.00    -0.215 C  
HETATM    9  N   UNL     1      -9.487   7.209  71.496  1.00  0.00    -0.157 N  
HETATM   10  C   UNL     1      -9.341   5.739  71.566  1.00  0.00    -0.146 C  
HETATM   11  C   UNL     1     -10.767   7.624  70.983  1.00  0.00    -0.228 C  
HETATM   12  O   UNL     1     -10.998   7.838  69.803  1.00  0.00    -0.237 OA 
HETATM   13  C   UNL     1     -10.461   5.119  72.431  1.00  0.00    -0.272 C  
HETATM   14  C   UNL     1     -10.836   6.000  73.636  1.00  0.00    -0.171 C  
BRANCH  10  15
HETATM   15  C   UNL     1      -9.226   4.940  70.247  1.00  0.00    -0.137 C  
HETATM   16  O   UNL     1      -9.492   3.740  70.196  1.00  0.00    -0.159 OA 
HETATM   17  N   UNL     1      -8.739   5.635  69.174  1.00  0.00    -0.108 N  
HETATM   18  H   UNL     1      -8.445   6.603  69.306  1.00  0.00     0.000 HD 
BRANCH  17  19
HETATM   19  C   UNL     1      -8.624   5.040  67.843  1.00  0.00    -0.103 C  
HETATM   20  C   UNL     1      -9.978   4.886  67.140  1.00  0.00    -0.229 C  
HETATM   21  C   UNL     1     -10.564   6.242  66.764  1.00  0.00    -0.265 C  
HETATM   22  N   UNL     1      -9.639   7.023  65.939  1.00  0.00    -0.385 NA 
HETATM   23  H   UNL     1     -10.049   7.919  65.672  1.00  0.00     0.000 HD 
HETATM   24  C   UNL     1      -8.339   7.208  66.587  1.00  0.00    -0.114 C  
HETATM   25  C   UNL     1      -7.690   5.880  66.975  1.00  0.00    -0.101 C  
ENDBRANCH  17  19
ENDBRANCH  10  15
ENDBRANCH   3   6
TORSDOF 3
ENDMDL
MODEL       75
REMARK 921   NORMALIZED FREE ENERGY PREDICTED BY IDOCK:   -4.61 KCAL/MOL
REMARK 922        TOTAL FREE ENERGY PREDICTED BY IDOCK:   -6.29 KCAL/MOL
REMARK 923 INTER-LIGAND FREE ENERGY PREDICTED BY IDOCK:   -5.60 KCAL/MOL
REMARK 924 INTRA-LIGAND FREE ENERGY PREDICTED BY IDOCK:   -0.69 KCAL/MOL
REMARK 927      BINDING AFFINITY PREDICTED BY RF-SCORE:    0.00 PKD
ROOT
HETATM    1  O   UNL     1      -7.355  10.583  69.463  1.00  0.00    -0.120 OA 
HETATM    2  S   UNL     1      -8.702   9.886  68.911  1.00  0.00    -0.149 S  
HETATM    3  O   UNL     1      -9.171  10.825  67.664  1.00  0.00    -0.146 OA 
HETATM    4  O   UNL     1      -9.689   9.962  69.971  1.00  0.00    -0.236 OA 
HETATM    5  O   UNL     1      -8.287   8.606  68.384  1.00  0.00    -0.124 OA 
ENDROOT
BRANCH   3   6
HETATM    6  N   UNL     1      -9.828  12.073  68.003  1.00  0.00    -0.193 N  
HETATM    7  C   UNL     1     -11.261  11.892  67.769  1.00  0.00    -0.267 C  
HETATM    8  C   UNL     1     -11.323  12.049  66.263  1.00  0.00    -0.357 C  
HETATM    9  N   UNL     1     -10.483  13.226  66.093  1.00  0.00    -0.288 N  
HETATM   10  C   UNL     1     -11.197  14.472  66.443  1.00  0.00    -0.341 C  
HETATM   11  C   UNL     1      -9.363  12.957  66.957  1.00  0.00    -0.235 C  
HETATM   12  O   UNL     1      -8.220  13.328  66.736  1.00  0.00    -0.028 OA 
HETATM   13  C   UNL     1     -11.684  14.431  67.909  1.00  0.00    -0.388 C  
HETATM   14  C   UNL     1     -12.149  13.029  68.339  1.00  0.00    -0.193 C  
BRANCH  10  15
HETATM   15  C   UNL     1     -10.497  15.827  66.185  1.00  0.00    -0.317 C  
HETATM   16  O   UNL     1     -10.645  16.438  65.127  1.00  0.00    -0.610 OA 
HETATM   17  N   UNL     1      -9.652  16.255  67.173  1.00  0.00    -0.230 N  
HETATM   18  H   UNL     1      -9.498  15.655  67.984  1.00  0.00     0.000 HD 
BRANCH  17  19
HETATM   19  C   UNL     1      -8.960  17.541  67.108  1.00  0.00    -0.238 C  
HETATM   20  C   UNL     1      -8.605  18.099  68.492  1.00  0.00    -0.307 C  
HETATM   21  C   UNL     1      -7.524  17.260  69.166  1.00  0.00    -0.130 C  
HETATM   22  N   UNL     1      -6.325  17.148  68.331  1.00  0.00    -0.152 NA 
HETATM   23  H   UNL     1      -5.599  16.606  68.800  1.00  0.00     0.000 HD 
HETATM   24  C   UNL     1      -6.622  16.599  67.006  1.00  0.00    -0.204 C  
HETATM   25  C   UNL     1      -7.690  17.408  66.270  1.00  0.00    -0.340 C  
ENDBRANCH  17  19
ENDBRANCH  10  15
ENDBRANCH   3   6
TORSDOF 3
ENDMDL
MODEL       76
REMARK 921   NORMALIZED FREE ENERGY PREDICTED BY IDOCK:   -4.61 KCAL/MOL
REMARK 922        TOTAL FREE ENERGY PREDICTED BY IDOCK:   -6.29 KCAL/MOL
REMARK 923 INTER-LIGAND FREE ENERGY PREDICTED BY IDOCK:   -5.53 KCAL/MOL
REMARK 924 INTRA-LIGAND FREE ENERGY PREDICTED BY IDOCK:   -0.76 KCAL/MOL
REMARK 927      BINDING AFFINITY PREDICTED BY RF-SCORE:    0.00 PKD
ROOT
HETATM    1  O   UNL     1     -10.299  15.223  70.063  1.00  0.00    -0.273 OA 
HETATM    2  S   UNL     1     -11.440  15.837  69.102  1.00  0.00    -0.392 S  
HETATM    3  O   UNL     1     -11.932  14.578  68.190  1.00  0.00    -0.316 OA 
HETATM    4  O   UNL     1     -10.801  16.827  68.257  1.00  0.00    -0.353 OA 
HETATM    5  O   UNL     1     -12.525  16.211  69.981  1.00  0.00    -0.152 OA 
ENDROOT
BRANCH   3   6
HETATM    6  N   UNL     1     -11.064  14.195  67.092  1.00  0.00    -0.299 N  
HETATM    7  C   UNL     1     -11.762  14.519  65.847  1.00  0.00    -0.345 C  
HETATM    8  C   UNL     1     -12.719  13.347  65.749  1.00  0.00    -0.318 C  
HETATM    9  N   UNL     1     -11.816  12.250  66.064  1.00  0.00    -0.394 N  
HETATM   10  C   UNL     1     -10.958  11.891  64.915  1.00  0.00    -0.313 C  
HETATM   11  C   UNL     1     -11.069  12.753  67.188  1.00  0.00    -0.277 C  
HETATM   12  O   UNL     1     -10.646  12.056  68.098  1.00  0.00    -0.196 OA 
HETATM   13  C   UNL     1     -10.111  13.102  64.463  1.00  0.00    -0.244 C  
HETATM   14  C   UNL     1     -10.874  14.433  64.577  1.00  0.00    -0.271 C  
BRANCH  10  15
HETATM   15  C   UNL     1     -10.039  10.652  65.033  1.00  0.00    -0.321 C  
HETATM   16  O   UNL     1     -10.406   9.630  65.611  1.00  0.00    -0.173 OA 
HETATM   17  N   UNL     1      -8.777  10.801  64.523  1.00  0.00    -0.318 N  
HETATM   18  H   UNL     1      -8.503  11.707  64.143  1.00  0.00     0.000 HD 
BRANCH  17  19
HETATM   19  C   UNL     1      -7.807   9.706  64.504  1.00  0.00    -0.134 C  
HETATM   20  C   UNL     1      -6.872   9.759  63.290  1.00  0.00    -0.117 C  
HETATM   21  C   UNL     1      -5.918  10.945  63.376  1.00  0.00     0.232 C  
HETATM   22  N   UNL     1      -5.147  10.931  64.622  1.00  0.00    -0.356 NA 
HETATM   23  H   UNL     1      -4.494  11.715  64.661  1.00  0.00     0.000 HD 
HETATM   24  C   UNL     1      -6.008  10.901  65.806  1.00  0.00    -0.094 C  
HETATM   25  C   UNL     1      -6.980   9.722  65.787  1.00  0.00    -0.103 C  
ENDBRANCH  17  19
ENDBRANCH  10  15
ENDBRANCH   3   6
TORSDOF 3
ENDMDL
MODEL       77
REMARK 921   NORMALIZED FREE ENERGY PREDICTED BY IDOCK:   -4.55 KCAL/MOL
REMARK 922        TOTAL FREE ENERGY PREDICTED BY IDOCK:   -6.21 KCAL/MOL
REMARK 923 INTER-LIGAND FREE ENERGY PREDICTED BY IDOCK:   -5.43 KCAL/MOL
REMARK 924 INTRA-LIGAND FREE ENERGY PREDICTED BY IDOCK:   -0.78 KCAL/MOL
REMARK 927      BINDING AFFINITY PREDICTED BY RF-SCORE:    0.00 PKD
ROOT
HETATM    1  O   UNL     1      -8.751   8.557  64.698  1.00  0.00    -0.118 OA 
HETATM    2  S   UNL     1      -8.682  10.069  64.139  1.00  0.00    -0.224 S  
HETATM    3  O   UNL     1      -8.702  11.004  65.475  1.00  0.00    -0.187 OA 
HETATM    4  O   UNL     1      -9.892  10.298  63.371  1.00  0.00    -0.267 OA 
HETATM    5  O   UNL     1      -7.384  10.193  63.518  1.00  0.00    -0.141 OA 
ENDROOT
BRANCH   3   6
HETATM    6  N   UNL     1      -9.988  11.187  66.119  1.00  0.00    -0.221 N  
HETATM    7  C   UNL     1     -10.193  12.626  66.288  1.00  0.00    -0.251 C  
HETATM    8  C   UNL     1      -9.332  12.892  67.507  1.00  0.00    -0.190 C  
HETATM    9  N   UNL     1      -9.734  11.778  68.353  1.00  0.00    -0.198 N  
HETATM   10  C   UNL     1     -11.046  12.014  68.994  1.00  0.00    -0.239 C  
HETATM   11  C   UNL     1      -9.744  10.662  67.444  1.00  0.00    -0.167 C  
HETATM   12  O   UNL     1      -9.466   9.515  67.761  1.00  0.00    -0.131 OA 
HETATM   13  C   UNL     1     -12.143  12.235  67.929  1.00  0.00    -0.052 C  
HETATM   14  C   UNL     1     -11.634  13.021  66.708  1.00  0.00    -0.420 C  
BRANCH  10  15
HETATM   15  C   UNL     1     -11.558  10.992  70.036  1.00  0.00    -0.344 C  
HETATM   16  O   UNL     1     -12.734  10.976  70.399  1.00  0.00    -0.288 OA 
HETATM   17  N   UNL     1     -10.606  10.170  70.577  1.00  0.00    -0.410 N  
HETATM   18  H   UNL     1      -9.632  10.299  70.305  1.00  0.00     0.000 HD 
BRANCH  17  19
HETATM   19  C   UNL     1     -10.937   9.113  71.532  1.00  0.00    -0.364 C  
HETATM   20  C   UNL     1     -11.743   7.971  70.902  1.00  0.00    -0.265 C  
HETATM   21  C   UNL     1     -10.894   7.171  69.919  1.00  0.00    -0.254 C  
HETATM   22  N   UNL     1      -9.674   6.658  70.548  1.00  0.00    -0.175 NA 
HETATM   23  H   UNL     1      -9.125   6.105  69.890  1.00  0.00     0.000 HD 
HETATM   24  C   UNL     1      -8.868   7.725  71.144  1.00  0.00    -0.137 C  
HETATM   25  C   UNL     1      -9.660   8.555  72.155  1.00  0.00    -0.382 C  
ENDBRANCH  17  19
ENDBRANCH  10  15
ENDBRANCH   3   6
TORSDOF 3
ENDMDL
MODEL       78
REMARK 921   NORMALIZED FREE ENERGY PREDICTED BY IDOCK:   -4.54 KCAL/MOL
REMARK 922        TOTAL FREE ENERGY PREDICTED BY IDOCK:   -6.20 KCAL/MOL
REMARK 923 INTER-LIGAND FREE ENERGY PREDICTED BY IDOCK:   -5.75 KCAL/MOL
REMARK 924 INTRA-LIGAND FREE ENERGY PREDICTED BY IDOCK:   -0.45 KCAL/MOL
REMARK 927      BINDING AFFINITY PREDICTED BY RF-SCORE:    0.00 PKD
ROOT
HETATM    1  O   UNL     1     -11.329  19.326  67.164  1.00  0.00    -0.160 OA 
HETATM    2  S   UNL     1      -9.876  19.663  67.779  1.00  0.00    -0.409 S  
HETATM    3  O   UNL     1      -8.925  18.432  67.287  1.00  0.00    -0.258 OA 
HETATM    4  O   UNL     1     -10.003  19.628  69.223  1.00  0.00    -0.436 OA 
HETATM    5  O   UNL     1      -9.442  20.867  67.107  1.00  0.00    -0.379 OA 
ENDROOT
BRANCH   3   6
HETATM    6  N   UNL     1      -9.059  17.181  68.009  1.00  0.00    -0.234 N  
HETATM    7  C   UNL     1      -7.713  16.752  68.395  1.00  0.00    -0.208 C  
HETATM    8  C   UNL     1      -7.221  16.163  67.087  1.00  0.00    -0.220 C  
HETATM    9  N   UNL     1      -8.386  15.379  66.704  1.00  0.00    -0.258 N  
HETATM   10  C   UNL     1      -8.475  14.112  67.460  1.00  0.00    -0.187 C  
HETATM   11  C   UNL     1      -9.484  16.272  66.969  1.00  0.00    -0.226 C  
HETATM   12  O   UNL     1     -10.520  16.299  66.321  1.00  0.00    -0.312 OA 
HETATM   13  C   UNL     1      -8.553  14.385  68.979  1.00  0.00     0.005 C  
HETATM   14  C   UNL     1      -7.685  15.580  69.410  1.00  0.00    -0.227 C  
BRANCH  10  15
HETATM   15  C   UNL     1      -9.574  13.094  67.077  1.00  0.00    -0.241 C  
HETATM   16  O   UNL     1     -10.318  13.281  66.115  1.00  0.00    -0.278 OA 
HETATM   17  N   UNL     1      -9.710  12.023  67.919  1.00  0.00    -0.189 N  
HETATM   18  H   UNL     1      -9.126  11.977  68.754  1.00  0.00     0.000 HD 
BRANCH  17  19
HETATM   19  C   UNL     1     -10.663  10.944  67.664  1.00  0.00    -0.242 C  
HETATM   20  C   UNL     1     -10.168   9.581  68.164  1.00  0.00    -0.231 C  
HETATM   21  C   UNL     1     -10.126   9.532  69.688  1.00  0.00    -0.212 C  
HETATM   22  N   UNL     1     -11.428   9.858  70.277  1.00  0.00    -0.273 NA 
HETATM   23  H   UNL     1     -11.397   9.799  71.295  1.00  0.00     0.000 HD 
HETATM   24  C   UNL     1     -11.924  11.163  69.838  1.00  0.00    -0.363 C  
HETATM   25  C   UNL     1     -12.005  11.270  68.315  1.00  0.00    -0.215 C  
ENDBRANCH  17  19
ENDBRANCH  10  15
ENDBRANCH   3   6
TORSDOF 3
ENDMDL
MODEL       79
REMARK 921   NORMALIZED FREE ENERGY PREDICTED BY IDOCK:   -4.52 KCAL/MOL
REMARK 922        TOTAL FREE ENERGY PREDICTED BY IDOCK:   -6.18 KCAL/MOL
REMARK 923 INTER-LIGAND FREE ENERGY PREDICTED BY IDOCK:   -5.32 KCAL/MOL
REMARK 924 INTRA-LIGAND FREE ENERGY PREDICTED BY IDOCK:   -0.86 KCAL/MOL
REMARK 927      BINDING AFFINITY PREDICTED BY RF-SCORE:    0.00 PKD
ROOT
HETATM    1  O   UNL     1     -12.515  10.721  69.834  1.00  0.00    -0.322 OA 
HETATM    2  S   UNL     1     -13.008  10.298  71.311  1.00  0.00    -0.434 S  
HETATM    3  O   UNL     1     -11.718   9.559  71.980  1.00  0.00    -0.331 OA 
HETATM    4  O   UNL     1     -14.083   9.337  71.145  1.00  0.00    -0.200 OA 
HETATM    5  O   UNL     1     -13.234  11.540  72.014  1.00  0.00    -0.509 OA 
ENDROOT
BRANCH   3   6
HETATM    6  N   UNL     1     -11.461   8.195  71.559  1.00  0.00    -0.258 N  
HETATM    7  C   UNL     1     -11.402   7.367  72.764  1.00  0.00    -0.308 C  
HETATM    8  C   UNL     1     -10.001   7.680  73.253  1.00  0.00    -0.320 C  
HETATM    9  N   UNL     1      -9.264   7.576  72.002  1.00  0.00    -0.131 N  
HETATM   10  C   UNL     1      -9.020   6.170  71.618  1.00  0.00    -0.142 C  
HETATM   11  C   UNL     1     -10.104   8.277  71.066  1.00  0.00    -0.191 C  
HETATM   12  O   UNL     1      -9.686   8.917  70.113  1.00  0.00    -0.166 OA 
HETATM   13  C   UNL     1     -10.354   5.405  71.459  1.00  0.00    -0.289 C  
HETATM   14  C   UNL     1     -11.410   5.840  72.490  1.00  0.00    -0.358 C  
BRANCH  10  15
HETATM   15  C   UNL     1      -8.127   5.879  70.388  1.00  0.00    -0.107 C  
HETATM   16  O   UNL     1      -6.902   5.983  70.443  1.00  0.00    -0.050 OA 
HETATM   17  N   UNL     1      -8.793   5.579  69.230  1.00  0.00    -0.106 N  
HETATM   18  H   UNL     1      -9.812   5.604  69.228  1.00  0.00     0.000 HD 
BRANCH  17  19
HETATM   19  C   UNL     1      -8.094   5.223  67.996  1.00  0.00    -0.099 C  
HETATM   20  C   UNL     1      -8.832   4.155  67.179  1.00  0.00    -0.124 C  
HETATM   21  C   UNL     1     -10.127   4.705  66.591  1.00  0.00    -0.234 C  
HETATM   22  N   UNL     1      -9.890   5.903  65.782  1.00  0.00    -0.369 NA 
HETATM   23  H   UNL     1     -10.758   6.249  65.372  1.00  0.00     0.000 HD 
HETATM   24  C   UNL     1      -9.203   6.954  66.535  1.00  0.00    -0.163 C  
HETATM   25  C   UNL     1      -7.885   6.469  67.138  1.00  0.00    -0.108 C  
ENDBRANCH  17  19
ENDBRANCH  10  15
ENDBRANCH   3   6
TORSDOF 3
ENDMDL
MODEL       80
REMARK 921   NORMALIZED FREE ENERGY PREDICTED BY IDOCK:   -4.48 KCAL/MOL
REMARK 922        TOTAL FREE ENERGY PREDICTED BY IDOCK:   -6.13 KCAL/MOL
REMARK 923 INTER-LIGAND FREE ENERGY PREDICTED BY IDOCK:   -5.56 KCAL/MOL
REMARK 924 INTRA-LIGAND FREE ENERGY PREDICTED BY IDOCK:   -0.57 KCAL/MOL
REMARK 927      BINDING AFFINITY PREDICTED BY RF-SCORE:    0.00 PKD
ROOT
HETATM    1  O   UNL     1     -11.554  14.099  67.080  1.00  0.00    -0.343 OA 
HETATM    2  S   UNL     1     -10.483  12.894  67.029  1.00  0.00    -0.239 S  
HETATM    3  O   UNL     1      -9.341  13.312  68.116  1.00  0.00    -0.211 OA 
HETATM    4  O   UNL     1      -9.905  12.890  65.699  1.00  0.00    -0.251 OA 
HETATM    5  O   UNL     1     -11.182  11.734  67.531  1.00  0.00    -0.252 OA 
ENDROOT
BRANCH   3   6
HETATM    6  N   UNL     1      -8.386  14.321  67.698  1.00  0.00    -0.167 N  
HETATM    7  C   UNL     1      -7.053  13.845  68.072  1.00  0.00    -0.144 C  
HETATM    8  C   UNL     1      -7.042  14.176  69.551  1.00  0.00    -0.003 C  
HETATM    9  N   UNL     1      -7.584  15.527  69.516  1.00  0.00    -0.219 N  
HETATM   10  C   UNL     1      -6.574  16.519  69.092  1.00  0.00    -0.200 C  
HETATM   11  C   UNL     1      -8.684  15.415  68.594  1.00  0.00    -0.191 C  
HETATM   12  O   UNL     1      -9.716  16.064  68.674  1.00  0.00    -0.203 OA 
HETATM   13  C   UNL     1      -6.028  16.179  67.687  1.00  0.00    -0.175 C  
HETATM   14  C   UNL     1      -5.887  14.664  67.458  1.00  0.00     0.102 C  
BRANCH  10  15
HETATM   15  C   UNL     1      -6.943  18.021  69.136  1.00  0.00    -0.207 C  
HETATM   16  O   UNL     1      -6.289  18.825  69.799  1.00  0.00    -0.251 OA 
HETATM   17  N   UNL     1      -8.079  18.372  68.458  1.00  0.00    -0.316 N  
HETATM   18  H   UNL     1      -8.630  17.641  68.009  1.00  0.00     0.000 HD 
BRANCH  17  19
HETATM   19  C   UNL     1      -8.531  19.759  68.355  1.00  0.00    -0.254 C  
HETATM   20  C   UNL     1      -7.807  20.541  67.252  1.00  0.00    -0.367 C  
HETATM   21  C   UNL     1      -8.201  20.040  65.867  1.00  0.00    -0.180 C  
HETATM   22  N   UNL     1      -9.652  20.085  65.666  1.00  0.00    -0.472 NA 
HETATM   23  H   UNL     1      -9.904  19.770  64.729  1.00  0.00     0.000 HD 
HETATM   24  C   UNL     1     -10.377  19.330  66.690  1.00  0.00    -0.438 C  
HETATM   25  C   UNL     1     -10.037  19.798  68.105  1.00  0.00    -0.574 C  
ENDBRANCH  17  19
ENDBRANCH  10  15
ENDBRANCH   3   6
TORSDOF 3
ENDMDL
MODEL       81
REMARK 921   NORMALIZED FREE ENERGY PREDICTED BY IDOCK:   -4.47 KCAL/MOL
REMARK 922        TOTAL FREE ENERGY PREDICTED BY IDOCK:   -6.12 KCAL/MOL
REMARK 923 INTER-LIGAND FREE ENERGY PREDICTED BY IDOCK:   -5.39 KCAL/MOL
REMARK 924 INTRA-LIGAND FREE ENERGY PREDICTED BY IDOCK:   -0.73 KCAL/MOL
REMARK 927      BINDING AFFINITY PREDICTED BY RF-SCORE:    0.00 PKD
ROOT
HETATM    1  O   UNL     1     -12.271  10.972  68.416  1.00  0.00    -0.586 OA 
HETATM    2  S   UNL     1     -12.144  11.333  69.983  1.00  0.00    -0.347 S  
HETATM    3  O   UNL     1     -10.954  10.363  70.534  1.00  0.00    -0.299 OA 
HETATM    4  O   UNL     1     -13.398  10.964  70.611  1.00  0.00    -0.046 OA 
HETATM    5  O   UNL     1     -11.673  12.699  70.029  1.00  0.00    -0.293 OA 
ENDROOT
BRANCH   3   6
HETATM    6  N   UNL     1     -11.306   8.976  70.772  1.00  0.00    -0.269 N  
HETATM    7  C   UNL     1     -11.029   8.689  72.180  1.00  0.00    -0.364 C  
HETATM    8  C   UNL     1      -9.526   8.497  72.137  1.00  0.00    -0.305 C  
HETATM    9  N   UNL     1      -9.409   7.647  70.961  1.00  0.00    -0.152 N  
HETATM   10  C   UNL     1      -9.770   6.243  71.255  1.00  0.00    -0.174 C  
HETATM   11  C   UNL     1     -10.297   8.270  70.015  1.00  0.00    -0.212 C  
HETATM   12  O   UNL     1     -10.116   8.280  68.807  1.00  0.00    -0.189 OA 
HETATM   13  C   UNL     1     -11.221   6.149  71.779  1.00  0.00    -0.338 C  
HETATM   14  C   UNL     1     -11.602   7.336  72.680  1.00  0.00    -0.259 C  
BRANCH  10  15
HETATM   15  C   UNL     1      -9.566   5.178  70.152  1.00  0.00    -0.181 C  
HETATM   16  O   UNL     1      -9.967   4.023  70.290  1.00  0.00    -0.188 OA 
HETATM   17  N   UNL     1      -8.847   5.585  69.060  1.00  0.00    -0.105 N  
HETATM   18  H   UNL     1      -8.459   6.528  69.050  1.00  0.00     0.000 HD 
BRANCH  17  19
HETATM   19  C   UNL     1      -8.617   4.715  67.907  1.00  0.00    -0.103 C  
HETATM   20  C   UNL     1      -9.905   4.380  67.146  1.00  0.00    -0.217 C  
HETATM   21  C   UNL     1     -10.464   5.607  66.434  1.00  0.00    -0.198 C  
HETATM   22  N   UNL     1      -9.475   6.210  65.536  1.00  0.00    -0.356 NA 
HETATM   23  H   UNL     1      -9.864   7.016  65.046  1.00  0.00     0.000 HD 
HETATM   24  C   UNL     1      -8.236   6.563  66.233  1.00  0.00    -0.119 C  
HETATM   25  C   UNL     1      -7.616   5.367  66.956  1.00  0.00    -0.092 C  
ENDBRANCH  17  19
ENDBRANCH  10  15
ENDBRANCH   3   6
TORSDOF 3
ENDMDL
MODEL       82
REMARK 921   NORMALIZED FREE ENERGY PREDICTED BY IDOCK:   -4.46 KCAL/MOL
REMARK 922        TOTAL FREE ENERGY PREDICTED BY IDOCK:   -6.10 KCAL/MOL
REMARK 923 INTER-LIGAND FREE ENERGY PREDICTED BY IDOCK:   -5.56 KCAL/MOL
REMARK 924 INTRA-LIGAND FREE ENERGY PREDICTED BY IDOCK:   -0.55 KCAL/MOL
REMARK 927      BINDING AFFINITY PREDICTED BY RF-SCORE:    0.00 PKD
ROOT
HETATM    1  O   UNL     1     -11.451  12.995  63.080  1.00  0.00    -0.294 OA 
HETATM    2  S   UNL     1     -11.902  12.332  64.480  1.00  0.00    -0.360 S  
HETATM    3  O   UNL     1     -11.459  13.419  65.612  1.00  0.00    -0.308 OA 
HETATM    4  O   UNL     1     -11.127  11.117  64.648  1.00  0.00    -0.231 OA 
HETATM    5  O   UNL     1     -13.345  12.283  64.438  1.00  0.00    -0.786 OA 
ENDROOT
BRANCH   3   6
HETATM    6  N   UNL     1     -10.051  13.456  65.960  1.00  0.00    -0.299 N  
HETATM    7  C   UNL     1      -9.916  12.889  67.303  1.00  0.00    -0.224 C  
HETATM    8  C   UNL     1     -10.351  14.068  68.151  1.00  0.00    -0.241 C  
HETATM    9  N   UNL     1      -9.609  15.139  67.501  1.00  0.00    -0.206 N  
HETATM   10  C   UNL     1      -8.183  15.142  67.892  1.00  0.00    -0.146 C  
HETATM   11  C   UNL     1      -9.808  14.874  66.100  1.00  0.00    -0.308 C  
HETATM   12  O   UNL     1      -9.877  15.740  65.241  1.00  0.00    -0.375 OA 
HETATM   13  C   UNL     1      -7.513  13.798  67.528  1.00  0.00    -0.182 C  
HETATM   14  C   UNL     1      -8.452  12.595  67.726  1.00  0.00    -0.172 C  
BRANCH  10  15
HETATM   15  C   UNL     1      -7.281  16.300  67.404  1.00  0.00    -0.169 C  
HETATM   16  O   UNL     1      -6.833  16.328  66.259  1.00  0.00    -0.039 OA 
HETATM   17  N   UNL     1      -6.957  17.236  68.348  1.00  0.00    -0.193 N  
HETATM   18  H   UNL     1      -7.281  17.103  69.306  1.00  0.00     0.000 HD 
BRANCH  17  19
HETATM   19  C   UNL     1      -6.161  18.422  68.033  1.00  0.00    -0.189 C  
HETATM   20  C   UNL     1      -7.017  19.679  67.833  1.00  0.00    -0.290 C  
HETATM   21  C   UNL     1      -7.647  20.134  69.145  1.00  0.00     0.114 C  
HETATM   22  N   UNL     1      -6.637  20.356  70.183  1.00  0.00    -0.282 NA 
HETATM   23  H   UNL     1      -7.065  20.684  71.049  1.00  0.00     0.000 HD 
HETATM   24  C   UNL     1      -5.812  19.170  70.416  1.00  0.00    -0.189 C  
HETATM   25  C   UNL     1      -5.138  18.672  69.138  1.00  0.00    -0.187 C  
ENDBRANCH  17  19
ENDBRANCH  10  15
ENDBRANCH   3   6
TORSDOF 3
ENDMDL
MODEL       83
REMARK 921   NORMALIZED FREE ENERGY PREDICTED BY IDOCK:   -4.43 KCAL/MOL
REMARK 922        TOTAL FREE ENERGY PREDICTED BY IDOCK:   -6.07 KCAL/MOL
REMARK 923 INTER-LIGAND FREE ENERGY PREDICTED BY IDOCK:   -5.76 KCAL/MOL
REMARK 924 INTRA-LIGAND FREE ENERGY PREDICTED BY IDOCK:   -0.32 KCAL/MOL
REMARK 927      BINDING AFFINITY PREDICTED BY RF-SCORE:    0.00 PKD
ROOT
HETATM    1  O   UNL     1      -8.139  21.381  67.206  1.00  0.00    -0.153 OA 
HETATM    2  S   UNL     1      -6.790  20.526  66.979  1.00  0.00    -0.302 S  
HETATM    3  O   UNL     1      -7.304  19.092  66.398  1.00  0.00    -0.225 OA 
HETATM    4  O   UNL     1      -6.183  20.330  68.281  1.00  0.00    -0.259 OA 
HETATM    5  O   UNL     1      -6.071  21.210  65.928  1.00  0.00    -0.261 OA 
ENDROOT
BRANCH   3   6
HETATM    6  N   UNL     1      -7.858  18.162  67.363  1.00  0.00    -0.216 N  
HETATM    7  C   UNL     1      -6.747  17.377  67.904  1.00  0.00    -0.173 C  
HETATM    8  C   UNL     1      -6.535  16.380  66.781  1.00  0.00    -0.016 C  
HETATM    9  N   UNL     1      -7.914  15.999  66.513  1.00  0.00    -0.264 N  
HETATM   10  C   UNL     1      -8.432  15.046  67.517  1.00  0.00    -0.174 C  
HETATM   11  C   UNL     1      -8.610  17.259  66.521  1.00  0.00    -0.264 C  
HETATM   12  O   UNL     1      -9.584  17.511  65.827  1.00  0.00    -0.523 OA 
HETATM   13  C   UNL     1      -8.365  15.655  68.936  1.00  0.00    -0.210 C  
HETATM   14  C   UNL     1      -7.114  16.525  69.147  1.00  0.00    -0.227 C  
BRANCH  10  15
HETATM   15  C   UNL     1      -9.834  14.429  67.302  1.00  0.00    -0.247 C  
HETATM   16  O   UNL     1     -10.852  14.984  67.713  1.00  0.00    -0.268 OA 
HETATM   17  N   UNL     1      -9.855  13.199  66.700  1.00  0.00    -0.254 N  
HETATM   18  H   UNL     1      -8.969  12.749  66.471  1.00  0.00     0.000 HD 
BRANCH  17  19
HETATM   19  C   UNL     1     -11.102  12.509  66.374  1.00  0.00    -0.290 C  
HETATM   20  C   UNL     1     -11.025  11.729  65.056  1.00  0.00    -0.357 C  
HETATM   21  C   UNL     1     -10.092  10.529  65.177  1.00  0.00    -0.314 C  
HETATM   22  N   UNL     1     -10.483   9.646  66.279  1.00  0.00    -0.143 NA 
HETATM   23  H   UNL     1      -9.869   8.833  66.337  1.00  0.00     0.000 HD 
HETATM   24  C   UNL     1     -10.549  10.353  67.559  1.00  0.00    -0.262 C  
HETATM   25  C   UNL     1     -11.484  11.561  67.508  1.00  0.00    -0.355 C  
ENDBRANCH  17  19
ENDBRANCH  10  15
ENDBRANCH   3   6
TORSDOF 3
ENDMDL
MODEL       84
REMARK 921   NORMALIZED FREE ENERGY PREDICTED BY IDOCK:   -4.42 KCAL/MOL
REMARK 922        TOTAL FREE ENERGY PREDICTED BY IDOCK:   -6.06 KCAL/MOL
REMARK 923 INTER-LIGAND FREE ENERGY PREDICTED BY IDOCK:   -5.29 KCAL/MOL
REMARK 924 INTRA-LIGAND FREE ENERGY PREDICTED BY IDOCK:   -0.77 KCAL/MOL
REMARK 927      BINDING AFFINITY PREDICTED BY RF-SCORE:    0.00 PKD
ROOT
HETATM    1  O   UNL     1     -10.587   8.358  72.870  1.00  0.00    -0.257 OA 
HETATM    2  S   UNL     1     -11.081   6.864  72.513  1.00  0.00    -0.273 S  
HETATM    3  O   UNL     1     -10.120   6.395  71.282  1.00  0.00    -0.185 OA 
HETATM    4  O   UNL     1     -12.451   6.966  72.045  1.00  0.00    -0.312 OA 
HETATM    5  O   UNL     1     -10.758   6.063  73.671  1.00  0.00    -0.260 OA 
ENDROOT
BRANCH   3   6
HETATM    6  N   UNL     1     -10.438   6.929  69.971  1.00  0.00    -0.201 N  
HETATM    7  C   UNL     1     -10.659   5.792  69.076  1.00  0.00    -0.281 C  
HETATM    8  C   UNL     1      -9.229   5.390  68.774  1.00  0.00    -0.124 C  
HETATM    9  N   UNL     1      -8.645   6.698  68.510  1.00  0.00    -0.125 N  
HETATM   10  C   UNL     1      -8.990   7.196  67.161  1.00  0.00    -0.125 C  
HETATM   11  C   UNL     1      -9.181   7.516  69.566  1.00  0.00    -0.146 C  
HETATM   12  O   UNL     1      -8.585   8.451  70.080  1.00  0.00    -0.125 OA 
HETATM   13  C   UNL     1     -10.522   7.306  66.993  1.00  0.00    -0.398 C  
HETATM   14  C   UNL     1     -11.279   6.170  67.705  1.00  0.00    -0.141 C  
BRANCH  10  15
HETATM   15  C   UNL     1      -8.336   8.506  66.664  1.00  0.00    -0.112 C  
HETATM   16  O   UNL     1      -7.221   8.856  67.047  1.00  0.00    -0.078 OA 
HETATM   17  N   UNL     1      -9.110   9.278  65.839  1.00  0.00    -0.182 N  
HETATM   18  H   UNL     1     -10.063   8.979  65.636  1.00  0.00     0.000 HD 
BRANCH  17  19
HETATM   19  C   UNL     1      -8.616  10.517  65.237  1.00  0.00    -0.177 C  
HETATM   20  C   UNL     1      -8.038  10.308  63.832  1.00  0.00    -0.138 C  
HETATM   21  C   UNL     1      -9.132   9.955  62.830  1.00  0.00    -0.273 C  
HETATM   22  N   UNL     1     -10.195  10.964  62.808  1.00  0.00    -0.763 NA 
HETATM   23  H   UNL     1     -10.909  10.732  62.118  1.00  0.00     0.000 HD 
HETATM   24  C   UNL     1     -10.785  11.176  64.131  1.00  0.00    -0.345 C  
HETATM   25  C   UNL     1      -9.738  11.551  65.180  1.00  0.00    -0.268 C  
ENDBRANCH  17  19
ENDBRANCH  10  15
ENDBRANCH   3   6
TORSDOF 3
ENDMDL
MODEL       85
REMARK 921   NORMALIZED FREE ENERGY PREDICTED BY IDOCK:   -4.42 KCAL/MOL
REMARK 922        TOTAL FREE ENERGY PREDICTED BY IDOCK:   -6.06 KCAL/MOL
REMARK 923 INTER-LIGAND FREE ENERGY PREDICTED BY IDOCK:   -5.48 KCAL/MOL
REMARK 924 INTRA-LIGAND FREE ENERGY PREDICTED BY IDOCK:   -0.57 KCAL/MOL
REMARK 927      BINDING AFFINITY PREDICTED BY RF-SCORE:    0.00 PKD
ROOT
HETATM    1  O   UNL     1      -6.362  16.437  67.331  1.00  0.00    -0.142 OA 
HETATM    2  S   UNL     1      -7.651  17.389  67.143  1.00  0.00    -0.211 S  
HETATM    3  O   UNL     1      -8.891  16.532  67.764  1.00  0.00    -0.195 OA 
HETATM    4  O   UNL     1      -7.851  17.563  65.717  1.00  0.00    -0.544 OA 
HETATM    5  O   UNL     1      -7.416  18.531  67.997  1.00  0.00    -0.239 OA 
ENDROOT
BRANCH   3   6
HETATM    6  N   UNL     1      -9.423  15.467  66.935  1.00  0.00    -0.221 N  
HETATM    7  C   UNL     1     -10.719  15.915  66.424  1.00  0.00    -0.256 C  
HETATM    8  C   UNL     1     -11.599  15.669  67.634  1.00  0.00    -0.086 C  
HETATM    9  N   UNL     1     -11.145  14.339  68.015  1.00  0.00    -0.261 N  
HETATM   10  C   UNL     1     -11.719  13.289  67.148  1.00  0.00    -0.376 C  
HETATM   11  C   UNL     1      -9.713  14.438  67.908  1.00  0.00    -0.223 C  
HETATM   12  O   UNL     1      -8.928  13.831  68.621  1.00  0.00    -0.151 OA 
HETATM   13  C   UNL     1     -11.334  13.527  65.670  1.00  0.00    -0.312 C  
HETATM   14  C   UNL     1     -11.306  15.021  65.300  1.00  0.00    -0.349 C  
BRANCH  10  15
HETATM   15  C   UNL     1     -11.454  11.807  67.501  1.00  0.00    -0.303 C  
HETATM   16  O   UNL     1     -12.256  11.148  68.162  1.00  0.00    -0.612 OA 
HETATM   17  N   UNL     1     -10.243  11.309  67.099  1.00  0.00    -0.196 N  
HETATM   18  H   UNL     1      -9.582  11.935  66.640  1.00  0.00     0.000 HD 
BRANCH  17  19
HETATM   19  C   UNL     1      -9.865   9.912  67.305  1.00  0.00    -0.182 C  
HETATM   20  C   UNL     1      -8.622   9.506  66.503  1.00  0.00    -0.142 C  
HETATM   21  C   UNL     1      -7.370  10.192  67.037  1.00  0.00    -0.091 C  
HETATM   22  N   UNL     1      -7.173   9.927  68.465  1.00  0.00    -0.075 NA 
HETATM   23  H   UNL     1      -6.320  10.370  68.808  1.00  0.00     0.000 HD 
HETATM   24  C   UNL     1      -8.333  10.321  69.267  1.00  0.00    -0.163 C  
HETATM   25  C   UNL     1      -9.622   9.652  68.790  1.00  0.00    -0.153 C  
ENDBRANCH  17  19
ENDBRANCH  10  15
ENDBRANCH   3   6
TORSDOF 3
ENDMDL
MODEL       86
REMARK 921   NORMALIZED FREE ENERGY PREDICTED BY IDOCK:   -4.40 KCAL/MOL
REMARK 922        TOTAL FREE ENERGY PREDICTED BY IDOCK:   -6.04 KCAL/MOL
REMARK 923 INTER-LIGAND FREE ENERGY PREDICTED BY IDOCK:   -5.36 KCAL/MOL
REMARK 924 INTRA-LIGAND FREE ENERGY PREDICTED BY IDOCK:   -0.67 KCAL/MOL
REMARK 927      BINDING AFFINITY PREDICTED BY RF-SCORE:    0.00 PKD
ROOT
HETATM    1  O   UNL     1      -7.834   3.599  70.083  1.00  0.00    -0.047 OA 
HETATM    2  S   UNL     1      -9.089   3.358  71.069  1.00  0.00    -0.125 S  
HETATM    3  O   UNL     1     -10.119   4.575  70.729  1.00  0.00    -0.214 OA 
HETATM    4  O   UNL     1      -8.601   3.503  72.427  1.00  0.00    -0.083 OA 
HETATM    5  O   UNL     1      -9.691   2.119  70.633  1.00  0.00    -0.111 OA 
ENDROOT
BRANCH   3   6
HETATM    6  N   UNL     1      -9.794   5.874  71.285  1.00  0.00    -0.173 N  
HETATM    7  C   UNL     1     -10.940   6.308  72.085  1.00  0.00    -0.257 C  
HETATM    8  C   UNL     1     -11.875   6.798  70.996  1.00  0.00    -0.376 C  
HETATM    9  N   UNL     1     -10.943   7.572  70.188  1.00  0.00    -0.259 N  
HETATM   10  C   UNL     1     -10.649   8.889  70.791  1.00  0.00    -0.226 C  
HETATM   11  C   UNL     1      -9.787   6.717  70.110  1.00  0.00    -0.177 C  
HETATM   12  O   UNL     1      -9.037   6.662  69.147  1.00  0.00    -0.137 OA 
HETATM   13  C   UNL     1     -10.043   8.723  72.202  1.00  0.00    -0.362 C  
HETATM   14  C   UNL     1     -10.664   7.547  72.977  1.00  0.00    -0.438 C  
BRANCH  10  15
HETATM   15  C   UNL     1      -9.789   9.896  69.992  1.00  0.00    -0.243 C  
HETATM   16  O   UNL     1      -8.559   9.867  70.033  1.00  0.00    -0.203 OA 
HETATM   17  N   UNL     1     -10.483  10.857  69.308  1.00  0.00    -0.285 N  
HETATM   18  H   UNL     1     -11.499  10.885  69.392  1.00  0.00     0.000 HD 
BRANCH  17  19
HETATM   19  C   UNL     1      -9.820  11.846  68.459  1.00  0.00    -0.183 C  
HETATM   20  C   UNL     1      -9.759  11.423  66.986  1.00  0.00    -0.210 C  
HETATM   21  C   UNL     1     -11.145  11.428  66.350  1.00  0.00    -0.240 C  
HETATM   22  N   UNL     1     -11.800  12.733  66.488  1.00  0.00    -0.406 NA 
HETATM   23  H   UNL     1     -12.716  12.734  66.039  1.00  0.00     0.000 HD 
HETATM   24  C   UNL     1     -11.894  13.161  67.885  1.00  0.00    -0.348 C  
HETATM   25  C   UNL     1     -10.530  13.192  68.575  1.00  0.00    -0.262 C  
ENDBRANCH  17  19
ENDBRANCH  10  15
ENDBRANCH   3   6
TORSDOF 3
ENDMDL
MODEL       87
REMARK 921   NORMALIZED FREE ENERGY PREDICTED BY IDOCK:   -4.39 KCAL/MOL
REMARK 922        TOTAL FREE ENERGY PREDICTED BY IDOCK:   -6.03 KCAL/MOL
REMARK 923 INTER-LIGAND FREE ENERGY PREDICTED BY IDOCK:   -5.29 KCAL/MOL
REMARK 924 INTRA-LIGAND FREE ENERGY PREDICTED BY IDOCK:   -0.74 KCAL/MOL
REMARK 927      BINDING AFFINITY PREDICTED BY RF-SCORE:    0.00 PKD
ROOT
HETATM    1  O   UNL     1      -7.712   9.337  62.862  1.00  0.00    -0.115 OA 
HETATM    2  S   UNL     1      -7.363   8.274  64.024  1.00  0.00    -0.109 S  
HETATM    3  O   UNL     1      -8.613   8.379  65.066  1.00  0.00    -0.169 OA 
HETATM    4  O   UNL     1      -6.151   8.734  64.676  1.00  0.00    -0.064 OA 
HETATM    5  O   UNL     1      -7.410   6.977  63.389  1.00  0.00    -0.068 OA 
ENDROOT
BRANCH   3   6
HETATM    6  N   UNL     1      -8.617   9.519  65.962  1.00  0.00    -0.130 N  
HETATM    7  C   UNL     1      -8.733   9.004  67.328  1.00  0.00    -0.118 C  
HETATM    8  C   UNL     1     -10.219   8.709  67.392  1.00  0.00    -0.262 C  
HETATM    9  N   UNL     1     -10.748   9.928  66.797  1.00  0.00    -0.137 N  
HETATM   10  C   UNL     1     -10.739  11.059  67.749  1.00  0.00    -0.227 C  
HETATM   11  C   UNL     1      -9.887  10.140  65.662  1.00  0.00    -0.280 C  
HETATM   12  O   UNL     1     -10.249  10.646  64.610  1.00  0.00    -0.333 OA 
HETATM   13  C   UNL     1      -9.303  11.345  68.245  1.00  0.00    -0.187 C  
HETATM   14  C   UNL     1      -8.475  10.062  68.433  1.00  0.00    -0.112 C  
BRANCH  10  15
HETATM   15  C   UNL     1     -11.398  12.392  67.325  1.00  0.00    -0.323 C  
HETATM   16  O   UNL     1     -12.261  12.434  66.449  1.00  0.00    -0.604 OA 
HETATM   17  N   UNL     1     -10.903  13.516  67.930  1.00  0.00    -0.242 N  
HETATM   18  H   UNL     1     -10.120  13.423  68.577  1.00  0.00     0.000 HD 
BRANCH  17  19
HETATM   19  C   UNL     1     -11.458  14.847  67.682  1.00  0.00    -0.352 C  
HETATM   20  C   UNL     1     -11.685  15.648  68.969  1.00  0.00    -0.408 C  
HETATM   21  C   UNL     1     -10.362  16.039  69.619  1.00  0.00    -0.283 C  
HETATM   22  N   UNL     1      -9.501  16.780  68.693  1.00  0.00    -0.247 NA 
HETATM   23  H   UNL     1      -8.629  17.059  69.144  1.00  0.00     0.000 HD 
HETATM   24  C   UNL     1      -9.245  16.037  67.458  1.00  0.00    -0.211 C  
HETATM   25  C   UNL     1     -10.536  15.629  66.749  1.00  0.00    -0.307 C  
ENDBRANCH  17  19
ENDBRANCH  10  15
ENDBRANCH   3   6
TORSDOF 3
ENDMDL
MODEL       88
REMARK 921   NORMALIZED FREE ENERGY PREDICTED BY IDOCK:   -4.38 KCAL/MOL
REMARK 922        TOTAL FREE ENERGY PREDICTED BY IDOCK:   -6.02 KCAL/MOL
REMARK 923 INTER-LIGAND FREE ENERGY PREDICTED BY IDOCK:   -5.25 KCAL/MOL
REMARK 924 INTRA-LIGAND FREE ENERGY PREDICTED BY IDOCK:   -0.77 KCAL/MOL
REMARK 927      BINDING AFFINITY PREDICTED BY RF-SCORE:    0.00 PKD
ROOT
HETATM    1  O   UNL     1      -5.623  10.736  68.679  1.00  0.00    -0.041 OA 
HETATM    2  S   UNL     1      -6.186  10.817  67.170  1.00  0.00    -0.071 S  
HETATM    3  O   UNL     1      -7.763  10.420  67.296  1.00  0.00    -0.098 OA 
HETATM    4  O   UNL     1      -5.493   9.802  66.399  1.00  0.00    -0.043 OA 
HETATM    5  O   UNL     1      -6.098  12.210  66.798  1.00  0.00    -0.204 OA 
ENDROOT
BRANCH   3   6
HETATM    6  N   UNL     1      -8.066   9.010  67.448  1.00  0.00    -0.107 N  
HETATM    7  C   UNL     1      -8.783   8.583  66.245  1.00  0.00    -0.142 C  
HETATM    8  C   UNL     1     -10.173   9.109  66.545  1.00  0.00    -0.252 C  
HETATM    9  N   UNL     1     -10.317   8.680  67.929  1.00  0.00    -0.226 N  
HETATM   10  C   UNL     1     -10.633   7.240  68.032  1.00  0.00    -0.189 C  
HETATM   11  C   UNL     1      -9.045   9.021  68.512  1.00  0.00    -0.133 C  
HETATM   12  O   UNL     1      -8.894   9.371  69.673  1.00  0.00    -0.146 OA 
HETATM   13  C   UNL     1      -9.526   6.387  67.373  1.00  0.00    -0.123 C  
HETATM   14  C   UNL     1      -8.945   7.046  66.110  1.00  0.00    -0.162 C  
BRANCH  10  15
HETATM   15  C   UNL     1     -10.958   6.648  69.424  1.00  0.00    -0.309 C  
HETATM   16  O   UNL     1     -10.721   5.472  69.696  1.00  0.00    -0.322 OA 
HETATM   17  N   UNL     1     -11.592   7.495  70.294  1.00  0.00    -0.477 N  
HETATM   18  H   UNL     1     -11.848   8.429  69.974  1.00  0.00     0.000 HD 
BRANCH  17  19
HETATM   19  C   UNL     1     -11.915   7.107  71.667  1.00  0.00    -0.318 C  
HETATM   20  C   UNL     1     -11.785   8.268  72.661  1.00  0.00    -0.406 C  
HETATM   21  C   UNL     1     -12.866   9.318  72.429  1.00  0.00    -0.346 C  
HETATM   22  N   UNL     1     -14.210   8.736  72.487  1.00  0.00    -0.756 NA 
HETATM   23  H   UNL     1     -14.927   9.449  72.356  1.00  0.00     0.000 HD 
HETATM   24  C   UNL     1     -14.378   7.635  71.536  1.00  0.00    -0.452 C  
HETATM   25  C   UNL     1     -13.331   6.538  71.727  1.00  0.00     0.074 C  
ENDBRANCH  17  19
ENDBRANCH  10  15
ENDBRANCH   3   6
TORSDOF 3
ENDMDL
MODEL       89
REMARK 921   NORMALIZED FREE ENERGY PREDICTED BY IDOCK:   -4.37 KCAL/MOL
REMARK 922        TOTAL FREE ENERGY PREDICTED BY IDOCK:   -6.00 KCAL/MOL
REMARK 923 INTER-LIGAND FREE ENERGY PREDICTED BY IDOCK:   -5.88 KCAL/MOL
REMARK 924 INTRA-LIGAND FREE ENERGY PREDICTED BY IDOCK:   -0.12 KCAL/MOL
REMARK 927      BINDING AFFINITY PREDICTED BY RF-SCORE:    0.00 PKD
ROOT
HETATM    1  O   UNL     1     -10.013   3.150  71.488  1.00  0.00    -0.160 OA 
HETATM    2  S   UNL     1     -10.396   4.018  72.793  1.00  0.00    -0.156 S  
HETATM    3  O   UNL     1     -11.175   5.324  72.205  1.00  0.00    -0.204 OA 
HETATM    4  O   UNL     1      -9.152   4.434  73.411  1.00  0.00    -0.110 OA 
HETATM    5  O   UNL     1     -11.348   3.214  73.526  1.00  0.00    -0.224 OA 
ENDROOT
BRANCH   3   6
HETATM    6  N   UNL     1     -10.349   6.365  71.624  1.00  0.00    -0.203 N  
HETATM    7  C   UNL     1     -10.341   7.491  72.559  1.00  0.00    -0.240 C  
HETATM    8  C   UNL     1     -11.684   8.123  72.251  1.00  0.00    -0.379 C  
HETATM    9  N   UNL     1     -11.647   8.106  70.796  1.00  0.00    -0.270 N  
HETATM   10  C   UNL     1     -10.800   9.188  70.251  1.00  0.00    -0.246 C  
HETATM   11  C   UNL     1     -11.144   6.792  70.495  1.00  0.00    -0.298 C  
HETATM   12  O   UNL     1     -11.461   6.144  69.508  1.00  0.00    -0.429 OA 
HETATM   13  C   UNL     1      -9.351   9.066  70.774  1.00  0.00    -0.305 C  
HETATM   14  C   UNL     1      -9.288   8.583  72.233  1.00  0.00    -0.363 C  
BRANCH  10  15
HETATM   15  C   UNL     1     -10.763   9.403  68.719  1.00  0.00    -0.171 C  
HETATM   16  O   UNL     1     -10.590   8.466  67.941  1.00  0.00    -0.220 OA 
HETATM   17  N   UNL     1     -10.857  10.703  68.301  1.00  0.00    -0.221 N  
HETATM   18  H   UNL     1     -10.901  11.444  69.001  1.00  0.00     0.000 HD 
BRANCH  17  19
HETATM   19  C   UNL     1     -10.896  11.069  66.885  1.00  0.00    -0.269 C  
HETATM   20  C   UNL     1     -11.628  12.392  66.631  1.00  0.00    -0.447 C  
HETATM   21  C   UNL     1     -10.838  13.576  67.179  1.00  0.00    -0.284 C  
HETATM   22  N   UNL     1      -9.480  13.622  66.632  1.00  0.00    -0.275 NA 
HETATM   23  H   UNL     1      -8.967  14.431  66.985  1.00  0.00     0.000 HD 
HETATM   24  C   UNL     1      -8.742  12.381  66.874  1.00  0.00    -0.191 C  
HETATM   25  C   UNL     1      -9.476  11.155  66.331  1.00  0.00    -0.216 C  
ENDBRANCH  17  19
ENDBRANCH  10  15
ENDBRANCH   3   6
TORSDOF 3
ENDMDL
MODEL       90
REMARK 921   NORMALIZED FREE ENERGY PREDICTED BY IDOCK:   -4.36 KCAL/MOL
REMARK 922        TOTAL FREE ENERGY PREDICTED BY IDOCK:   -5.99 KCAL/MOL
REMARK 923 INTER-LIGAND FREE ENERGY PREDICTED BY IDOCK:   -5.21 KCAL/MOL
REMARK 924 INTRA-LIGAND FREE ENERGY PREDICTED BY IDOCK:   -0.78 KCAL/MOL
REMARK 927      BINDING AFFINITY PREDICTED BY RF-SCORE:    0.00 PKD
ROOT
HETATM    1  O   UNL     1     -12.516  10.720  69.834  1.00  0.00    -0.322 OA 
HETATM    2  S   UNL     1     -13.006  10.295  71.311  1.00  0.00    -0.434 S  
HETATM    3  O   UNL     1     -11.718   9.545  71.972  1.00  0.00    -0.331 OA 
HETATM    4  O   UNL     1     -14.087   9.341  71.145  1.00  0.00    -0.200 OA 
HETATM    5  O   UNL     1     -13.223  11.535  72.019  1.00  0.00    -0.509 OA 
ENDROOT
BRANCH   3   6
HETATM    6  N   UNL     1     -11.471   8.182  71.545  1.00  0.00    -0.258 N  
HETATM    7  C   UNL     1     -11.410   7.349  72.747  1.00  0.00    -0.308 C  
HETATM    8  C   UNL     1     -10.006   7.653  73.230  1.00  0.00    -0.320 C  
HETATM    9  N   UNL     1      -9.275   7.549  71.975  1.00  0.00    -0.131 N  
HETATM   10  C   UNL     1      -9.041   6.143  71.585  1.00  0.00    -0.145 C  
HETATM   11  C   UNL     1     -10.116   8.258  71.046  1.00  0.00    -0.191 C  
HETATM   12  O   UNL     1      -9.699   8.899  70.093  1.00  0.00    -0.166 OA 
HETATM   13  C   UNL     1     -10.379   5.387  71.430  1.00  0.00    -0.294 C  
HETATM   14  C   UNL     1     -11.428   5.823  72.468  1.00  0.00    -0.349 C  
BRANCH  10  15
HETATM   15  C   UNL     1      -8.156   5.852  70.350  1.00  0.00    -0.107 C  
HETATM   16  O   UNL     1      -7.256   6.618  70.007  1.00  0.00    -0.075 OA 
HETATM   17  N   UNL     1      -8.492   4.737  69.630  1.00  0.00    -0.081 N  
HETATM   18  H   UNL     1      -9.310   4.197  69.911  1.00  0.00     0.000 HD 
BRANCH  17  19
HETATM   19  C   UNL     1      -7.719   4.293  68.470  1.00  0.00    -0.070 C  
HETATM   20  C   UNL     1      -7.639   2.765  68.357  1.00  0.00    -0.051 C  
HETATM   21  C   UNL     1      -8.996   2.164  68.006  1.00  0.00    -0.148 C  
HETATM   22  N   UNL     1      -9.546   2.746  66.779  1.00  0.00    -0.404 NA 
HETATM   23  H   UNL     1     -10.442   2.321  66.539  1.00  0.00     0.000 HD 
HETATM   24  C   UNL     1      -9.656   4.204  66.858  1.00  0.00    -0.209 C  
HETATM   25  C   UNL     1      -8.321   4.869  67.191  1.00  0.00    -0.106 C  
ENDBRANCH  17  19
ENDBRANCH  10  15
ENDBRANCH   3   6
TORSDOF 3
ENDMDL
MODEL       91
REMARK 921   NORMALIZED FREE ENERGY PREDICTED BY IDOCK:   -4.30 KCAL/MOL
REMARK 922        TOTAL FREE ENERGY PREDICTED BY IDOCK:   -5.92 KCAL/MOL
REMARK 923 INTER-LIGAND FREE ENERGY PREDICTED BY IDOCK:   -5.29 KCAL/MOL
REMARK 924 INTRA-LIGAND FREE ENERGY PREDICTED BY IDOCK:   -0.63 KCAL/MOL
REMARK 927      BINDING AFFINITY PREDICTED BY RF-SCORE:    0.00 PKD
ROOT
HETATM    1  O   UNL     1      -8.710   9.529  63.058  1.00  0.00    -0.205 OA 
HETATM    2  S   UNL     1      -7.472   8.979  63.934  1.00  0.00    -0.115 S  
HETATM    3  O   UNL     1      -8.070   8.829  65.444  1.00  0.00    -0.111 OA 
HETATM    4  O   UNL     1      -6.448  10.005  63.919  1.00  0.00    -0.122 OA 
HETATM    5  O   UNL     1      -7.194   7.656  63.423  1.00  0.00    -0.074 OA 
ENDROOT
BRANCH   3   6
HETATM    6  N   UNL     1      -8.208  10.053  66.211  1.00  0.00    -0.121 N  
HETATM    7  C   UNL     1      -7.468   9.873  67.461  1.00  0.00    -0.091 C  
HETATM    8  C   UNL     1      -8.456   9.040  68.254  1.00  0.00    -0.129 C  
HETATM    9  N   UNL     1      -9.685   9.773  67.984  1.00  0.00    -0.143 N  
HETATM   10  C   UNL     1      -9.784  11.006  68.793  1.00  0.00    -0.191 C  
HETATM   11  C   UNL     1      -9.608  10.032  66.570  1.00  0.00    -0.187 C  
HETATM   12  O   UNL     1     -10.577  10.091  65.828  1.00  0.00    -0.089 OA 
HETATM   13  C   UNL     1      -8.588  11.944  68.512  1.00  0.00    -0.110 C  
HETATM   14  C   UNL     1      -7.275  11.175  68.282  1.00  0.00    -0.083 C  
BRANCH  10  15
HETATM   15  C   UNL     1     -11.091  11.831  68.734  1.00  0.00    -0.241 C  
HETATM   16  O   UNL     1     -12.128  11.361  68.267  1.00  0.00    -0.606 OA 
HETATM   17  N   UNL     1     -10.994  13.128  69.161  1.00  0.00    -0.404 N  
HETATM   18  H   UNL     1     -10.082  13.485  69.446  1.00  0.00     0.000 HD 
BRANCH  17  19
HETATM   19  C   UNL     1     -12.151  14.020  69.222  1.00  0.00    -0.338 C  
HETATM   20  C   UNL     1     -12.698  14.191  70.645  1.00  0.00    -0.389 C  
HETATM   21  C   UNL     1     -11.725  14.971  71.522  1.00  0.00    -0.370 C  
HETATM   22  N   UNL     1     -11.391  16.273  70.937  1.00  0.00    -0.466 NA 
HETATM   23  H   UNL     1     -10.760  16.798  71.542  1.00  0.00     0.000 HD 
HETATM   24  C   UNL     1     -10.847  16.149  69.583  1.00  0.00    -0.338 C  
HETATM   25  C   UNL     1     -11.785  15.387  68.648  1.00  0.00    -0.371 C  
ENDBRANCH  17  19
ENDBRANCH  10  15
ENDBRANCH   3   6
TORSDOF 3
ENDMDL
MODEL       92
REMARK 921   NORMALIZED FREE ENERGY PREDICTED BY IDOCK:   -4.24 KCAL/MOL
REMARK 922        TOTAL FREE ENERGY PREDICTED BY IDOCK:   -5.85 KCAL/MOL
REMARK 923 INTER-LIGAND FREE ENERGY PREDICTED BY IDOCK:   -5.47 KCAL/MOL
REMARK 924 INTRA-LIGAND FREE ENERGY PREDICTED BY IDOCK:   -0.38 KCAL/MOL
REMARK 927      BINDING AFFINITY PREDICTED BY RF-SCORE:    0.00 PKD
ROOT
HETATM    1  O   UNL     1      -9.840   4.838  69.981  1.00  0.00    -0.189 OA 
HETATM    2  S   UNL     1     -10.288   5.965  71.045  1.00  0.00    -0.234 S  
HETATM    3  O   UNL     1     -10.778   7.223  70.131  1.00  0.00    -0.232 OA 
HETATM    4  O   UNL     1      -9.104   6.342  71.793  1.00  0.00    -0.143 OA 
HETATM    5  O   UNL     1     -11.442   5.420  71.723  1.00  0.00    -0.054 OA 
ENDROOT
BRANCH   3   6
HETATM    6  N   UNL     1      -9.735   8.041  69.542  1.00  0.00    -0.168 N  
HETATM    7  C   UNL     1      -9.435   9.118  70.487  1.00  0.00    -0.242 C  
HETATM    8  C   UNL     1     -10.591  10.061  70.214  1.00  0.00    -0.295 C  
HETATM    9  N   UNL     1     -10.587  10.057  68.759  1.00  0.00    -0.208 N  
HETATM   10  C   UNL     1      -9.513  10.909  68.205  1.00  0.00    -0.168 C  
HETATM   11  C   UNL     1     -10.424   8.664  68.434  1.00  0.00    -0.176 C  
HETATM   12  O   UNL     1     -10.908   8.127  67.449  1.00  0.00    -0.226 OA 
HETATM   13  C   UNL     1      -8.128  10.432  68.694  1.00  0.00    -0.118 C  
HETATM   14  C   UNL     1      -8.155   9.927  70.148  1.00  0.00    -0.169 C  
BRANCH  10  15
HETATM   15  C   UNL     1      -9.455  11.131  66.675  1.00  0.00    -0.183 C  
HETATM   16  O   UNL     1      -8.815  10.381  65.940  1.00  0.00    -0.153 OA 
HETATM   17  N   UNL     1     -10.094  12.251  66.214  1.00  0.00    -0.229 N  
HETATM   18  H   UNL     1     -10.524  12.884  66.887  1.00  0.00     0.000 HD 
BRANCH  17  19
HETATM   19  C   UNL     1     -10.180  12.571  64.790  1.00  0.00    -0.280 C  
HETATM   20  C   UNL     1     -11.314  11.824  64.078  1.00  0.00    -0.461 C  
HETATM   21  C   UNL     1     -12.680  12.324  64.537  1.00  0.00    -0.243 C  
HETATM   22  N   UNL     1     -12.818  13.772  64.352  1.00  0.00    -0.567 NA 
HETATM   23  H   UNL     1     -13.743  14.093  64.638  1.00  0.00     0.000 HD 
HETATM   24  C   UNL     1     -11.762  14.521  65.035  1.00  0.00    -0.392 C  
HETATM   25  C   UNL     1     -10.364  14.076  64.605  1.00  0.00    -0.337 C  
ENDBRANCH  17  19
ENDBRANCH  10  15
ENDBRANCH   3   6
TORSDOF 3
ENDMDL
MODEL       93
REMARK 921   NORMALIZED FREE ENERGY PREDICTED BY IDOCK:   -4.23 KCAL/MOL
REMARK 922        TOTAL FREE ENERGY PREDICTED BY IDOCK:   -5.84 KCAL/MOL
REMARK 923 INTER-LIGAND FREE ENERGY PREDICTED BY IDOCK:   -5.31 KCAL/MOL
REMARK 924 INTRA-LIGAND FREE ENERGY PREDICTED BY IDOCK:   -0.53 KCAL/MOL
REMARK 927      BINDING AFFINITY PREDICTED BY RF-SCORE:    0.00 PKD
ROOT
HETATM    1  O   UNL     1      -9.671   3.677  67.602  1.00  0.00    -0.176 OA 
HETATM    2  S   UNL     1      -8.924   4.364  66.348  1.00  0.00    -0.123 S  
HETATM    3  O   UNL     1      -8.435   5.816  66.906  1.00  0.00    -0.108 OA 
HETATM    4  O   UNL     1      -9.919   4.556  65.310  1.00  0.00    -0.187 OA 
HETATM    5  O   UNL     1      -7.753   3.554  66.104  1.00  0.00    -0.080 OA 
ENDROOT
BRANCH   3   6
HETATM    6  N   UNL     1      -9.449   6.848  67.005  1.00  0.00    -0.145 N  
HETATM    7  C   UNL     1      -8.938   8.033  66.314  1.00  0.00    -0.171 C  
HETATM    8  C   UNL     1      -7.999   8.590  67.366  1.00  0.00    -0.102 C  
HETATM    9  N   UNL     1      -8.843   8.479  68.547  1.00  0.00    -0.139 N  
HETATM   10  C   UNL     1      -9.854   9.555  68.608  1.00  0.00    -0.162 C  
HETATM   11  C   UNL     1      -9.423   7.168  68.414  1.00  0.00    -0.138 C  
HETATM   12  O   UNL     1      -9.709   6.445  69.357  1.00  0.00    -0.144 OA 
HETATM   13  C   UNL     1     -10.763   9.525  67.359  1.00  0.00    -0.297 C  
HETATM   14  C   UNL     1      -9.998   9.142  66.080  1.00  0.00    -0.338 C  
BRANCH  10  15
HETATM   15  C   UNL     1     -10.742   9.670  69.870  1.00  0.00    -0.252 C  
HETATM   16  O   UNL     1     -11.658  10.488  69.941  1.00  0.00    -0.263 OA 
HETATM   17  N   UNL     1     -10.390   8.862  70.917  1.00  0.00    -0.221 N  
HETATM   18  H   UNL     1      -9.560   8.276  70.830  1.00  0.00     0.000 HD 
BRANCH  17  19
HETATM   19  C   UNL     1     -11.162   8.809  72.159  1.00  0.00    -0.338 C  
HETATM   20  C   UNL     1     -12.640   8.473  71.928  1.00  0.00    -0.400 C  
HETATM   21  C   UNL     1     -12.814   7.033  71.457  1.00  0.00    -0.372 C  
HETATM   22  N   UNL     1     -12.206   6.080  72.390  1.00  0.00    -0.498 NA 
HETATM   23  H   UNL     1     -12.348   5.119  72.079  1.00  0.00     0.000 HD 
HETATM   24  C   UNL     1     -10.787   6.358  72.620  1.00  0.00    -0.240 C  
HETATM   25  C   UNL     1     -10.548   7.786  73.111  1.00  0.00    -0.415 C  
ENDBRANCH  17  19
ENDBRANCH  10  15
ENDBRANCH   3   6
TORSDOF 3
ENDMDL
MODEL       94
REMARK 921   NORMALIZED FREE ENERGY PREDICTED BY IDOCK:   -4.22 KCAL/MOL
REMARK 922        TOTAL FREE ENERGY PREDICTED BY IDOCK:   -5.83 KCAL/MOL
REMARK 923 INTER-LIGAND FREE ENERGY PREDICTED BY IDOCK:   -4.97 KCAL/MOL
REMARK 924 INTRA-LIGAND FREE ENERGY PREDICTED BY IDOCK:   -0.86 KCAL/MOL
REMARK 927      BINDING AFFINITY PREDICTED BY RF-SCORE:    0.00 PKD
ROOT
HETATM    1  O   UNL     1      -9.098   4.929  67.567  1.00  0.00    -0.113 OA 
HETATM    2  S   UNL     1      -9.097   4.261  69.036  1.00  0.00    -0.144 S  
HETATM    3  O   UNL     1     -10.220   5.100  69.870  1.00  0.00    -0.255 OA 
HETATM    4  O   UNL     1      -7.788   4.499  69.614  1.00  0.00    -0.057 OA 
HETATM    5  O   UNL     1      -9.584   2.914  68.848  1.00  0.00    -0.144 OA 
ENDROOT
BRANCH   3   6
HETATM    6  N   UNL     1      -9.827   6.411  70.349  1.00  0.00    -0.168 N  
HETATM    7  C   UNL     1     -10.125   6.463  71.781  1.00  0.00    -0.185 C  
HETATM    8  C   UNL     1     -11.620   6.714  71.748  1.00  0.00    -0.304 C  
HETATM    9  N   UNL     1     -11.682   7.758  70.735  1.00  0.00    -0.264 N  
HETATM   10  C   UNL     1     -11.281   9.076  71.271  1.00  0.00    -0.315 C  
HETATM   11  C   UNL     1     -10.795   7.273  69.710  1.00  0.00    -0.235 C  
HETATM   12  O   UNL     1     -10.950   7.478  68.515  1.00  0.00    -0.052 OA 
HETATM   13  C   UNL     1      -9.839   9.025  71.827  1.00  0.00    -0.330 C  
HETATM   14  C   UNL     1      -9.517   7.687  72.515  1.00  0.00    -0.222 C  
BRANCH  10  15
HETATM   15  C   UNL     1     -11.425  10.322  70.366  1.00  0.00    -0.335 C  
HETATM   16  O   UNL     1     -12.354  11.116  70.507  1.00  0.00    -0.326 OA 
HETATM   17  N   UNL     1     -10.503  10.433  69.361  1.00  0.00    -0.224 N  
HETATM   18  H   UNL     1      -9.816   9.690  69.238  1.00  0.00     0.000 HD 
BRANCH  17  19
HETATM   19  C   UNL     1     -10.467  11.582  68.456  1.00  0.00    -0.208 C  
HETATM   20  C   UNL     1      -9.045  12.096  68.200  1.00  0.00    -0.196 C  
HETATM   21  C   UNL     1      -8.235  11.098  67.379  1.00  0.00    -0.132 C  
HETATM   22  N   UNL     1      -8.901  10.767  66.116  1.00  0.00    -0.171 NA 
HETATM   23  H   UNL     1      -8.341  10.118  65.563  1.00  0.00     0.000 HD 
HETATM   24  C   UNL     1     -10.257  10.254  66.322  1.00  0.00    -0.221 C  
HETATM   25  C   UNL     1     -11.127  11.219  67.127  1.00  0.00    -0.364 C  
ENDBRANCH  17  19
ENDBRANCH  10  15
ENDBRANCH   3   6
TORSDOF 3
ENDMDL
MODEL       95
REMARK 921   NORMALIZED FREE ENERGY PREDICTED BY IDOCK:   -4.22 KCAL/MOL
REMARK 922        TOTAL FREE ENERGY PREDICTED BY IDOCK:   -5.82 KCAL/MOL
REMARK 923 INTER-LIGAND FREE ENERGY PREDICTED BY IDOCK:   -5.29 KCAL/MOL
REMARK 924 INTRA-LIGAND FREE ENERGY PREDICTED BY IDOCK:   -0.53 KCAL/MOL
REMARK 927      BINDING AFFINITY PREDICTED BY RF-SCORE:    0.00 PKD
ROOT
HETATM    1  O   UNL     1     -11.240   6.096  67.712  1.00  0.00    -0.294 OA 
HETATM    2  S   UNL     1      -9.683   6.115  67.290  1.00  0.00    -0.137 S  
HETATM    3  O   UNL     1      -9.266   7.691  67.325  1.00  0.00    -0.127 OA 
HETATM    4  O   UNL     1      -9.603   5.624  65.928  1.00  0.00    -0.128 OA 
HETATM    5  O   UNL     1      -8.985   5.437  68.358  1.00  0.00    -0.108 OA 
ENDROOT
BRANCH   3   6
HETATM    6  N   UNL     1      -9.691   8.500  66.199  1.00  0.00    -0.226 N  
HETATM    7  C   UNL     1      -8.502   8.799  65.400  1.00  0.00    -0.170 C  
HETATM    8  C   UNL     1      -7.890   9.920  66.216  1.00  0.00    -0.108 C  
HETATM    9  N   UNL     1      -9.075  10.723  66.478  1.00  0.00    -0.162 N  
HETATM   10  C   UNL     1      -9.464  11.535  65.306  1.00  0.00    -0.184 C  
HETATM   11  C   UNL     1     -10.064   9.742  66.838  1.00  0.00    -0.226 C  
HETATM   12  O   UNL     1     -10.965   9.936  67.640  1.00  0.00    -0.289 OA 
HETATM   13  C   UNL     1      -9.752  10.632  64.086  1.00  0.00    -0.378 C  
HETATM   14  C   UNL     1      -8.806   9.420  64.011  1.00  0.00    -0.210 C  
BRANCH  10  15
HETATM   15  C   UNL     1     -10.619  12.554  65.458  1.00  0.00    -0.275 C  
HETATM   16  O   UNL     1     -11.747  12.317  65.029  1.00  0.00    -0.352 OA 
HETATM   17  N   UNL     1     -10.280  13.753  66.025  1.00  0.00    -0.301 N  
HETATM   18  H   UNL     1      -9.305  13.923  66.271  1.00  0.00     0.000 HD 
BRANCH  17  19
HETATM   19  C   UNL     1     -11.267  14.799  66.291  1.00  0.00    -0.343 C  
HETATM   20  C   UNL     1     -12.257  14.417  67.399  1.00  0.00    -0.230 C  
HETATM   21  C   UNL     1     -11.571  14.359  68.759  1.00  0.00    -0.315 C  
HETATM   22  N   UNL     1     -10.897  15.620  69.080  1.00  0.00    -0.230 NA 
HETATM   23  H   UNL     1     -10.461  15.581  70.002  1.00  0.00     0.000 HD 
HETATM   24  C   UNL     1      -9.928  16.008  68.053  1.00  0.00    -0.229 C  
HETATM   25  C   UNL     1     -10.560  16.099  66.664  1.00  0.00    -0.274 C  
ENDBRANCH  17  19
ENDBRANCH  10  15
ENDBRANCH   3   6
TORSDOF 3
ENDMDL
MODEL       96
REMARK 921   NORMALIZED FREE ENERGY PREDICTED BY IDOCK:   -4.20 KCAL/MOL
REMARK 922        TOTAL FREE ENERGY PREDICTED BY IDOCK:   -5.81 KCAL/MOL
REMARK 923 INTER-LIGAND FREE ENERGY PREDICTED BY IDOCK:   -4.96 KCAL/MOL
REMARK 924 INTRA-LIGAND FREE ENERGY PREDICTED BY IDOCK:   -0.84 KCAL/MOL
REMARK 927      BINDING AFFINITY PREDICTED BY RF-SCORE:    0.00 PKD
ROOT
HETATM    1  O   UNL     1      -9.307   3.770  68.985  1.00  0.00    -0.148 OA 
HETATM    2  S   UNL     1      -9.362   3.852  70.595  1.00  0.00    -0.169 S  
HETATM    3  O   UNL     1     -10.424   5.048  70.911  1.00  0.00    -0.216 OA 
HETATM    4  O   UNL     1      -8.042   4.245  71.050  1.00  0.00    -0.069 OA 
HETATM    5  O   UNL     1      -9.946   2.602  71.026  1.00  0.00    -0.068 OA 
ENDROOT
BRANCH   3   6
HETATM    6  N   UNL     1      -9.938   6.405  70.753  1.00  0.00    -0.184 N  
HETATM    7  C   UNL     1     -10.062   7.070  72.051  1.00  0.00    -0.185 C  
HETATM    8  C   UNL     1     -11.542   7.399  72.058  1.00  0.00    -0.284 C  
HETATM    9  N   UNL     1     -11.694   7.929  70.711  1.00  0.00    -0.260 N  
HETATM   10  C   UNL     1     -11.192   9.315  70.601  1.00  0.00    -0.276 C  
HETATM   11  C   UNL     1     -10.950   6.995  69.905  1.00  0.00    -0.263 C  
HETATM   12  O   UNL     1     -11.239   6.697  68.756  1.00  0.00    -0.248 OA 
HETATM   13  C   UNL     1      -9.697   9.389  70.985  1.00  0.00    -0.293 C  
HETATM   14  C   UNL     1      -9.336   8.438  72.139  1.00  0.00    -0.339 C  
BRANCH  10  15
HETATM   15  C   UNL     1     -11.406  10.079  69.273  1.00  0.00    -0.117 C  
HETATM   16  O   UNL     1     -12.381  10.810  69.100  1.00  0.00    -0.400 OA 
HETATM   17  N   UNL     1     -10.488   9.827  68.289  1.00  0.00    -0.205 N  
HETATM   18  H   UNL     1      -9.758   9.137  68.463  1.00  0.00     0.000 HD 
BRANCH  17  19
HETATM   19  C   UNL     1     -10.517  10.513  66.998  1.00  0.00    -0.249 C  
HETATM   20  C   UNL     1      -9.746  11.839  67.009  1.00  0.00    -0.198 C  
HETATM   21  C   UNL     1      -8.245  11.606  67.142  1.00  0.00    -0.165 C  
HETATM   22  N   UNL     1      -7.738  10.722  66.089  1.00  0.00    -0.151 NA 
HETATM   23  H   UNL     1      -6.730  10.591  66.171  1.00  0.00     0.000 HD 
HETATM   24  C   UNL     1      -8.438   9.436  66.060  1.00  0.00    -0.124 C  
HETATM   25  C   UNL     1      -9.950   9.602  65.912  1.00  0.00    -0.351 C  
ENDBRANCH  17  19
ENDBRANCH  10  15
ENDBRANCH   3   6
TORSDOF 3
ENDMDL
MODEL       97
REMARK 921   NORMALIZED FREE ENERGY PREDICTED BY IDOCK:   -4.19 KCAL/MOL
REMARK 922        TOTAL FREE ENERGY PREDICTED BY IDOCK:   -5.79 KCAL/MOL
REMARK 923 INTER-LIGAND FREE ENERGY PREDICTED BY IDOCK:   -5.10 KCAL/MOL
REMARK 924 INTRA-LIGAND FREE ENERGY PREDICTED BY IDOCK:   -0.69 KCAL/MOL
REMARK 927      BINDING AFFINITY PREDICTED BY RF-SCORE:    0.00 PKD
ROOT
HETATM    1  O   UNL     1     -10.849   6.178  66.801  1.00  0.00    -0.319 OA 
HETATM    2  S   UNL     1      -9.242   6.141  66.938  1.00  0.00    -0.133 S  
HETATM    3  O   UNL     1      -8.874   7.454  67.831  1.00  0.00    -0.132 OA 
HETATM    4  O   UNL     1      -8.695   6.295  65.603  1.00  0.00    -0.154 OA 
HETATM    5  O   UNL     1      -8.948   4.963  67.721  1.00  0.00    -0.106 OA 
ENDROOT
BRANCH   3   6
HETATM    6  N   UNL     1      -8.893   8.732  67.145  1.00  0.00    -0.126 N  
HETATM    7  C   UNL     1      -7.595   9.371  67.371  1.00  0.00    -0.095 C  
HETATM    8  C   UNL     1      -7.788   9.908  68.775  1.00  0.00    -0.091 C  
HETATM    9  N   UNL     1      -9.115  10.492  68.647  1.00  0.00    -0.151 N  
HETATM   10  C   UNL     1      -9.083  11.794  67.949  1.00  0.00    -0.181 C  
HETATM   11  C   UNL     1      -9.848   9.485  67.926  1.00  0.00    -0.156 C  
HETATM   12  O   UNL     1     -11.041   9.263  68.076  1.00  0.00    -0.082 OA 
HETATM   13  C   UNL     1      -8.481  11.643  66.533  1.00  0.00    -0.141 C  
HETATM   14  C   UNL     1      -7.335  10.617  66.485  1.00  0.00    -0.134 C  
BRANCH  10  15
HETATM   15  C   UNL     1     -10.388  12.619  67.852  1.00  0.00    -0.218 C  
HETATM   16  O   UNL     1     -11.115  12.560  66.861  1.00  0.00    -0.255 OA 
HETATM   17  N   UNL     1     -10.633  13.465  68.900  1.00  0.00    -0.380 N  
HETATM   18  H   UNL     1      -9.942  13.538  69.646  1.00  0.00     0.000 HD 
BRANCH  17  19
HETATM   19  C   UNL     1     -11.852  14.268  68.987  1.00  0.00    -0.335 C  
HETATM   20  C   UNL     1     -12.386  14.388  70.420  1.00  0.00    -0.406 C  
HETATM   21  C   UNL     1     -11.459  15.233  71.288  1.00  0.00    -0.380 C  
HETATM   22  N   UNL     1     -11.233  16.559  70.708  1.00  0.00    -0.433 NA 
HETATM   23  H   UNL     1     -10.631  17.126  71.307  1.00  0.00     0.000 HD 
HETATM   24  C   UNL     1     -10.703  16.485  69.345  1.00  0.00    -0.330 C  
HETATM   25  C   UNL     1     -11.598  15.662  68.418  1.00  0.00    -0.358 C  
ENDBRANCH  17  19
ENDBRANCH  10  15
ENDBRANCH   3   6
TORSDOF 3
ENDMDL
MODEL       98
REMARK 921   NORMALIZED FREE ENERGY PREDICTED BY IDOCK:   -4.17 KCAL/MOL
REMARK 922        TOTAL FREE ENERGY PREDICTED BY IDOCK:   -5.77 KCAL/MOL
REMARK 923 INTER-LIGAND FREE ENERGY PREDICTED BY IDOCK:   -4.91 KCAL/MOL
REMARK 924 INTRA-LIGAND FREE ENERGY PREDICTED BY IDOCK:   -0.86 KCAL/MOL
REMARK 927      BINDING AFFINITY PREDICTED BY RF-SCORE:    0.00 PKD
ROOT
HETATM    1  O   UNL     1     -13.650   9.609  70.692  1.00  0.00    -0.098 OA 
HETATM    2  S   UNL     1     -13.223   8.495  71.778  1.00  0.00    -0.371 S  
HETATM    3  O   UNL     1     -11.663   8.165  71.439  1.00  0.00    -0.272 OA 
HETATM    4  O   UNL     1     -14.032   7.318  71.525  1.00  0.00    -0.404 OA 
HETATM    5  O   UNL     1     -13.277   9.163  73.058  1.00  0.00    -0.269 OA 
ENDROOT
BRANCH   3   6
HETATM    6  N   UNL     1     -11.415   7.303  70.299  1.00  0.00    -0.247 N  
HETATM    7  C   UNL     1     -10.571   6.200  70.758  1.00  0.00    -0.242 C  
HETATM    8  C   UNL     1      -9.213   6.875  70.782  1.00  0.00    -0.158 C  
HETATM    9  N   UNL     1      -9.247   7.564  69.500  1.00  0.00    -0.147 N  
HETATM   10  C   UNL     1      -8.982   6.647  68.372  1.00  0.00    -0.123 C  
HETATM   11  C   UNL     1     -10.570   8.131  69.467  1.00  0.00    -0.213 C  
HETATM   12  O   UNL     1     -10.851   9.189  68.925  1.00  0.00    -0.178 OA 
HETATM   13  C   UNL     1     -10.024   5.507  68.336  1.00  0.00    -0.210 C  
HETATM   14  C   UNL     1     -10.433   5.035  69.742  1.00  0.00    -0.182 C  
BRANCH  10  15
HETATM   15  C   UNL     1      -8.841   7.241  66.950  1.00  0.00    -0.132 C  
HETATM   16  O   UNL     1      -8.837   6.524  65.950  1.00  0.00    -0.154 OA 
HETATM   17  N   UNL     1      -8.645   8.594  66.890  1.00  0.00    -0.118 N  
HETATM   18  H   UNL     1      -8.561   9.119  67.760  1.00  0.00     0.000 HD 
BRANCH  17  19
HETATM   19  C   UNL     1      -8.551   9.315  65.621  1.00  0.00    -0.153 C  
HETATM   20  C   UNL     1      -9.854  10.030  65.243  1.00  0.00    -0.388 C  
HETATM   21  C   UNL     1     -10.137  11.198  66.181  1.00  0.00    -0.238 C  
HETATM   22  N   UNL     1      -9.020  12.146  66.220  1.00  0.00    -0.368 NA 
HETATM   23  H   UNL     1      -9.228  12.936  66.831  1.00  0.00     0.000 HD 
HETATM   24  C   UNL     1      -7.760  11.502  66.597  1.00  0.00    -0.101 C  
HETATM   25  C   UNL     1      -7.411  10.329  65.681  1.00  0.00    -0.149 C  
ENDBRANCH  17  19
ENDBRANCH  10  15
ENDBRANCH   3   6
TORSDOF 3
ENDMDL
MODEL       99
REMARK 921   NORMALIZED FREE ENERGY PREDICTED BY IDOCK:   -4.14 KCAL/MOL
REMARK 922        TOTAL FREE ENERGY PREDICTED BY IDOCK:   -5.73 KCAL/MOL
REMARK 923 INTER-LIGAND FREE ENERGY PREDICTED BY IDOCK:   -5.08 KCAL/MOL
REMARK 924 INTRA-LIGAND FREE ENERGY PREDICTED BY IDOCK:   -0.65 KCAL/MOL
REMARK 927      BINDING AFFINITY PREDICTED BY RF-SCORE:    0.00 PKD
ROOT
HETATM    1  O   UNL     1      -8.325   8.222  70.949  1.00  0.00    -0.115 OA 
HETATM    2  S   UNL     1      -9.535   7.903  71.967  1.00  0.00    -0.190 S  
HETATM    3  O   UNL     1     -10.864   8.487  71.224  1.00  0.00    -0.229 OA 
HETATM    4  O   UNL     1      -9.286   8.662  73.178  1.00  0.00    -0.235 OA 
HETATM    5  O   UNL     1      -9.636   6.463  72.010  1.00  0.00    -0.153 OA 
ENDROOT
BRANCH   3   6
HETATM    6  N   UNL     1     -11.057   9.924  71.275  1.00  0.00    -0.312 N  
HETATM    7  C   UNL     1     -12.469  10.167  71.573  1.00  0.00    -0.427 C  
HETATM    8  C   UNL     1     -13.087   9.942  70.207  1.00  0.00     0.262 C  
HETATM    9  N   UNL     1     -12.157  10.694  69.378  1.00  0.00    -0.236 N  
HETATM   10  C   UNL     1     -12.397  12.150  69.456  1.00  0.00     0.030 C  
HETATM   11  C   UNL     1     -10.870  10.307  69.894  1.00  0.00    -0.302 C  
HETATM   12  O   UNL     1      -9.857  10.214  69.216  1.00  0.00    -0.197 OA 
HETATM   13  C   UNL     1     -12.261  12.650  70.912  1.00  0.00    -0.280 C  
HETATM   14  C   UNL     1     -12.801  11.638  71.937  1.00  0.00    -0.354 C  
BRANCH  10  15
HETATM   15  C   UNL     1     -11.590  13.088  68.527  1.00  0.00    -0.328 C  
HETATM   16  O   UNL     1     -11.329  14.246  68.850  1.00  0.00    -0.244 OA 
HETATM   17  N   UNL     1     -11.258  12.568  67.305  1.00  0.00    -0.278 N  
HETATM   18  H   UNL     1     -11.587  11.635  67.061  1.00  0.00     0.000 HD 
BRANCH  17  19
HETATM   19  C   UNL     1     -10.447  13.306  66.336  1.00  0.00    -0.284 C  
HETATM   20  C   UNL     1      -8.992  13.483  66.788  1.00  0.00    -0.188 C  
HETATM   21  C   UNL     1      -8.246  12.153  66.788  1.00  0.00    -0.085 C  
HETATM   22  N   UNL     1      -8.305  11.498  65.478  1.00  0.00    -0.354 NA 
HETATM   23  H   UNL     1      -7.783  10.621  65.480  1.00  0.00     0.000 HD 
HETATM   24  C   UNL     1      -9.681  11.294  65.021  1.00  0.00    -0.251 C  
HETATM   25  C   UNL     1     -10.479  12.597  64.984  1.00  0.00    -0.331 C  
ENDBRANCH  17  19
ENDBRANCH  10  15
ENDBRANCH   3   6
TORSDOF 3
ENDMDL
MODEL      100
REMARK 921   NORMALIZED FREE ENERGY PREDICTED BY IDOCK:   -4.12 KCAL/MOL
REMARK 922        TOTAL FREE ENERGY PREDICTED BY IDOCK:   -5.70 KCAL/MOL
REMARK 923 INTER-LIGAND FREE ENERGY PREDICTED BY IDOCK:   -5.02 KCAL/MOL
REMARK 924 INTRA-LIGAND FREE ENERGY PREDICTED BY IDOCK:   -0.68 KCAL/MOL
REMARK 927      BINDING AFFINITY PREDICTED BY RF-SCORE:    0.00 PKD
ROOT
HETATM    1  O   UNL     1     -11.833  13.906  64.674  1.00  0.00    -0.369 OA 
HETATM    2  S   UNL     1     -12.046  12.350  64.305  1.00  0.00    -0.445 S  
HETATM    3  O   UNL     1     -11.505  11.539  65.612  1.00  0.00    -0.182 OA 
HETATM    4  O   UNL     1     -11.193  12.059  63.169  1.00  0.00    -0.324 OA 
HETATM    5  O   UNL     1     -13.476  12.166  64.216  1.00  0.00    -0.708 OA 
ENDROOT
BRANCH   3   6
HETATM    6  N   UNL     1     -10.067  11.420  65.752  1.00  0.00    -0.235 N  
HETATM    7  C   UNL     1      -9.763  10.004  65.968  1.00  0.00    -0.240 C  
HETATM    8  C   UNL     1     -10.108   9.864  67.438  1.00  0.00    -0.205 C  
HETATM    9  N   UNL     1      -9.463  11.057  67.968  1.00  0.00    -0.162 N  
HETATM   10  C   UNL     1      -8.001  10.884  68.099  1.00  0.00    -0.117 C  
HETATM   11  C   UNL     1      -9.827  12.076  67.018  1.00  0.00    -0.194 C  
HETATM   12  O   UNL     1     -10.010  13.249  67.306  1.00  0.00    -0.226 OA 
HETATM   13  C   UNL     1      -7.363  10.556  66.731  1.00  0.00    -0.114 C  
HETATM   14  C   UNL     1      -8.256   9.652  65.863  1.00  0.00    -0.119 C  
BRANCH  10  15
HETATM   15  C   UNL     1      -7.179  12.004  68.780  1.00  0.00    -0.108 C  
HETATM   16  O   UNL     1      -6.514  11.791  69.792  1.00  0.00    -0.130 OA 
HETATM   17  N   UNL     1      -7.306  13.251  68.228  1.00  0.00    -0.102 N  
HETATM   18  H   UNL     1      -7.950  13.380  67.447  1.00  0.00     0.000 HD 
BRANCH  17  19
HETATM   19  C   UNL     1      -6.551  14.403  68.717  1.00  0.00    -0.090 C  
HETATM   20  C   UNL     1      -6.121  15.356  67.595  1.00  0.00    -0.151 C  
HETATM   21  C   UNL     1      -7.321  16.074  66.988  1.00  0.00    -0.223 C  
HETATM   22  N   UNL     1      -8.096  16.790  68.006  1.00  0.00    -0.183 NA 
HETATM   23  H   UNL     1      -8.882  17.288  67.588  1.00  0.00     0.000 HD 
HETATM   24  C   UNL     1      -8.541  15.908  69.086  1.00  0.00    -0.252 C  
HETATM   25  C   UNL     1      -7.379  15.169  69.747  1.00  0.00    -0.141 C  
ENDBRANCH  17  19
ENDBRANCH  10  15
ENDBRANCH   3   6
TORSDOF 3
ENDMDL
MODEL      101
REMARK 921   NORMALIZED FREE ENERGY PREDICTED BY IDOCK:   -4.09 KCAL/MOL
REMARK 922        TOTAL FREE ENERGY PREDICTED BY IDOCK:   -5.67 KCAL/MOL
REMARK 923 INTER-LIGAND FREE ENERGY PREDICTED BY IDOCK:   -5.02 KCAL/MOL
REMARK 924 INTRA-LIGAND FREE ENERGY PREDICTED BY IDOCK:   -0.66 KCAL/MOL
REMARK 927      BINDING AFFINITY PREDICTED BY RF-SCORE:    0.00 PKD
ROOT
HETATM    1  O   UNL     1      -8.884   7.272  72.042  1.00  0.00    -0.124 OA 
HETATM    2  S   UNL     1      -8.724   6.205  70.843  1.00  0.00    -0.136 S  
HETATM    3  O   UNL     1      -8.116   7.070  69.601  1.00  0.00    -0.125 OA 
HETATM    4  O   UNL     1     -10.055   5.740  70.502  1.00  0.00    -0.187 OA 
HETATM    5  O   UNL     1      -7.711   5.274  71.286  1.00  0.00    -0.096 OA 
ENDROOT
BRANCH   3   6
HETATM    6  N   UNL     1      -9.051   7.908  68.875  1.00  0.00    -0.141 N  
HETATM    7  C   UNL     1      -9.031   7.477  67.476  1.00  0.00    -0.126 C  
HETATM    8  C   UNL     1      -7.761   8.150  66.993  1.00  0.00    -0.096 C  
HETATM    9  N   UNL     1      -7.938   9.475  67.568  1.00  0.00    -0.106 N  
HETATM   10  C   UNL     1      -8.893  10.293  66.790  1.00  0.00    -0.133 C  
HETATM   11  C   UNL     1      -8.395   9.195  68.904  1.00  0.00    -0.124 C  
HETATM   12  O   UNL     1      -8.140   9.890  69.877  1.00  0.00    -0.164 OA 
HETATM   13  C   UNL     1     -10.275   9.606  66.722  1.00  0.00    -0.308 C  
HETATM   14  C   UNL     1     -10.169   8.075  66.608  1.00  0.00    -0.315 C  
BRANCH  10  15
HETATM   15  C   UNL     1      -9.090  11.777  67.180  1.00  0.00    -0.175 C  
HETATM   16  O   UNL     1      -8.231  12.399  67.803  1.00  0.00    -0.141 OA 
HETATM   17  N   UNL     1     -10.306  12.318  66.857  1.00  0.00    -0.216 N  
HETATM   18  H   UNL     1     -11.012  11.721  66.428  1.00  0.00     0.000 HD 
BRANCH  17  19
HETATM   19  C   UNL     1     -10.628  13.723  67.106  1.00  0.00    -0.277 C  
HETATM   20  C   UNL     1      -9.971  14.673  66.096  1.00  0.00    -0.323 C  
HETATM   21  C   UNL     1     -10.581  14.512  64.708  1.00  0.00    -0.377 C  
HETATM   22  N   UNL     1     -12.034  14.702  64.728  1.00  0.00    -0.429 NA 
HETATM   23  H   UNL     1     -12.430  14.616  63.791  1.00  0.00     0.000 HD 
HETATM   24  C   UNL     1     -12.698  13.796  65.668  1.00  0.00    -0.478 C  
HETATM   25  C   UNL     1     -12.141  13.922  67.086  1.00  0.00    -0.422 C  
ENDBRANCH  17  19
ENDBRANCH  10  15
ENDBRANCH   3   6
TORSDOF 3
ENDMDL
MODEL      102
REMARK 921   NORMALIZED FREE ENERGY PREDICTED BY IDOCK:   -4.08 KCAL/MOL
REMARK 922        TOTAL FREE ENERGY PREDICTED BY IDOCK:   -5.66 KCAL/MOL
REMARK 923 INTER-LIGAND FREE ENERGY PREDICTED BY IDOCK:   -5.01 KCAL/MOL
REMARK 924 INTRA-LIGAND FREE ENERGY PREDICTED BY IDOCK:   -0.65 KCAL/MOL
REMARK 927      BINDING AFFINITY PREDICTED BY RF-SCORE:    0.00 PKD
ROOT
HETATM    1  O   UNL     1     -10.646   5.581  68.248  1.00  0.00    -0.195 OA 
HETATM    2  S   UNL     1      -9.035   5.663  68.305  1.00  0.00    -0.114 S  
HETATM    3  O   UNL     1      -8.700   7.254  68.175  1.00  0.00    -0.128 OA 
HETATM    4  O   UNL     1      -8.529   4.966  67.139  1.00  0.00    -0.107 OA 
HETATM    5  O   UNL     1      -8.673   5.231  69.635  1.00  0.00    -0.099 OA 
ENDROOT
BRANCH   3   6
HETATM    6  N   UNL     1      -8.790   7.829  66.847  1.00  0.00    -0.126 N  
HETATM    7  C   UNL     1      -7.443   8.252  66.460  1.00  0.00    -0.081 C  
HETATM    8  C   UNL     1      -7.328   9.557  67.223  1.00  0.00    -0.087 C  
HETATM    9  N   UNL     1      -8.624  10.147  66.919  1.00  0.00    -0.126 N  
HETATM   10  C   UNL     1      -8.664  10.726  65.560  1.00  0.00    -0.187 C  
HETATM   11  C   UNL     1      -9.534   9.044  67.089  1.00  0.00    -0.152 C  
HETATM   12  O   UNL     1     -10.683   9.158  67.489  1.00  0.00    -0.273 OA 
HETATM   13  C   UNL     1      -8.361   9.647  64.495  1.00  0.00    -0.172 C  
HETATM   14  C   UNL     1      -7.299   8.636  64.964  1.00  0.00    -0.086 C  
BRANCH  10  15
HETATM   15  C   UNL     1      -9.920  11.518  65.126  1.00  0.00    -0.262 C  
HETATM   16  O   UNL     1     -10.765  11.026  64.380  1.00  0.00    -0.351 OA 
HETATM   17  N   UNL     1      -9.983  12.814  65.563  1.00  0.00    -0.376 N  
HETATM   18  H   UNL     1      -9.202  13.191  66.098  1.00  0.00     0.000 HD 
BRANCH  17  19
HETATM   19  C   UNL     1     -11.132  13.676  65.288  1.00  0.00    -0.301 C  
HETATM   20  C   UNL     1     -12.349  13.345  66.160  1.00  0.00    -0.440 C  
HETATM   21  C   UNL     1     -12.099  13.708  67.620  1.00  0.00    -0.293 C  
HETATM   22  N   UNL     1     -11.721  15.116  67.772  1.00  0.00    -0.370 NA 
HETATM   23  H   UNL     1     -11.580  15.355  68.754  1.00  0.00     0.000 HD 
HETATM   24  C   UNL     1     -10.549  15.465  66.968  1.00  0.00    -0.309 C  
HETATM   25  C   UNL     1     -10.743  15.140  65.487  1.00  0.00    -0.379 C  
ENDBRANCH  17  19
ENDBRANCH  10  15
ENDBRANCH   3   6
TORSDOF 3
ENDMDL
MODEL      103
REMARK 921   NORMALIZED FREE ENERGY PREDICTED BY IDOCK:   -4.07 KCAL/MOL
REMARK 922        TOTAL FREE ENERGY PREDICTED BY IDOCK:   -5.65 KCAL/MOL
REMARK 923 INTER-LIGAND FREE ENERGY PREDICTED BY IDOCK:   -5.20 KCAL/MOL
REMARK 924 INTRA-LIGAND FREE ENERGY PREDICTED BY IDOCK:   -0.45 KCAL/MOL
REMARK 927      BINDING AFFINITY PREDICTED BY RF-SCORE:    0.00 PKD
ROOT
HETATM    1  O   UNL     1      -9.881   5.201  71.448  1.00  0.00    -0.163 OA 
HETATM    2  S   UNL     1      -8.477   5.676  70.809  1.00  0.00    -0.125 S  
HETATM    3  O   UNL     1      -8.612   7.295  70.676  1.00  0.00    -0.139 OA 
HETATM    4  O   UNL     1      -8.388   5.088  69.486  1.00  0.00    -0.087 OA 
HETATM    5  O   UNL     1      -7.478   5.385  71.812  1.00  0.00    -0.087 OA 
ENDROOT
BRANCH   3   6
HETATM    6  N   UNL     1      -9.407   7.791  69.568  1.00  0.00    -0.150 N  
HETATM    7  C   UNL     1      -8.493   8.050  68.455  1.00  0.00    -0.127 C  
HETATM    8  C   UNL     1      -7.906   9.383  68.877  1.00  0.00    -0.083 C  
HETATM    9  N   UNL     1      -9.118  10.080  69.283  1.00  0.00    -0.187 N  
HETATM   10  C   UNL     1      -9.889  10.572  68.122  1.00  0.00    -0.153 C  
HETATM   11  C   UNL     1      -9.826   9.088  70.049  1.00  0.00    -0.184 C  
HETATM   12  O   UNL     1     -10.544   9.341  71.005  1.00  0.00    -0.263 OA 
HETATM   13  C   UNL     1     -10.290   9.403  67.194  1.00  0.00    -0.326 C  
HETATM   14  C   UNL     1      -9.199   8.322  67.100  1.00  0.00    -0.175 C  
BRANCH  10  15
HETATM   15  C   UNL     1     -11.132  11.458  68.376  1.00  0.00    -0.242 C  
HETATM   16  O   UNL     1     -12.265  10.980  68.422  1.00  0.00    -0.586 OA 
HETATM   17  N   UNL     1     -10.893  12.802  68.468  1.00  0.00    -0.246 N  
HETATM   18  H   UNL     1      -9.943  13.144  68.324  1.00  0.00     0.000 HD 
BRANCH  17  19
HETATM   19  C   UNL     1     -11.952  13.767  68.764  1.00  0.00    -0.365 C  
HETATM   20  C   UNL     1     -11.760  14.466  70.116  1.00  0.00    -0.361 C  
HETATM   21  C   UNL     1     -10.559  15.404  70.089  1.00  0.00    -0.295 C  
HETATM   22  N   UNL     1     -10.663  16.388  69.008  1.00  0.00    -0.300 NA 
HETATM   23  H   UNL     1      -9.868  17.027  69.012  1.00  0.00     0.000 HD 
HETATM   24  C   UNL     1     -10.827  15.756  67.697  1.00  0.00    -0.310 C  
HETATM   25  C   UNL     1     -12.028  14.813  67.654  1.00  0.00    -0.244 C  
ENDBRANCH  17  19
ENDBRANCH  10  15
ENDBRANCH   3   6
TORSDOF 3
ENDMDL
MODEL      104
REMARK 921   NORMALIZED FREE ENERGY PREDICTED BY IDOCK:   -4.07 KCAL/MOL
REMARK 922        TOTAL FREE ENERGY PREDICTED BY IDOCK:   -5.65 KCAL/MOL
REMARK 923 INTER-LIGAND FREE ENERGY PREDICTED BY IDOCK:   -4.98 KCAL/MOL
REMARK 924 INTRA-LIGAND FREE ENERGY PREDICTED BY IDOCK:   -0.67 KCAL/MOL
REMARK 927      BINDING AFFINITY PREDICTED BY RF-SCORE:    0.00 PKD
ROOT
HETATM    1  O   UNL     1      -9.153   5.624  65.831  1.00  0.00    -0.157 OA 
HETATM    2  S   UNL     1      -8.735   5.072  67.289  1.00  0.00    -0.102 S  
HETATM    3  O   UNL     1      -9.650   5.929  68.331  1.00  0.00    -0.118 OA 
HETATM    4  O   UNL     1      -7.337   5.403  67.488  1.00  0.00    -0.074 OA 
HETATM    5  O   UNL     1      -9.177   3.697  67.322  1.00  0.00    -0.159 OA 
ENDROOT
BRANCH   3   6
HETATM    6  N   UNL     1      -9.222   7.288  68.605  1.00  0.00    -0.137 N  
HETATM    7  C   UNL     1      -9.156   7.442  70.059  1.00  0.00    -0.148 C  
HETATM    8  C   UNL     1     -10.623   7.638  70.388  1.00  0.00    -0.230 C  
HETATM    9  N   UNL     1     -10.992   8.594  69.354  1.00  0.00    -0.096 N  
HETATM   10  C   UNL     1     -10.542   9.964  69.681  1.00  0.00    -0.250 C  
HETATM   11  C   UNL     1     -10.364   8.061  68.174  1.00  0.00    -0.200 C  
HETATM   12  O   UNL     1     -10.822   8.165  67.045  1.00  0.00    -0.265 OA 
HETATM   13  C   UNL     1      -9.007  10.009  69.857  1.00  0.00    -0.178 C  
HETATM   14  C   UNL     1      -8.452   8.742  70.531  1.00  0.00    -0.181 C  
BRANCH  10  15
HETATM   15  C   UNL     1     -10.974  11.128  68.758  1.00  0.00    -0.219 C  
HETATM   16  O   UNL     1     -11.954  11.035  68.021  1.00  0.00    -0.623 OA 
HETATM   17  N   UNL     1     -10.154  12.224  68.764  1.00  0.00    -0.401 N  
HETATM   18  H   UNL     1      -9.303  12.200  69.326  1.00  0.00     0.000 HD 
BRANCH  17  19
HETATM   19  C   UNL     1     -10.455  13.430  67.992  1.00  0.00    -0.239 C  
HETATM   20  C   UNL     1     -11.451  14.357  68.699  1.00  0.00    -0.316 C  
HETATM   21  C   UNL     1     -10.832  14.994  69.938  1.00  0.00    -0.246 C  
HETATM   22  N   UNL     1      -9.595  15.711  69.619  1.00  0.00    -0.284 NA 
HETATM   23  H   UNL     1      -9.201  16.154  70.450  1.00  0.00     0.000 HD 
HETATM   24  C   UNL     1      -8.610  14.851  68.960  1.00  0.00    -0.170 C  
HETATM   25  C   UNL     1      -9.166  14.194  67.698  1.00  0.00    -0.193 C  
ENDBRANCH  17  19
ENDBRANCH  10  15
ENDBRANCH   3   6
TORSDOF 3
ENDMDL
MODEL      105
REMARK 921   NORMALIZED FREE ENERGY PREDICTED BY IDOCK:   -4.03 KCAL/MOL
REMARK 922        TOTAL FREE ENERGY PREDICTED BY IDOCK:   -5.61 KCAL/MOL
REMARK 923 INTER-LIGAND FREE ENERGY PREDICTED BY IDOCK:   -5.04 KCAL/MOL
REMARK 924 INTRA-LIGAND FREE ENERGY PREDICTED BY IDOCK:   -0.56 KCAL/MOL
REMARK 927      BINDING AFFINITY PREDICTED BY RF-SCORE:    0.00 PKD
ROOT
HETATM    1  O   UNL     1      -8.138  17.685  65.787  1.00  0.00    -0.550 OA 
HETATM    2  S   UNL     1      -9.360  18.138  66.737  1.00  0.00    -0.294 S  
HETATM    3  O   UNL     1      -9.584  16.878  67.748  1.00  0.00    -0.243 OA 
HETATM    4  O   UNL     1     -10.528  18.290  65.889  1.00  0.00    -0.532 OA 
HETATM    5  O   UNL     1      -8.859  19.253  67.506  1.00  0.00    -0.291 OA 
ENDROOT
BRANCH   3   6
HETATM    6  N   UNL     1     -10.288  15.730  67.209  1.00  0.00    -0.283 N  
HETATM    7  C   UNL     1     -11.358  15.390  68.148  1.00  0.00    -0.348 C  
HETATM    8  C   UNL     1     -10.573  14.648  69.212  1.00  0.00    -0.226 C  
HETATM    9  N   UNL     1      -9.750  13.790  68.371  1.00  0.00    -0.223 N  
HETATM   10  C   UNL     1     -10.507  12.632  67.852  1.00  0.00    -0.218 C  
HETATM   11  C   UNL     1      -9.302  14.681  67.333  1.00  0.00    -0.196 C  
HETATM   12  O   UNL     1      -8.218  14.595  66.775  1.00  0.00    -0.146 OA 
HETATM   13  C   UNL     1     -11.724  13.100  67.022  1.00  0.00    -0.431 C  
HETATM   14  C   UNL     1     -12.384  14.363  67.602  1.00  0.00    -0.029 C  
BRANCH  10  15
HETATM   15  C   UNL     1      -9.748  11.543  67.057  1.00  0.00    -0.184 C  
HETATM   16  O   UNL     1      -9.700  11.560  65.827  1.00  0.00    -0.221 OA 
HETATM   17  N   UNL     1      -9.207  10.532  67.804  1.00  0.00    -0.145 N  
HETATM   18  H   UNL     1      -9.365  10.526  68.812  1.00  0.00     0.000 HD 
BRANCH  17  19
HETATM   19  C   UNL     1      -8.410   9.460  67.209  1.00  0.00    -0.125 C  
HETATM   20  C   UNL     1      -7.076   9.955  66.639  1.00  0.00    -0.087 C  
HETATM   21  C   UNL     1      -6.127  10.393  67.749  1.00  0.00    -0.052 C  
HETATM   22  N   UNL     1      -5.907   9.325  68.728  1.00  0.00    -0.040 NA 
HETATM   23  H   UNL     1      -5.253   9.619  69.453  1.00  0.00     0.000 HD 
HETATM   24  C   UNL     1      -7.160   8.840  69.310  1.00  0.00    -0.062 C  
HETATM   25  C   UNL     1      -8.150   8.369  68.245  1.00  0.00    -0.120 C  
ENDBRANCH  17  19
ENDBRANCH  10  15
ENDBRANCH   3   6
TORSDOF 3
ENDMDL
MODEL      106
REMARK 921   NORMALIZED FREE ENERGY PREDICTED BY IDOCK:   -3.97 KCAL/MOL
REMARK 922        TOTAL FREE ENERGY PREDICTED BY IDOCK:   -5.53 KCAL/MOL
REMARK 923 INTER-LIGAND FREE ENERGY PREDICTED BY IDOCK:   -4.91 KCAL/MOL
REMARK 924 INTRA-LIGAND FREE ENERGY PREDICTED BY IDOCK:   -0.62 KCAL/MOL
REMARK 927      BINDING AFFINITY PREDICTED BY RF-SCORE:    0.00 PKD
ROOT
HETATM    1  O   UNL     1      -8.516   5.804  64.766  1.00  0.00    -0.137 OA 
HETATM    2  S   UNL     1      -9.120   5.173  66.122  1.00  0.00    -0.149 S  
HETATM    3  O   UNL     1      -9.874   6.419  66.855  1.00  0.00    -0.144 OA 
HETATM    4  O   UNL     1      -7.997   4.743  66.933  1.00  0.00    -0.101 OA 
HETATM    5  O   UNL     1     -10.123   4.225  65.694  1.00  0.00    -0.220 OA 
ENDROOT
BRANCH   3   6
HETATM    6  N   UNL     1      -9.028   7.372  67.548  1.00  0.00    -0.126 N  
HETATM    7  C   UNL     1      -9.312   7.251  68.979  1.00  0.00    -0.148 C  
HETATM    8  C   UNL     1     -10.604   8.039  69.077  1.00  0.00    -0.154 C  
HETATM    9  N   UNL     1     -10.252   9.207  68.282  1.00  0.00    -0.198 N  
HETATM   10  C   UNL     1      -9.397  10.151  69.033  1.00  0.00    -0.188 C  
HETATM   11  C   UNL     1      -9.592   8.638  67.137  1.00  0.00    -0.173 C  
HETATM   12  O   UNL     1      -9.635   9.113  66.012  1.00  0.00    -0.236 OA 
HETATM   13  C   UNL     1      -8.090   9.463  69.488  1.00  0.00    -0.114 C  
HETATM   14  C   UNL     1      -8.305   7.995  69.895  1.00  0.00    -0.121 C  
BRANCH  10  15
HETATM   15  C   UNL     1      -9.048  11.512  68.386  1.00  0.00    -0.185 C  
HETATM   16  O   UNL     1      -8.118  11.626  67.588  1.00  0.00    -0.128 OA 
HETATM   17  N   UNL     1      -9.786  12.581  68.818  1.00  0.00    -0.421 N  
HETATM   18  H   UNL     1     -10.478  12.436  69.553  1.00  0.00     0.000 HD 
BRANCH  17  19
HETATM   19  C   UNL     1      -9.619  13.923  68.263  1.00  0.00    -0.218 C  
HETATM   20  C   UNL     1     -10.462  14.158  67.004  1.00  0.00    -0.271 C  
HETATM   21  C   UNL     1     -11.950  14.201  67.334  1.00  0.00    -0.404 C  
HETATM   22  N   UNL     1     -12.250  15.210  68.353  1.00  0.00    -0.556 NA 
HETATM   23  H   UNL     1     -13.251  15.249  68.550  1.00  0.00     0.000 HD 
HETATM   24  C   UNL     1     -11.477  15.007  69.580  1.00  0.00    -0.294 C  
HETATM   25  C   UNL     1      -9.972  14.970  69.317  1.00  0.00    -0.218 C  
ENDBRANCH  17  19
ENDBRANCH  10  15
ENDBRANCH   3   6
TORSDOF 3
ENDMDL
MODEL      107
REMARK 921   NORMALIZED FREE ENERGY PREDICTED BY IDOCK:   -3.93 KCAL/MOL
REMARK 922        TOTAL FREE ENERGY PREDICTED BY IDOCK:   -5.49 KCAL/MOL
REMARK 923 INTER-LIGAND FREE ENERGY PREDICTED BY IDOCK:   -4.66 KCAL/MOL
REMARK 924 INTRA-LIGAND FREE ENERGY PREDICTED BY IDOCK:   -0.82 KCAL/MOL
REMARK 927      BINDING AFFINITY PREDICTED BY RF-SCORE:    0.00 PKD
ROOT
HETATM    1  O   UNL     1      -8.510  10.863  66.574  1.00  0.00    -0.147 OA 
HETATM    2  S   UNL     1      -8.509   9.625  65.539  1.00  0.00    -0.150 S  
HETATM    3  O   UNL     1      -9.683   8.633  66.083  1.00  0.00    -0.253 OA 
HETATM    4  O   UNL     1      -7.224   8.965  65.660  1.00  0.00    -0.083 OA 
HETATM    5  O   UNL     1      -8.934  10.180  64.274  1.00  0.00    -0.196 OA 
ENDROOT
BRANCH   3   6
HETATM    6  N   UNL     1      -9.356   7.811  67.232  1.00  0.00    -0.140 N  
HETATM    7  C   UNL     1      -9.457   6.412  66.813  1.00  0.00    -0.150 C  
HETATM    8  C   UNL     1     -10.960   6.212  66.860  1.00  0.00    -0.305 C  
HETATM    9  N   UNL     1     -11.262   6.836  68.140  1.00  0.00    -0.134 N  
HETATM   10  C   UNL     1     -10.919   5.959  69.279  1.00  0.00    -0.327 C  
HETATM   11  C   UNL     1     -10.482   8.046  68.107  1.00  0.00    -0.167 C  
HETATM   12  O   UNL     1     -10.819   9.095  68.637  1.00  0.00    -0.162 OA 
HETATM   13  C   UNL     1      -9.417   5.596  69.259  1.00  0.00    -0.167 C  
HETATM   14  C   UNL     1      -8.876   5.397  67.832  1.00  0.00    -0.105 C  
BRANCH  10  15
HETATM   15  C   UNL     1     -11.306   6.409  70.707  1.00  0.00    -0.350 C  
HETATM   16  O   UNL     1     -12.421   6.866  70.958  1.00  0.00    -0.382 OA 
HETATM   17  N   UNL     1     -10.309   6.339  71.642  1.00  0.00    -0.208 N  
HETATM   18  H   UNL     1      -9.378   6.042  71.347  1.00  0.00     0.000 HD 
BRANCH  17  19
HETATM   19  C   UNL     1     -10.530   6.673  73.048  1.00  0.00    -0.243 C  
HETATM   20  C   UNL     1     -10.595   5.435  73.952  1.00  0.00    -0.324 C  
HETATM   21  C   UNL     1      -9.234   4.756  74.060  1.00  0.00    -0.114 C  
HETATM   22  N   UNL     1      -8.200   5.684  74.528  1.00  0.00    -0.106 NA 
HETATM   23  H   UNL     1      -7.299   5.216  74.621  1.00  0.00     0.000 HD 
HETATM   24  C   UNL     1      -8.095   6.871  73.676  1.00  0.00    -0.105 C  
HETATM   25  C   UNL     1      -9.427   7.608  73.541  1.00  0.00    -0.347 C  
ENDBRANCH  17  19
ENDBRANCH  10  15
ENDBRANCH   3   6
TORSDOF 3
ENDMDL
MODEL      108
REMARK 921   NORMALIZED FREE ENERGY PREDICTED BY IDOCK:   -3.93 KCAL/MOL
REMARK 922        TOTAL FREE ENERGY PREDICTED BY IDOCK:   -5.48 KCAL/MOL
REMARK 923 INTER-LIGAND FREE ENERGY PREDICTED BY IDOCK:   -4.64 KCAL/MOL
REMARK 924 INTRA-LIGAND FREE ENERGY PREDICTED BY IDOCK:   -0.84 KCAL/MOL
REMARK 927      BINDING AFFINITY PREDICTED BY RF-SCORE:    0.00 PKD
ROOT
HETATM    1  O   UNL     1      -7.541   8.743  72.369  1.00  0.00    -0.335 OA 
HETATM    2  S   UNL     1      -8.624   7.601  72.720  1.00  0.00    -0.145 S  
HETATM    3  O   UNL     1      -8.575   6.581  71.449  1.00  0.00    -0.125 OA 
HETATM    4  O   UNL     1      -9.923   8.244  72.774  1.00  0.00    -0.283 OA 
HETATM    5  O   UNL     1      -8.098   6.911  73.876  1.00  0.00    -0.114 OA 
ENDROOT
BRANCH   3   6
HETATM    6  N   UNL     1      -9.261   7.011  70.245  1.00  0.00    -0.156 N  
HETATM    7  C   UNL     1     -10.208   5.957  69.879  1.00  0.00    -0.218 C  
HETATM    8  C   UNL     1      -9.276   4.959  69.219  1.00  0.00    -0.110 C  
HETATM    9  N   UNL     1      -8.493   5.856  68.380  1.00  0.00    -0.111 N  
HETATM   10  C   UNL     1      -9.230   6.260  67.164  1.00  0.00    -0.122 C  
HETATM   11  C   UNL     1      -8.206   6.960  69.258  1.00  0.00    -0.125 C  
HETATM   12  O   UNL     1      -7.182   7.624  69.214  1.00  0.00    -0.077 OA 
HETATM   13  C   UNL     1     -10.550   6.973  67.534  1.00  0.00    -0.351 C  
HETATM   14  C   UNL     1     -11.221   6.364  68.778  1.00  0.00    -0.358 C  
BRANCH  10  15
HETATM   15  C   UNL     1      -8.492   7.098  66.093  1.00  0.00    -0.142 C  
HETATM   16  O   UNL     1      -7.434   6.717  65.594  1.00  0.00    -0.076 OA 
HETATM   17  N   UNL     1      -9.052   8.312  65.801  1.00  0.00    -0.341 N  
HETATM   18  H   UNL     1      -9.877   8.612  66.321  1.00  0.00     0.000 HD 
BRANCH  17  19
HETATM   19  C   UNL     1      -8.509   9.197  64.771  1.00  0.00    -0.178 C  
HETATM   20  C   UNL     1      -9.595   9.990  64.033  1.00  0.00    -0.243 C  
HETATM   21  C   UNL     1     -10.242  11.026  64.946  1.00  0.00    -0.311 C  
HETATM   22  N   UNL     1      -9.247  11.931  65.529  1.00  0.00    -0.425 NA 
HETATM   23  H   UNL     1      -9.690  12.635  66.118  1.00  0.00     0.000 HD 
HETATM   24  C   UNL     1      -8.203  11.210  66.260  1.00  0.00    -0.153 C  
HETATM   25  C   UNL     1      -7.504  10.164  65.392  1.00  0.00    -0.144 C  
ENDBRANCH  17  19
ENDBRANCH  10  15
ENDBRANCH   3   6
TORSDOF 3
ENDMDL
MODEL      109
REMARK 921   NORMALIZED FREE ENERGY PREDICTED BY IDOCK:   -3.91 KCAL/MOL
REMARK 922        TOTAL FREE ENERGY PREDICTED BY IDOCK:   -5.45 KCAL/MOL
REMARK 923 INTER-LIGAND FREE ENERGY PREDICTED BY IDOCK:   -4.59 KCAL/MOL
REMARK 924 INTRA-LIGAND FREE ENERGY PREDICTED BY IDOCK:   -0.87 KCAL/MOL
REMARK 927      BINDING AFFINITY PREDICTED BY RF-SCORE:    0.00 PKD
ROOT
HETATM    1  O   UNL     1      -8.691   7.811  67.233  1.00  0.00    -0.126 OA 
HETATM    2  S   UNL     1     -10.218   8.330  67.244  1.00  0.00    -0.300 S  
HETATM    3  O   UNL     1     -10.449   8.897  68.755  1.00  0.00    -0.217 OA 
HETATM    4  O   UNL     1     -11.065   7.172  67.028  1.00  0.00    -0.345 OA 
HETATM    5  O   UNL     1     -10.253   9.448  66.330  1.00  0.00    -0.274 OA 
ENDROOT
BRANCH   3   6
HETATM    6  N   UNL     1     -10.665   7.908  69.794  1.00  0.00    -0.246 N  
HETATM    7  C   UNL     1     -11.903   8.264  70.489  1.00  0.00    -0.001 C  
HETATM    8  C   UNL     1     -11.409   9.379  71.390  1.00  0.00    -0.381 C  
HETATM    9  N   UNL     1     -10.185   8.776  71.897  1.00  0.00    -0.329 N  
HETATM   10  C   UNL     1     -10.455   7.781  72.957  1.00  0.00    -0.369 C  
HETATM   11  C   UNL     1      -9.593   8.197  70.719  1.00  0.00    -0.166 C  
HETATM   12  O   UNL     1      -8.389   8.104  70.531  1.00  0.00    -0.117 OA 
HETATM   13  C   UNL     1     -11.369   6.653  72.429  1.00  0.00    -0.309 C  
HETATM   14  C   UNL     1     -12.436   7.166  71.447  1.00  0.00    -0.427 C  
BRANCH  10  15
HETATM   15  C   UNL     1      -9.258   7.148  73.704  1.00  0.00    -0.198 C  
HETATM   16  O   UNL     1      -8.509   7.823  74.410  1.00  0.00    -0.226 OA 
HETATM   17  N   UNL     1      -9.047   5.817  73.464  1.00  0.00    -0.132 N  
HETATM   18  H   UNL     1      -9.646   5.337  72.793  1.00  0.00     0.000 HD 
BRANCH  17  19
HETATM   19  C   UNL     1      -7.993   5.058  74.137  1.00  0.00    -0.101 C  
HETATM   20  C   UNL     1      -8.439   3.647  74.540  1.00  0.00    -0.088 C  
HETATM   21  C   UNL     1      -8.650   2.762  73.316  1.00  0.00    -0.079 C  
HETATM   22  N   UNL     1      -7.452   2.706  72.474  1.00  0.00    -0.046 NA 
HETATM   23  H   UNL     1      -7.594   2.093  71.671  1.00  0.00     0.000 HD 
HETATM   24  C   UNL     1      -7.007   4.036  72.053  1.00  0.00    -0.045 C  
HETATM   25  C   UNL     1      -6.762   4.968  73.239  1.00  0.00    -0.068 C  
ENDBRANCH  17  19
ENDBRANCH  10  15
ENDBRANCH   3   6
TORSDOF 3
ENDMDL
MODEL      110
REMARK 921   NORMALIZED FREE ENERGY PREDICTED BY IDOCK:   -3.90 KCAL/MOL
REMARK 922        TOTAL FREE ENERGY PREDICTED BY IDOCK:   -5.45 KCAL/MOL
REMARK 923 INTER-LIGAND FREE ENERGY PREDICTED BY IDOCK:   -5.40 KCAL/MOL
REMARK 924 INTRA-LIGAND FREE ENERGY PREDICTED BY IDOCK:   -0.05 KCAL/MOL
REMARK 927      BINDING AFFINITY PREDICTED BY RF-SCORE:    0.00 PKD
ROOT
HETATM    1  O   UNL     1     -11.277  12.221  63.086  1.00  0.00    -0.370 OA 
HETATM    2  S   UNL     1     -12.379  12.995  63.974  1.00  0.00    -0.340 S  
HETATM    3  O   UNL     1     -11.604  13.368  65.359  1.00  0.00    -0.304 OA 
HETATM    4  O   UNL     1     -13.443  12.049  64.255  1.00  0.00    -0.654 OA 
HETATM    5  O   UNL     1     -12.656  14.222  63.263  1.00  0.00    -0.716 OA 
ENDROOT
BRANCH   3   6
HETATM    6  N   UNL     1     -11.431  12.293  66.316  1.00  0.00    -0.362 N  
HETATM    7  C   UNL     1     -11.746  12.830  67.641  1.00  0.00    -0.367 C  
HETATM    8  C   UNL     1     -10.462  13.571  67.956  1.00  0.00    -0.242 C  
HETATM    9  N   UNL     1      -9.483  12.571  67.554  1.00  0.00    -0.180 N  
HETATM   10  C   UNL     1      -9.337  11.501  68.563  1.00  0.00    -0.170 C  
HETATM   11  C   UNL     1     -10.000  12.093  66.298  1.00  0.00    -0.229 C  
HETATM   12  O   UNL     1      -9.303  11.715  65.368  1.00  0.00    -0.211 OA 
HETATM   13  C   UNL     1     -10.686  10.788  68.806  1.00  0.00    -0.243 C  
HETATM   14  C   UNL     1     -11.883  11.753  68.750  1.00  0.00    -0.380 C  
BRANCH  10  15
HETATM   15  C   UNL     1      -8.236  10.433  68.360  1.00  0.00    -0.114 C  
HETATM   16  O   UNL     1      -7.700  10.262  67.266  1.00  0.00    -0.095 OA 
HETATM   17  N   UNL     1      -7.961   9.651  69.449  1.00  0.00    -0.100 N  
HETATM   18  H   UNL     1      -8.510   9.780  70.299  1.00  0.00     0.000 HD 
BRANCH  17  19
HETATM   19  C   UNL     1      -6.908   8.637  69.438  1.00  0.00    -0.049 C  
HETATM   20  C   UNL     1      -5.503   9.234  69.581  1.00  0.00    -0.034 C  
HETATM   21  C   UNL     1      -5.286   9.812  70.975  1.00  0.00    -0.058 C  
HETATM   22  N   UNL     1      -5.533   8.815  72.020  1.00  0.00    -0.047 NA 
HETATM   23  H   UNL     1      -5.363   9.204  72.948  1.00  0.00     0.000 HD 
HETATM   24  C   UNL     1      -6.875   8.236  71.928  1.00  0.00    -0.082 C  
HETATM   25  C   UNL     1      -7.149   7.623  70.554  1.00  0.00    -0.051 C  
ENDBRANCH  17  19
ENDBRANCH  10  15
ENDBRANCH   3   6
TORSDOF 3
ENDMDL
MODEL      111
REMARK 921   NORMALIZED FREE ENERGY PREDICTED BY IDOCK:   -3.87 KCAL/MOL
REMARK 922        TOTAL FREE ENERGY PREDICTED BY IDOCK:   -5.42 KCAL/MOL
REMARK 923 INTER-LIGAND FREE ENERGY PREDICTED BY IDOCK:   -4.76 KCAL/MOL
REMARK 924 INTRA-LIGAND FREE ENERGY PREDICTED BY IDOCK:   -0.66 KCAL/MOL
REMARK 927      BINDING AFFINITY PREDICTED BY RF-SCORE:    0.00 PKD
ROOT
HETATM    1  O   UNL     1     -11.979  14.788  67.017  1.00  0.00    -0.350 OA 
HETATM    2  S   UNL     1     -10.428  15.037  66.650  1.00  0.00    -0.290 S  
HETATM    3  O   UNL     1      -9.850  13.558  66.282  1.00  0.00    -0.288 OA 
HETATM    4  O   UNL     1      -9.777  15.525  67.851  1.00  0.00    -0.210 OA 
HETATM    5  O   UNL     1     -10.439  15.833  65.444  1.00  0.00    -0.368 OA 
ENDROOT
BRANCH   3   6
HETATM    6  N   UNL     1      -9.556  12.680  67.399  1.00  0.00    -0.190 N  
HETATM    7  C   UNL     1      -8.119  12.400  67.371  1.00  0.00    -0.177 C  
HETATM    8  C   UNL     1      -8.059  11.347  66.282  1.00  0.00    -0.064 C  
HETATM    9  N   UNL     1      -9.176  10.502  66.680  1.00  0.00    -0.155 N  
HETATM   10  C   UNL     1      -8.826   9.621  67.815  1.00  0.00    -0.125 C  
HETATM   11  C   UNL     1     -10.208  11.452  67.002  1.00  0.00    -0.213 C  
HETATM   12  O   UNL     1     -11.402  11.253  66.834  1.00  0.00    -0.379 OA 
HETATM   13  C   UNL     1      -8.387  10.454  69.040  1.00  0.00    -0.150 C  
HETATM   14  C   UNL     1      -7.580  11.703  68.648  1.00  0.00    -0.133 C  
BRANCH  10  15
HETATM   15  C   UNL     1      -9.852   8.558  68.273  1.00  0.00    -0.169 C  
HETATM   16  O   UNL     1     -10.563   8.733  69.262  1.00  0.00    -0.225 OA 
HETATM   17  N   UNL     1      -9.858   7.392  67.556  1.00  0.00    -0.149 N  
HETATM   18  H   UNL     1      -9.176   7.271  66.807  1.00  0.00     0.000 HD 
BRANCH  17  19
HETATM   19  C   UNL     1     -10.807   6.312  67.826  1.00  0.00    -0.338 C  
HETATM   20  C   UNL     1     -11.155   5.497  66.574  1.00  0.00     0.050 C  
HETATM   21  C   UNL     1      -9.961   4.676  66.098  1.00  0.00    -0.247 C  
HETATM   22  N   UNL     1      -9.446   3.804  67.156  1.00  0.00    -0.197 NA 
HETATM   23  H   UNL     1      -8.664   3.241  66.822  1.00  0.00     0.000 HD 
HETATM   24  C   UNL     1      -9.083   4.550  68.363  1.00  0.00    -0.124 C  
HETATM   25  C   UNL     1     -10.246   5.383  68.901  1.00  0.00    -0.266 C  
ENDBRANCH  17  19
ENDBRANCH  10  15
ENDBRANCH   3   6
TORSDOF 3
ENDMDL
MODEL      112
REMARK 921   NORMALIZED FREE ENERGY PREDICTED BY IDOCK:   -3.86 KCAL/MOL
REMARK 922        TOTAL FREE ENERGY PREDICTED BY IDOCK:   -5.41 KCAL/MOL
REMARK 923 INTER-LIGAND FREE ENERGY PREDICTED BY IDOCK:   -4.58 KCAL/MOL
REMARK 924 INTRA-LIGAND FREE ENERGY PREDICTED BY IDOCK:   -0.82 KCAL/MOL
REMARK 927      BINDING AFFINITY PREDICTED BY RF-SCORE:    0.00 PKD
ROOT
HETATM    1  O   UNL     1      -9.114   4.742  66.698  1.00  0.00    -0.113 OA 
HETATM    2  S   UNL     1      -8.345   4.375  68.068  1.00  0.00    -0.094 S  
HETATM    3  O   UNL     1      -9.123   5.230  69.218  1.00  0.00    -0.105 OA 
HETATM    4  O   UNL     1      -6.985   4.864  67.939  1.00  0.00    -0.058 OA 
HETATM    5  O   UNL     1      -8.604   2.972  68.293  1.00  0.00    -0.081 OA 
ENDROOT
BRANCH   3   6
HETATM    6  N   UNL     1      -8.812   6.644  69.297  1.00  0.00    -0.133 N  
HETATM    7  C   UNL     1      -8.280   6.903  70.636  1.00  0.00    -0.120 C  
HETATM    8  C   UNL     1      -9.563   6.946  71.444  1.00  0.00    -0.166 C  
HETATM    9  N   UNL     1     -10.383   7.782  70.579  1.00  0.00    -0.203 N  
HETATM   10  C   UNL     1     -10.035   9.214  70.699  1.00  0.00    -0.248 C  
HETATM   11  C   UNL     1     -10.125   7.248  69.267  1.00  0.00    -0.183 C  
HETATM   12  O   UNL     1     -10.946   7.222  68.362  1.00  0.00    -0.102 OA 
HETATM   13  C   UNL     1      -8.552   9.450  70.336  1.00  0.00    -0.266 C  
HETATM   14  C   UNL     1      -7.638   8.305  70.808  1.00  0.00    -0.073 C  
BRANCH  10  15
HETATM   15  C   UNL     1     -10.904  10.255  69.955  1.00  0.00    -0.307 C  
HETATM   16  O   UNL     1     -12.131  10.259  70.055  1.00  0.00    -0.232 OA 
HETATM   17  N   UNL     1     -10.227  11.109  69.128  1.00  0.00    -0.367 N  
HETATM   18  H   UNL     1      -9.221  10.991  69.015  1.00  0.00     0.000 HD 
BRANCH  17  19
HETATM   19  C   UNL     1     -10.896  12.187  68.399  1.00  0.00    -0.224 C  
HETATM   20  C   UNL     1     -10.005  13.420  68.208  1.00  0.00    -0.240 C  
HETATM   21  C   UNL     1      -8.859  13.131  67.244  1.00  0.00    -0.208 C  
HETATM   22  N   UNL     1      -9.348  12.641  65.952  1.00  0.00    -0.446 NA 
HETATM   23  H   UNL     1      -8.576  12.474  65.306  1.00  0.00     0.000 HD 
HETATM   24  C   UNL     1     -10.188  11.450  66.093  1.00  0.00    -0.239 C  
HETATM   25  C   UNL     1     -11.367  11.680  67.038  1.00  0.00    -0.373 C  
ENDBRANCH  17  19
ENDBRANCH  10  15
ENDBRANCH   3   6
TORSDOF 3
ENDMDL
MODEL      113
REMARK 921   NORMALIZED FREE ENERGY PREDICTED BY IDOCK:   -3.84 KCAL/MOL
REMARK 922        TOTAL FREE ENERGY PREDICTED BY IDOCK:   -5.38 KCAL/MOL
REMARK 923 INTER-LIGAND FREE ENERGY PREDICTED BY IDOCK:   -4.72 KCAL/MOL
REMARK 924 INTRA-LIGAND FREE ENERGY PREDICTED BY IDOCK:   -0.66 KCAL/MOL
REMARK 927      BINDING AFFINITY PREDICTED BY RF-SCORE:    0.00 PKD
ROOT
HETATM    1  O   UNL     1      -5.246   8.720  64.911  1.00  0.00    -0.038 OA 
HETATM    2  S   UNL     1      -6.135   9.847  64.174  1.00  0.00    -0.131 S  
HETATM    3  O   UNL     1      -6.793  10.712  65.390  1.00  0.00    -0.111 OA 
HETATM    4  O   UNL     1      -7.185   9.157  63.449  1.00  0.00    -0.095 OA 
HETATM    5  O   UNL     1      -5.191  10.689  63.477  1.00  0.00    -0.154 OA 
ENDROOT
BRANCH   3   6
HETATM    6  N   UNL     1      -7.923  10.115  66.074  1.00  0.00    -0.119 N  
HETATM    7  C   UNL     1      -9.004  11.102  66.081  1.00  0.00    -0.195 C  
HETATM    8  C   UNL     1      -8.553  12.003  67.214  1.00  0.00    -0.177 C  
HETATM    9  N   UNL     1      -8.184  11.003  68.206  1.00  0.00    -0.124 N  
HETATM   10  C   UNL     1      -9.367  10.429  68.881  1.00  0.00    -0.186 C  
HETATM   11  C   UNL     1      -7.448  10.034  67.437  1.00  0.00    -0.091 C  
HETATM   12  O   UNL     1      -6.515   9.376  67.872  1.00  0.00    -0.061 OA 
HETATM   13  C   UNL     1     -10.315   9.768  67.855  1.00  0.00    -0.258 C  
HETATM   14  C   UNL     1     -10.379  10.540  66.526  1.00  0.00    -0.294 C  
BRANCH  10  15
HETATM   15  C   UNL     1      -9.149   9.455  70.062  1.00  0.00    -0.220 C  
HETATM   16  O   UNL     1      -8.209   9.592  70.845  1.00  0.00    -0.291 OA 
HETATM   17  N   UNL     1     -10.017   8.399  70.127  1.00  0.00    -0.185 N  
HETATM   18  H   UNL     1     -10.715   8.289  69.391  1.00  0.00     0.000 HD 
BRANCH  17  19
HETATM   19  C   UNL     1      -9.981   7.422  71.215  1.00  0.00    -0.187 C  
HETATM   20  C   UNL     1     -10.420   8.012  72.561  1.00  0.00    -0.383 C  
HETATM   21  C   UNL     1     -11.908   8.342  72.562  1.00  0.00    -0.373 C  
HETATM   22  N   UNL     1     -12.723   7.173  72.220  1.00  0.00    -0.519 NA 
HETATM   23  H   UNL     1     -13.718   7.396  72.247  1.00  0.00     0.000 HD 
HETATM   24  C   UNL     1     -12.346   6.593  70.929  1.00  0.00    -0.201 C  
HETATM   25  C   UNL     1     -10.863   6.225  70.870  1.00  0.00    -0.329 C  
ENDBRANCH  17  19
ENDBRANCH  10  15
ENDBRANCH   3   6
TORSDOF 3
ENDMDL
MODEL      114
REMARK 921   NORMALIZED FREE ENERGY PREDICTED BY IDOCK:   -3.82 KCAL/MOL
REMARK 922        TOTAL FREE ENERGY PREDICTED BY IDOCK:   -5.35 KCAL/MOL
REMARK 923 INTER-LIGAND FREE ENERGY PREDICTED BY IDOCK:   -4.78 KCAL/MOL
REMARK 924 INTRA-LIGAND FREE ENERGY PREDICTED BY IDOCK:   -0.57 KCAL/MOL
REMARK 927      BINDING AFFINITY PREDICTED BY RF-SCORE:    0.00 PKD
ROOT
HETATM    1  O   UNL     1     -10.869   6.194  66.852  1.00  0.00    -0.319 OA 
HETATM    2  S   UNL     1      -9.302   6.229  67.234  1.00  0.00    -0.121 S  
HETATM    3  O   UNL     1      -9.138   7.550  68.177  1.00  0.00    -0.130 OA 
HETATM    4  O   UNL     1      -8.564   6.422  66.000  1.00  0.00    -0.138 OA 
HETATM    5  O   UNL     1      -9.077   5.059  68.051  1.00  0.00    -0.110 OA 
ENDROOT
BRANCH   3   6
HETATM    6  N   UNL     1      -9.112   8.832  67.498  1.00  0.00    -0.133 N  
HETATM    7  C   UNL     1      -7.875   9.510  67.889  1.00  0.00    -0.091 C  
HETATM    8  C   UNL     1      -8.261  10.030  69.260  1.00  0.00    -0.147 C  
HETATM    9  N   UNL     1      -9.580  10.572  68.967  1.00  0.00    -0.196 N  
HETATM   10  C   UNL     1      -9.501  11.880  68.283  1.00  0.00    -0.197 C  
HETATM   11  C   UNL     1     -10.182   9.547  68.155  1.00  0.00    -0.193 C  
HETATM   12  O   UNL     1     -11.376   9.287  68.152  1.00  0.00     0.143 OA 
HETATM   13  C   UNL     1      -8.721  11.759  66.955  1.00  0.00    -0.189 C  
HETATM   14  C   UNL     1      -7.545  10.771  67.048  1.00  0.00    -0.114 C  
BRANCH  10  15
HETATM   15  C   UNL     1     -10.810  12.663  68.025  1.00  0.00    -0.225 C  
HETATM   16  O   UNL     1     -11.877  12.319  68.532  1.00  0.00    -0.316 OA 
HETATM   17  N   UNL     1     -10.713  13.705  67.143  1.00  0.00    -0.275 N  
HETATM   18  H   UNL     1      -9.820  13.879  66.682  1.00  0.00     0.000 HD 
BRANCH  17  19
HETATM   19  C   UNL     1     -11.846  14.579  66.837  1.00  0.00    -0.377 C  
HETATM   20  C   UNL     1     -11.428  16.035  66.597  1.00  0.00     0.409 C  
HETATM   21  C   UNL     1     -10.636  16.178  65.302  1.00  0.00    -0.369 C  
HETATM   22  N   UNL     1     -11.380  15.657  64.151  1.00  0.00    -0.762 NA 
HETATM   23  H   UNL     1     -10.853  15.779  63.286  1.00  0.00     0.000 HD 
HETATM   24  C   UNL     1     -11.779  14.260  64.335  1.00  0.00    -0.389 C  
HETATM   25  C   UNL     1     -12.593  14.053  65.613  1.00  0.00    -0.542 C  
ENDBRANCH  17  19
ENDBRANCH  10  15
ENDBRANCH   3   6
TORSDOF 3
ENDMDL
MODEL      115
REMARK 921   NORMALIZED FREE ENERGY PREDICTED BY IDOCK:   -3.81 KCAL/MOL
REMARK 922        TOTAL FREE ENERGY PREDICTED BY IDOCK:   -5.34 KCAL/MOL
REMARK 923 INTER-LIGAND FREE ENERGY PREDICTED BY IDOCK:   -4.52 KCAL/MOL
REMARK 924 INTRA-LIGAND FREE ENERGY PREDICTED BY IDOCK:   -0.83 KCAL/MOL
REMARK 927      BINDING AFFINITY PREDICTED BY RF-SCORE:    0.00 PKD
ROOT
HETATM    1  O   UNL     1      -7.216  14.737  68.314  1.00  0.00    -0.101 OA 
HETATM    2  S   UNL     1      -8.461  15.536  67.671  1.00  0.00    -0.174 S  
HETATM    3  O   UNL     1      -9.649  14.425  67.557  1.00  0.00    -0.209 OA 
HETATM    4  O   UNL     1      -8.061  15.954  66.341  1.00  0.00    -0.265 OA 
HETATM    5  O   UNL     1      -8.848  16.513  68.664  1.00  0.00    -0.218 OA 
ENDROOT
BRANCH   3   6
HETATM    6  N   UNL     1      -9.551  13.480  66.461  1.00  0.00    -0.276 N  
HETATM    7  C   UNL     1     -10.847  13.460  65.781  1.00  0.00    -0.275 C  
HETATM    8  C   UNL     1     -11.643  12.576  66.721  1.00  0.00    -0.382 C  
HETATM    9  N   UNL     1     -10.680  11.507  66.944  1.00  0.00    -0.250 N  
HETATM   10  C   UNL     1     -10.621  10.567  65.805  1.00  0.00    -0.066 C  
HETATM   11  C   UNL     1      -9.445  12.216  67.154  1.00  0.00    -0.190 C  
HETATM   12  O   UNL     1      -8.551  11.835  67.894  1.00  0.00    -0.142 OA 
HETATM   13  C   UNL     1     -10.232  11.306  64.505  1.00  0.00    -0.370 C  
HETATM   14  C   UNL     1     -10.843  12.716  64.420  1.00  0.00    -0.386 C  
BRANCH  10  15
HETATM   15  C   UNL     1      -9.753   9.294  65.936  1.00  0.00    -0.285 C  
HETATM   16  O   UNL     1     -10.041   8.397  66.728  1.00  0.00    -0.255 OA 
HETATM   17  N   UNL     1      -8.615   9.272  65.176  1.00  0.00    -0.161 N  
HETATM   18  H   UNL     1      -8.383  10.090  64.613  1.00  0.00     0.000 HD 
BRANCH  17  19
HETATM   19  C   UNL     1      -7.719   8.116  65.143  1.00  0.00    -0.107 C  
HETATM   20  C   UNL     1      -7.980   7.193  63.947  1.00  0.00    -0.076 C  
HETATM   21  C   UNL     1      -7.584   7.862  62.635  1.00  0.00    -0.115 C  
HETATM   22  N   UNL     1      -6.187   8.305  62.651  1.00  0.00    -0.086 NA 
HETATM   23  H   UNL     1      -5.924   8.729  61.761  1.00  0.00     0.000 HD 
HETATM   24  C   UNL     1      -5.905   9.206  63.771  1.00  0.00    -0.075 C  
HETATM   25  C   UNL     1      -6.266   8.585  65.120  1.00  0.00    -0.052 C  
ENDBRANCH  17  19
ENDBRANCH  10  15
ENDBRANCH   3   6
TORSDOF 3
ENDMDL
MODEL      116
REMARK 921   NORMALIZED FREE ENERGY PREDICTED BY IDOCK:   -3.80 KCAL/MOL
REMARK 922        TOTAL FREE ENERGY PREDICTED BY IDOCK:   -5.33 KCAL/MOL
REMARK 923 INTER-LIGAND FREE ENERGY PREDICTED BY IDOCK:   -4.62 KCAL/MOL
REMARK 924 INTRA-LIGAND FREE ENERGY PREDICTED BY IDOCK:   -0.72 KCAL/MOL
REMARK 927      BINDING AFFINITY PREDICTED BY RF-SCORE:    0.00 PKD
ROOT
HETATM    1  O   UNL     1      -9.596  11.244  64.511  1.00  0.00    -0.235 OA 
HETATM    2  S   UNL     1      -8.684  10.009  64.017  1.00  0.00    -0.227 S  
HETATM    3  O   UNL     1      -8.878   8.868  65.167  1.00  0.00    -0.195 OA 
HETATM    4  O   UNL     1      -7.307  10.466  64.018  1.00  0.00    -0.098 OA 
HETATM    5  O   UNL     1      -9.301   9.535  62.800  1.00  0.00    -0.191 OA 
ENDROOT
BRANCH   3   6
HETATM    6  N   UNL     1      -8.141   9.059  66.401  1.00  0.00    -0.109 N  
HETATM    7  C   UNL     1      -7.179   7.961  66.512  1.00  0.00    -0.083 C  
HETATM    8  C   UNL     1      -8.081   6.846  67.002  1.00  0.00    -0.117 C  
HETATM    9  N   UNL     1      -8.826   7.553  68.033  1.00  0.00    -0.127 N  
HETATM   10  C   UNL     1      -8.038   7.716  69.273  1.00  0.00    -0.128 C  
HETATM   11  C   UNL     1      -9.151   8.806  67.403  1.00  0.00    -0.133 C  
HETATM   12  O   UNL     1     -10.173   9.440  67.621  1.00  0.00    -0.197 OA 
HETATM   13  C   UNL     1      -6.734   8.499  68.994  1.00  0.00    -0.052 C  
HETATM   14  C   UNL     1      -6.118   8.153  67.627  1.00  0.00    -0.051 C  
BRANCH  10  15
HETATM   15  C   UNL     1      -8.728   8.321  70.519  1.00  0.00    -0.140 C  
HETATM   16  O   UNL     1      -8.466   9.457  70.912  1.00  0.00    -0.246 OA 
HETATM   17  N   UNL     1      -9.580   7.484  71.188  1.00  0.00    -0.159 N  
HETATM   18  H   UNL     1      -9.680   6.522  70.866  1.00  0.00     0.000 HD 
BRANCH  17  19
HETATM   19  C   UNL     1     -10.353   7.922  72.350  1.00  0.00    -0.270 C  
HETATM   20  C   UNL     1     -11.710   8.527  71.969  1.00  0.00    -0.431 C  
HETATM   21  C   UNL     1     -12.655   7.465  71.418  1.00  0.00    -0.370 C  
HETATM   22  N   UNL     1     -12.829   6.353  72.357  1.00  0.00    -0.508 NA 
HETATM   23  H   UNL     1     -13.481   5.659  71.991  1.00  0.00     0.000 HD 
HETATM   24  C   UNL     1     -11.554   5.737  72.729  1.00  0.00    -0.214 C  
HETATM   25  C   UNL     1     -10.566   6.750  73.305  1.00  0.00    -0.335 C  
ENDBRANCH  17  19
ENDBRANCH  10  15
ENDBRANCH   3   6
TORSDOF 3
ENDMDL
MODEL      117
REMARK 921   NORMALIZED FREE ENERGY PREDICTED BY IDOCK:   -3.80 KCAL/MOL
REMARK 922        TOTAL FREE ENERGY PREDICTED BY IDOCK:   -5.33 KCAL/MOL
REMARK 923 INTER-LIGAND FREE ENERGY PREDICTED BY IDOCK:   -5.18 KCAL/MOL
REMARK 924 INTRA-LIGAND FREE ENERGY PREDICTED BY IDOCK:   -0.15 KCAL/MOL
REMARK 927      BINDING AFFINITY PREDICTED BY RF-SCORE:    0.00 PKD
ROOT
HETATM    1  O   UNL     1     -10.222   5.517  70.681  1.00  0.00    -0.209 OA 
HETATM    2  S   UNL     1      -8.755   6.144  70.443  1.00  0.00    -0.143 S  
HETATM    3  O   UNL     1      -9.009   7.751  70.329  1.00  0.00    -0.146 OA 
HETATM    4  O   UNL     1      -8.275   5.639  69.171  1.00  0.00    -0.098 OA 
HETATM    5  O   UNL     1      -8.022   5.887  71.661  1.00  0.00    -0.110 OA 
ENDROOT
BRANCH   3   6
HETATM    6  N   UNL     1      -9.538   8.236  69.068  1.00  0.00    -0.155 N  
HETATM    7  C   UNL     1      -8.406   8.432  68.163  1.00  0.00    -0.128 C  
HETATM    8  C   UNL     1      -7.870   9.759  68.665  1.00  0.00    -0.081 C  
HETATM    9  N   UNL     1      -9.114  10.505  68.793  1.00  0.00    -0.158 N  
HETATM   10  C   UNL     1      -9.609  10.984  67.486  1.00  0.00    -0.164 C  
HETATM   11  C   UNL     1     -10.001   9.560  69.420  1.00  0.00    -0.191 C  
HETATM   12  O   UNL     1     -10.890   9.865  70.200  1.00  0.00    -0.258 OA 
HETATM   13  C   UNL     1      -9.853   9.799  66.524  1.00  0.00    -0.286 C  
HETATM   14  C   UNL     1      -8.806   8.683  66.685  1.00  0.00    -0.155 C  
BRANCH  10  15
HETATM   15  C   UNL     1     -10.844  11.915  67.456  1.00  0.00    -0.238 C  
HETATM   16  O   UNL     1     -11.975  11.494  67.699  1.00  0.00    -0.630 OA 
HETATM   17  N   UNL     1     -10.604  13.206  67.067  1.00  0.00    -0.257 N  
HETATM   18  H   UNL     1      -9.660  13.467  66.785  1.00  0.00     0.000 HD 
BRANCH  17  19
HETATM   19  C   UNL     1     -11.654  14.224  67.043  1.00  0.00    -0.386 C  
HETATM   20  C   UNL     1     -11.717  15.047  68.335  1.00  0.00    -0.341 C  
HETATM   21  C   UNL     1     -10.493  15.945  68.479  1.00  0.00    -0.241 C  
HETATM   22  N   UNL     1     -10.322  16.820  67.315  1.00  0.00    -0.300 NA 
HETATM   23  H   UNL     1      -9.515  17.434  67.431  1.00  0.00     0.000 HD 
HETATM   24  C   UNL     1     -10.238  16.066  66.063  1.00  0.00    -0.341 C  
HETATM   25  C   UNL     1     -11.448  15.156  65.851  1.00  0.00    -0.159 C  
ENDBRANCH  17  19
ENDBRANCH  10  15
ENDBRANCH   3   6
TORSDOF 3
ENDMDL
MODEL      118
REMARK 921   NORMALIZED FREE ENERGY PREDICTED BY IDOCK:   -3.79 KCAL/MOL
REMARK 922        TOTAL FREE ENERGY PREDICTED BY IDOCK:   -5.31 KCAL/MOL
REMARK 923 INTER-LIGAND FREE ENERGY PREDICTED BY IDOCK:   -4.77 KCAL/MOL
REMARK 924 INTRA-LIGAND FREE ENERGY PREDICTED BY IDOCK:   -0.55 KCAL/MOL
REMARK 927      BINDING AFFINITY PREDICTED BY RF-SCORE:    0.00 PKD
ROOT
HETATM    1  O   UNL     1     -11.388  12.873  68.174  1.00  0.00    -0.252 OA 
HETATM    2  S   UNL     1     -10.058  12.915  67.262  1.00  0.00    -0.233 S  
HETATM    3  O   UNL     1      -9.885  11.388  66.716  1.00  0.00    -0.200 OA 
HETATM    4  O   UNL     1      -8.949  13.243  68.138  1.00  0.00    -0.186 OA 
HETATM    5  O   UNL     1     -10.385  13.764  66.140  1.00  0.00    -0.287 OA 
ENDROOT
BRANCH   3   6
HETATM    6  N   UNL     1      -9.343  10.422  67.652  1.00  0.00    -0.148 N  
HETATM    7  C   UNL     1      -8.458   9.531  66.900  1.00  0.00    -0.127 C  
HETATM    8  C   UNL     1      -9.472   8.612  66.247  1.00  0.00    -0.241 C  
HETATM    9  N   UNL     1     -10.339   8.339  67.384  1.00  0.00    -0.257 N  
HETATM   10  C   UNL     1      -9.749   7.344  68.304  1.00  0.00    -0.152 C  
HETATM   11  C   UNL     1     -10.508   9.634  67.988  1.00  0.00    -0.229 C  
HETATM   12  O   UNL     1     -11.523   9.998  68.563  1.00  0.00    -0.121 OA 
HETATM   13  C   UNL     1      -8.386   7.836  68.842  1.00  0.00    -0.128 C  
HETATM   14  C   UNL     1      -7.578   8.609  67.785  1.00  0.00    -0.098 C  
BRANCH  10  15
HETATM   15  C   UNL     1     -10.599   6.832  69.491  1.00  0.00    -0.232 C  
HETATM   16  O   UNL     1     -11.728   6.371  69.323  1.00  0.00    -0.277 OA 
HETATM   17  N   UNL     1     -10.046   6.998  70.732  1.00  0.00    -0.194 N  
HETATM   18  H   UNL     1      -9.148   7.476  70.811  1.00  0.00     0.000 HD 
BRANCH  17  19
HETATM   19  C   UNL     1     -10.697   6.515  71.949  1.00  0.00    -0.219 C  
HETATM   20  C   UNL     1     -10.033   5.257  72.522  1.00  0.00    -0.208 C  
HETATM   21  C   UNL     1      -8.647   5.566  73.077  1.00  0.00    -0.121 C  
HETATM   22  N   UNL     1      -8.691   6.631  74.083  1.00  0.00    -0.140 NA 
HETATM   23  H   UNL     1      -7.763   6.814  74.467  1.00  0.00     0.000 HD 
HETATM   24  C   UNL     1      -9.301   7.857  73.566  1.00  0.00    -0.268 C  
HETATM   25  C   UNL     1     -10.704   7.616  73.008  1.00  0.00    -0.449 C  
ENDBRANCH  17  19
ENDBRANCH  10  15
ENDBRANCH   3   6
TORSDOF 3
ENDMDL
MODEL      119
REMARK 921   NORMALIZED FREE ENERGY PREDICTED BY IDOCK:   -3.78 KCAL/MOL
REMARK 922        TOTAL FREE ENERGY PREDICTED BY IDOCK:   -5.30 KCAL/MOL
REMARK 923 INTER-LIGAND FREE ENERGY PREDICTED BY IDOCK:   -4.52 KCAL/MOL
REMARK 924 INTRA-LIGAND FREE ENERGY PREDICTED BY IDOCK:   -0.78 KCAL/MOL
REMARK 927      BINDING AFFINITY PREDICTED BY RF-SCORE:    0.00 PKD
ROOT
HETATM    1  O   UNL     1      -6.579  14.877  68.272  1.00  0.00    -0.097 OA 
HETATM    2  S   UNL     1      -7.943  15.622  67.840  1.00  0.00    -0.148 S  
HETATM    3  O   UNL     1      -9.077  14.450  67.859  1.00  0.00    -0.176 OA 
HETATM    4  O   UNL     1      -7.761  16.095  66.481  1.00  0.00    -0.249 OA 
HETATM    5  O   UNL     1      -8.232  16.550  68.909  1.00  0.00    -0.231 OA 
ENDROOT
BRANCH   3   6
HETATM    6  N   UNL     1      -9.089  13.541  66.729  1.00  0.00    -0.237 N  
HETATM    7  C   UNL     1     -10.427  13.594  66.138  1.00  0.00    -0.297 C  
HETATM    8  C   UNL     1     -11.195  12.709  67.100  1.00  0.00    -0.300 C  
HETATM    9  N   UNL     1     -10.264  11.597  67.225  1.00  0.00    -0.199 N  
HETATM   10  C   UNL     1     -10.318  10.696  66.055  1.00  0.00    -0.225 C  
HETATM   11  C   UNL     1      -8.990  12.251  67.373  1.00  0.00    -0.183 C  
HETATM   12  O   UNL     1      -8.065  11.810  68.040  1.00  0.00    -0.129 OA 
HETATM   13  C   UNL     1      -9.985  11.463  64.756  1.00  0.00    -0.313 C  
HETATM   14  C   UNL     1     -10.543  12.897  64.757  1.00  0.00    -0.362 C  
BRANCH  10  15
HETATM   15  C   UNL     1      -9.496   9.386  66.087  1.00  0.00    -0.226 C  
HETATM   16  O   UNL     1      -8.734   9.081  65.171  1.00  0.00    -0.175 OA 
HETATM   17  N   UNL     1      -9.733   8.564  67.156  1.00  0.00    -0.175 N  
HETATM   18  H   UNL     1     -10.449   8.829  67.832  1.00  0.00     0.000 HD 
BRANCH  17  19
HETATM   19  C   UNL     1      -8.995   7.318  67.363  1.00  0.00    -0.122 C  
HETATM   20  C   UNL     1      -7.663   7.528  68.093  1.00  0.00    -0.120 C  
HETATM   21  C   UNL     1      -7.885   7.939  69.545  1.00  0.00    -0.110 C  
HETATM   22  N   UNL     1      -8.720   6.970  70.261  1.00  0.00    -0.143 NA 
HETATM   23  H   UNL     1      -8.844   7.240  71.237  1.00  0.00     0.000 HD 
HETATM   24  C   UNL     1     -10.011   6.758  69.603  1.00  0.00    -0.173 C  
HETATM   25  C   UNL     1      -9.855   6.328  68.144  1.00  0.00    -0.133 C  
ENDBRANCH  17  19
ENDBRANCH  10  15
ENDBRANCH   3   6
TORSDOF 3
ENDMDL
MODEL      120
REMARK 921   NORMALIZED FREE ENERGY PREDICTED BY IDOCK:   -3.77 KCAL/MOL
REMARK 922        TOTAL FREE ENERGY PREDICTED BY IDOCK:   -5.30 KCAL/MOL
REMARK 923 INTER-LIGAND FREE ENERGY PREDICTED BY IDOCK:   -4.81 KCAL/MOL
REMARK 924 INTRA-LIGAND FREE ENERGY PREDICTED BY IDOCK:   -0.49 KCAL/MOL
REMARK 927      BINDING AFFINITY PREDICTED BY RF-SCORE:    0.00 PKD
ROOT
HETATM    1  O   UNL     1     -13.373  12.159  63.947  1.00  0.00    -0.711 OA 
HETATM    2  S   UNL     1     -12.597  13.249  64.849  1.00  0.00    -0.342 S  
HETATM    3  O   UNL     1     -11.302  12.451  65.435  1.00  0.00    -0.313 OA 
HETATM    4  O   UNL     1     -13.480  13.607  65.942  1.00  0.00    -0.175 OA 
HETATM    5  O   UNL     1     -12.129  14.255  63.923  1.00  0.00    -0.415 OA 
ENDROOT
BRANCH   3   6
HETATM    6  N   UNL     1     -11.544  11.548  66.544  1.00  0.00    -0.116 N  
HETATM    7  C   UNL     1     -11.321  12.300  67.780  1.00  0.00    -0.301 C  
HETATM    8  C   UNL     1      -9.807  12.283  67.850  1.00  0.00    -0.201 C  
HETATM    9  N   UNL     1      -9.552  10.883  67.541  1.00  0.00    -0.155 N  
HETATM   10  C   UNL     1      -9.805  10.004  68.701  1.00  0.00    -0.160 C  
HETATM   11  C   UNL     1     -10.437  10.625  66.435  1.00  0.00    -0.213 C  
HETATM   12  O   UNL     1     -10.192   9.846  65.526  1.00  0.00    -0.273 OA 
HETATM   13  C   UNL     1     -11.269  10.135  69.180  1.00  0.00    -0.234 C  
HETATM   14  C   UNL     1     -11.801  11.574  69.064  1.00  0.00    -0.408 C  
BRANCH  10  15
HETATM   15  C   UNL     1      -9.448   8.503  68.588  1.00  0.00    -0.143 C  
HETATM   16  O   UNL     1     -10.250   7.625  68.903  1.00  0.00    -0.199 OA 
HETATM   17  N   UNL     1      -8.167   8.227  68.193  1.00  0.00    -0.127 N  
HETATM   18  H   UNL     1      -7.521   9.001  68.040  1.00  0.00     0.000 HD 
BRANCH  17  19
HETATM   19  C   UNL     1      -7.691   6.860  67.982  1.00  0.00    -0.113 C  
HETATM   20  C   UNL     1      -7.631   6.472  66.499  1.00  0.00    -0.090 C  
HETATM   21  C   UNL     1      -6.535   7.240  65.769  1.00  0.00    -0.045 C  
HETATM   22  N   UNL     1      -5.228   7.057  66.405  1.00  0.00    -0.021 NA 
HETATM   23  H   UNL     1      -4.497   7.554  65.897  1.00  0.00     0.000 HD 
HETATM   24  C   UNL     1      -5.241   7.437  67.819  1.00  0.00    -0.025 C  
HETATM   25  C   UNL     1      -6.311   6.686  68.612  1.00  0.00    -0.031 C  
ENDBRANCH  17  19
ENDBRANCH  10  15
ENDBRANCH   3   6
TORSDOF 3
ENDMDL
MODEL      121
REMARK 921   NORMALIZED FREE ENERGY PREDICTED BY IDOCK:   -3.75 KCAL/MOL
REMARK 922        TOTAL FREE ENERGY PREDICTED BY IDOCK:   -5.28 KCAL/MOL
REMARK 923 INTER-LIGAND FREE ENERGY PREDICTED BY IDOCK:   -5.39 KCAL/MOL
REMARK 924 INTRA-LIGAND FREE ENERGY PREDICTED BY IDOCK:    0.12 KCAL/MOL
REMARK 927      BINDING AFFINITY PREDICTED BY RF-SCORE:    0.00 PKD
ROOT
HETATM    1  O   UNL     1      -5.280   8.799  65.007  1.00  0.00    -0.038 OA 
HETATM    2  S   UNL     1      -6.398   9.740  64.322  1.00  0.00    -0.124 S  
HETATM    3  O   UNL     1      -7.088  10.534  65.568  1.00  0.00    -0.142 OA 
HETATM    4  O   UNL     1      -7.377   8.863  63.707  1.00  0.00    -0.098 OA 
HETATM    5  O   UNL     1      -5.664  10.696  63.525  1.00  0.00    -0.144 OA 
ENDROOT
BRANCH   3   6
HETATM    6  N   UNL     1      -8.046   9.789  66.362  1.00  0.00    -0.115 N  
HETATM    7  C   UNL     1      -9.153   9.419  65.479  1.00  0.00    -0.218 C  
HETATM    8  C   UNL     1      -9.923  10.725  65.430  1.00  0.00    -0.271 C  
HETATM    9  N   UNL     1      -9.922  11.076  66.843  1.00  0.00    -0.191 N  
HETATM   10  C   UNL     1     -10.919  10.297  67.608  1.00  0.00    -0.294 C  
HETATM   11  C   UNL     1      -8.567  10.807  67.247  1.00  0.00    -0.130 C  
HETATM   12  O   UNL     1      -7.968  11.438  68.105  1.00  0.00    -0.119 OA 
HETATM   13  C   UNL     1     -10.642   8.782  67.485  1.00  0.00    -0.298 C  
HETATM   14  C   UNL     1     -10.136   8.384  66.087  1.00  0.00     0.007 C  
BRANCH  10  15
HETATM   15  C   UNL     1     -11.149  10.645  69.097  1.00  0.00    -0.255 C  
HETATM   16  O   UNL     1     -11.034  11.796  69.515  1.00  0.00    -0.181 OA 
HETATM   17  N   UNL     1     -11.410   9.582  69.920  1.00  0.00    -0.398 N  
HETATM   18  H   UNL     1     -11.396   8.641  69.528  1.00  0.00     0.000 HD 
BRANCH  17  19
HETATM   19  C   UNL     1     -11.707   9.749  71.342  1.00  0.00    -0.398 C  
HETATM   20  C   UNL     1     -13.200   9.596  71.662  1.00  0.00    -0.499 C  
HETATM   21  C   UNL     1     -13.662   8.156  71.470  1.00  0.00    -0.309 C  
HETATM   22  N   UNL     1     -12.864   7.220  72.267  1.00  0.00    -0.509 NA 
HETATM   23  H   UNL     1     -13.195   6.262  72.152  1.00  0.00     0.000 HD 
HETATM   24  C   UNL     1     -11.433   7.323  71.974  1.00  0.00    -0.269 C  
HETATM   25  C   UNL     1     -10.903   8.744  72.164  1.00  0.00    -0.400 C  
ENDBRANCH  17  19
ENDBRANCH  10  15
ENDBRANCH   3   6
TORSDOF 3
ENDMDL
MODEL      122
REMARK 921   NORMALIZED FREE ENERGY PREDICTED BY IDOCK:   -3.75 KCAL/MOL
REMARK 922        TOTAL FREE ENERGY PREDICTED BY IDOCK:   -5.27 KCAL/MOL
REMARK 923 INTER-LIGAND FREE ENERGY PREDICTED BY IDOCK:   -4.42 KCAL/MOL
REMARK 924 INTRA-LIGAND FREE ENERGY PREDICTED BY IDOCK:   -0.86 KCAL/MOL
REMARK 927      BINDING AFFINITY PREDICTED BY RF-SCORE:    0.00 PKD
ROOT
HETATM    1  O   UNL     1     -12.031   6.131  71.728  1.00  0.00    -0.289 OA 
HETATM    2  S   UNL     1     -12.298   7.721  71.790  1.00  0.00    -0.327 S  
HETATM    3  O   UNL     1     -11.895   8.265  70.307  1.00  0.00    -0.011 OA 
HETATM    4  O   UNL     1     -11.383   8.271  72.772  1.00  0.00    -0.381 OA 
HETATM    5  O   UNL     1     -13.726   7.868  71.954  1.00  0.00    -0.336 OA 
ENDROOT
BRANCH   3   6
HETATM    6  N   UNL     1     -10.478   8.405  70.030  1.00  0.00    -0.219 N  
HETATM    7  C   UNL     1     -10.245   9.793  69.627  1.00  0.00    -0.233 C  
HETATM    8  C   UNL     1     -10.714   9.750  68.187  1.00  0.00    -0.233 C  
HETATM    9  N   UNL     1     -10.073   8.520  67.744  1.00  0.00    -0.198 N  
HETATM   10  C   UNL     1      -8.633   8.715  67.468  1.00  0.00    -0.135 C  
HETATM   11  C   UNL     1     -10.319   7.611  68.833  1.00  0.00    -0.212 C  
HETATM   12  O   UNL     1     -10.483   6.408  68.699  1.00  0.00    -0.179 OA 
HETATM   13  C   UNL     1      -7.897   9.219  68.730  1.00  0.00    -0.088 C  
HETATM   14  C   UNL     1      -8.748  10.195  69.561  1.00  0.00    -0.189 C  
BRANCH  10  15
HETATM   15  C   UNL     1      -7.830   7.544  66.854  1.00  0.00    -0.111 C  
HETATM   16  O   UNL     1      -6.601   7.514  66.896  1.00  0.00    -0.057 OA 
HETATM   17  N   UNL     1      -8.570   6.596  66.200  1.00  0.00    -0.141 N  
HETATM   18  H   UNL     1      -9.578   6.730  66.117  1.00  0.00     0.000 HD 
BRANCH  17  19
HETATM   19  C   UNL     1      -7.967   5.399  65.615  1.00  0.00    -0.107 C  
HETATM   20  C   UNL     1      -7.639   4.326  66.661  1.00  0.00    -0.085 C  
HETATM   21  C   UNL     1      -8.909   3.715  67.245  1.00  0.00    -0.127 C  
HETATM   22  N   UNL     1      -9.779   3.170  66.199  1.00  0.00    -0.402 NA 
HETATM   23  H   UNL     1     -10.613   2.741  66.600  1.00  0.00     0.000 HD 
HETATM   24  C   UNL     1     -10.130   4.172  65.192  1.00  0.00    -0.209 C  
HETATM   25  C   UNL     1      -8.897   4.812  64.555  1.00  0.00    -0.147 C  
ENDBRANCH  17  19
ENDBRANCH  10  15
ENDBRANCH   3   6
TORSDOF 3
ENDMDL
MODEL      123
REMARK 921   NORMALIZED FREE ENERGY PREDICTED BY IDOCK:   -3.72 KCAL/MOL
REMARK 922        TOTAL FREE ENERGY PREDICTED BY IDOCK:   -5.24 KCAL/MOL
REMARK 923 INTER-LIGAND FREE ENERGY PREDICTED BY IDOCK:   -4.99 KCAL/MOL
REMARK 924 INTRA-LIGAND FREE ENERGY PREDICTED BY IDOCK:   -0.25 KCAL/MOL
REMARK 927      BINDING AFFINITY PREDICTED BY RF-SCORE:    0.00 PKD
ROOT
HETATM    1  O   UNL     1      -6.626  12.830  69.493  1.00  0.00    -0.103 OA 
HETATM    2  S   UNL     1      -7.191  13.483  68.131  1.00  0.00    -0.136 S  
HETATM    3  O   UNL     1      -8.581  12.683  67.836  1.00  0.00    -0.160 OA 
HETATM    4  O   UNL     1      -6.231  13.187  67.084  1.00  0.00    -0.282 OA 
HETATM    5  O   UNL     1      -7.517  14.851  68.464  1.00  0.00    -0.107 OA 
ENDROOT
BRANCH   3   6
HETATM    6  N   UNL     1      -8.456  11.352  67.272  1.00  0.00    -0.143 N  
HETATM    7  C   UNL     1      -8.968  11.405  65.902  1.00  0.00    -0.177 C  
HETATM    8  C   UNL     1     -10.462  11.362  66.159  1.00  0.00    -0.255 C  
HETATM    9  N   UNL     1     -10.521  10.293  67.146  1.00  0.00    -0.241 N  
HETATM   10  C   UNL     1     -10.398   8.958  66.524  1.00  0.00    -0.197 C  
HETATM   11  C   UNL     1      -9.432  10.605  68.033  1.00  0.00    -0.158 C  
HETATM   12  O   UNL     1      -9.434  10.370  69.232  1.00  0.00    -0.201 OA 
HETATM   13  C   UNL     1      -9.063   8.833  65.755  1.00  0.00    -0.267 C  
HETATM   14  C   UNL     1      -8.659  10.143  65.056  1.00  0.00    -0.178 C  
BRANCH  10  15
HETATM   15  C   UNL     1     -10.583   7.705  67.412  1.00  0.00    -0.286 C  
HETATM   16  O   UNL     1     -11.236   6.735  67.030  1.00  0.00    -0.393 OA 
HETATM   17  N   UNL     1     -10.042   7.783  68.667  1.00  0.00    -0.194 N  
HETATM   18  H   UNL     1      -9.596   8.653  68.958  1.00  0.00     0.000 HD 
BRANCH  17  19
HETATM   19  C   UNL     1     -10.080   6.663  69.607  1.00  0.00    -0.181 C  
HETATM   20  C   UNL     1      -9.061   6.804  70.744  1.00  0.00    -0.151 C  
HETATM   21  C   UNL     1      -9.437   7.942  71.687  1.00  0.00    -0.152 C  
HETATM   22  N   UNL     1     -10.791   7.778  72.223  1.00  0.00    -0.260 NA 
HETATM   23  H   UNL     1     -11.025   8.530  72.871  1.00  0.00     0.000 HD 
HETATM   24  C   UNL     1     -11.796   7.660  71.164  1.00  0.00    -0.293 C  
HETATM   25  C   UNL     1     -11.483   6.522  70.192  1.00  0.00    -0.477 C  
ENDBRANCH  17  19
ENDBRANCH  10  15
ENDBRANCH   3   6
TORSDOF 3
ENDMDL
MODEL      124
REMARK 921   NORMALIZED FREE ENERGY PREDICTED BY IDOCK:   -3.68 KCAL/MOL
REMARK 922        TOTAL FREE ENERGY PREDICTED BY IDOCK:   -5.19 KCAL/MOL
REMARK 923 INTER-LIGAND FREE ENERGY PREDICTED BY IDOCK:   -4.47 KCAL/MOL
REMARK 924 INTRA-LIGAND FREE ENERGY PREDICTED BY IDOCK:   -0.72 KCAL/MOL
REMARK 927      BINDING AFFINITY PREDICTED BY RF-SCORE:    0.00 PKD
ROOT
HETATM    1  O   UNL     1     -13.527  10.143  71.115  1.00  0.00    -0.342 OA 
HETATM    2  S   UNL     1     -13.585   8.750  71.927  1.00  0.00    -0.448 S  
HETATM    3  O   UNL     1     -12.024   8.310  72.101  1.00  0.00    -0.323 OA 
HETATM    4  O   UNL     1     -14.266   7.789  71.081  1.00  0.00    -0.307 OA 
HETATM    5  O   UNL     1     -14.111   9.084  73.231  1.00  0.00    -0.261 OA 
ENDROOT
BRANCH   3   6
HETATM    6  N   UNL     1     -11.380   7.730  70.939  1.00  0.00    -0.273 N  
HETATM    7  C   UNL     1     -11.296   6.285  71.159  1.00  0.00    -0.303 C  
HETATM    8  C   UNL     1     -10.103   6.212  72.092  1.00  0.00    -0.183 C  
HETATM    9  N   UNL     1      -9.188   7.115  71.409  1.00  0.00    -0.150 N  
HETATM   10  C   UNL     1      -8.551   6.477  70.238  1.00  0.00    -0.136 C  
HETATM   11  C   UNL     1     -10.029   8.229  71.056  1.00  0.00    -0.187 C  
HETATM   12  O   UNL     1      -9.647   9.389  71.002  1.00  0.00    -0.268 OA 
HETATM   13  C   UNL     1      -9.618   6.009  69.222  1.00  0.00    -0.162 C  
HETATM   14  C   UNL     1     -10.888   5.470  69.904  1.00  0.00    -0.298 C  
BRANCH  10  15
HETATM   15  C   UNL     1      -7.445   7.249  69.481  1.00  0.00    -0.091 C  
HETATM   16  O   UNL     1      -6.253   7.079  69.734  1.00  0.00    -0.032 OA 
HETATM   17  N   UNL     1      -7.883   8.180  68.578  1.00  0.00    -0.116 N  
HETATM   18  H   UNL     1      -8.886   8.342  68.486  1.00  0.00     0.000 HD 
BRANCH  17  19
HETATM   19  C   UNL     1      -6.964   8.952  67.742  1.00  0.00    -0.075 C  
HETATM   20  C   UNL     1      -6.648   8.261  66.410  1.00  0.00    -0.055 C  
HETATM   21  C   UNL     1      -7.869   8.236  65.495  1.00  0.00    -0.107 C  
HETATM   22  N   UNL     1      -8.402   9.582  65.266  1.00  0.00    -0.132 NA 
HETATM   23  H   UNL     1      -9.203   9.558  64.635  1.00  0.00     0.000 HD 
HETATM   24  C   UNL     1      -8.735  10.266  66.517  1.00  0.00    -0.131 C  
HETATM   25  C   UNL     1      -7.544  10.338  67.473  1.00  0.00    -0.094 C  
ENDBRANCH  17  19
ENDBRANCH  10  15
ENDBRANCH   3   6
TORSDOF 3
ENDMDL
MODEL      125
REMARK 921   NORMALIZED FREE ENERGY PREDICTED BY IDOCK:   -3.66 KCAL/MOL
REMARK 922        TOTAL FREE ENERGY PREDICTED BY IDOCK:   -5.17 KCAL/MOL
REMARK 923 INTER-LIGAND FREE ENERGY PREDICTED BY IDOCK:   -4.28 KCAL/MOL
REMARK 924 INTRA-LIGAND FREE ENERGY PREDICTED BY IDOCK:   -0.88 KCAL/MOL
REMARK 927      BINDING AFFINITY PREDICTED BY RF-SCORE:    0.00 PKD
ROOT
HETATM    1  O   UNL     1      -5.630   8.005  68.707  1.00  0.00    -0.030 OA 
HETATM    2  S   UNL     1      -6.497   8.018  67.346  1.00  0.00    -0.058 S  
HETATM    3  O   UNL     1      -7.967   8.557  67.800  1.00  0.00    -0.105 OA 
HETATM    4  O   UNL     1      -6.605   6.643  66.895  1.00  0.00    -0.045 OA 
HETATM    5  O   UNL     1      -5.885   9.021  66.506  1.00  0.00    -0.052 OA 
ENDROOT
BRANCH   3   6
HETATM    6  N   UNL     1      -8.831   7.603  68.468  1.00  0.00    -0.131 N  
HETATM    7  C   UNL     1     -10.069   7.513  67.693  1.00  0.00    -0.187 C  
HETATM    8  C   UNL     1     -10.782   8.769  68.156  1.00  0.00    -0.073 C  
HETATM    9  N   UNL     1     -10.560   8.675  69.592  1.00  0.00    -0.222 N  
HETATM   10  C   UNL     1     -11.467   7.697  70.229  1.00  0.00    -0.127 C  
HETATM   11  C   UNL     1      -9.173   8.301  69.687  1.00  0.00    -0.158 C  
HETATM   12  O   UNL     1      -8.430   8.644  70.594  1.00  0.00    -0.130 OA 
HETATM   13  C   UNL     1     -11.276   6.291  69.616  1.00  0.00    -0.506 C  
HETATM   14  C   UNL     1     -10.996   6.339  68.104  1.00  0.00    -0.412 C  
BRANCH  10  15
HETATM   15  C   UNL     1     -11.464   7.575  71.771  1.00  0.00    -0.260 C  
HETATM   16  O   UNL     1     -12.169   8.296  72.476  1.00  0.00    -0.370 OA 
HETATM   17  N   UNL     1     -10.574   6.674  72.292  1.00  0.00    -0.210 N  
HETATM   18  H   UNL     1      -9.949   6.177  71.659  1.00  0.00     0.000 HD 
BRANCH  17  19
HETATM   19  C   UNL     1     -10.488   6.399  73.726  1.00  0.00    -0.303 C  
HETATM   20  C   UNL     1     -10.605   4.906  74.055  1.00  0.00    -0.350 C  
HETATM   21  C   UNL     1      -9.381   4.135  73.573  1.00  0.00    -0.103 C  
HETATM   22  N   UNL     1      -8.140   4.690  74.121  1.00  0.00    -0.100 NA 
HETATM   23  H   UNL     1      -7.329   4.154  73.813  1.00  0.00     0.000 HD 
HETATM   24  C   UNL     1      -7.984   6.112  73.809  1.00  0.00    -0.097 C  
HETATM   25  C   UNL     1      -9.175   6.944  74.283  1.00  0.00    -0.255 C  
ENDBRANCH  17  19
ENDBRANCH  10  15
ENDBRANCH   3   6
TORSDOF 3
ENDMDL
MODEL      126
REMARK 921   NORMALIZED FREE ENERGY PREDICTED BY IDOCK:   -3.66 KCAL/MOL
REMARK 922        TOTAL FREE ENERGY PREDICTED BY IDOCK:   -5.16 KCAL/MOL
REMARK 923 INTER-LIGAND FREE ENERGY PREDICTED BY IDOCK:   -4.65 KCAL/MOL
REMARK 924 INTRA-LIGAND FREE ENERGY PREDICTED BY IDOCK:   -0.52 KCAL/MOL
REMARK 927      BINDING AFFINITY PREDICTED BY RF-SCORE:    0.00 PKD
ROOT
HETATM    1  O   UNL     1     -13.683  15.581  71.041  1.00  0.00    -0.546 OA 
HETATM    2  S   UNL     1     -13.125  14.315  71.871  1.00  0.00    -0.392 S  
HETATM    3  O   UNL     1     -11.797  13.840  71.053  1.00  0.00    -0.226 OA 
HETATM    4  O   UNL     1     -14.135  13.277  71.798  1.00  0.00    -0.123 OA 
HETATM    5  O   UNL     1     -12.705  14.845  73.148  1.00  0.00    -0.430 OA 
ENDROOT
BRANCH   3   6
HETATM    6  N   UNL     1     -12.021  13.080  69.838  1.00  0.00    -0.330 N  
HETATM    7  C   UNL     1     -12.026  11.663  70.201  1.00  0.00    -0.359 C  
HETATM    8  C   UNL     1     -10.537  11.397  70.317  1.00  0.00     1.101 C  
HETATM    9  N   UNL     1     -10.064  12.058  69.110  1.00  0.00     0.101 N  
HETATM   10  C   UNL     1     -10.307  11.244  67.900  1.00  0.00    -0.182 C  
HETATM   11  C   UNL     1     -10.792  13.300  69.108  1.00  0.00    -0.104 C  
HETATM   12  O   UNL     1     -10.354  14.353  68.669  1.00  0.00    -0.234 OA 
HETATM   13  C   UNL     1     -11.814  10.950  67.732  1.00  0.00     0.117 C  
HETATM   14  C   UNL     1     -12.525  10.717  69.076  1.00  0.00     0.339 C  
BRANCH  10  15
HETATM   15  C   UNL     1      -9.738  11.734  66.548  1.00  0.00    -0.206 C  
HETATM   16  O   UNL     1      -8.677  11.302  66.101  1.00  0.00    -0.184 OA 
HETATM   17  N   UNL     1     -10.451  12.727  65.931  1.00  0.00    -0.271 N  
HETATM   18  H   UNL     1     -11.270  13.110  66.401  1.00  0.00     0.000 HD 
BRANCH  17  19
HETATM   19  C   UNL     1     -10.078  13.258  64.620  1.00  0.00    -0.225 C  
HETATM   20  C   UNL     1     -10.593  12.397  63.459  1.00  0.00    -0.451 C  
HETATM   21  C   UNL     1     -12.111  12.473  63.345  1.00  0.00    -0.529 C  
HETATM   22  N   UNL     1     -12.576  13.857  63.209  1.00  0.00    -1.006 NA 
HETATM   23  H   UNL     1     -13.591  13.896  63.108  1.00  0.00     0.000 HD 
HETATM   24  C   UNL     1     -12.120  14.706  64.311  1.00  0.00    -0.415 C  
HETATM   25  C   UNL     1     -10.600  14.685  64.468  1.00  0.00    -0.090 C  
ENDBRANCH  17  19
ENDBRANCH  10  15
ENDBRANCH   3   6
TORSDOF 3
ENDMDL
MODEL      127
REMARK 921   NORMALIZED FREE ENERGY PREDICTED BY IDOCK:   -3.62 KCAL/MOL
REMARK 922        TOTAL FREE ENERGY PREDICTED BY IDOCK:   -5.12 KCAL/MOL
REMARK 923 INTER-LIGAND FREE ENERGY PREDICTED BY IDOCK:   -4.32 KCAL/MOL
REMARK 924 INTRA-LIGAND FREE ENERGY PREDICTED BY IDOCK:   -0.80 KCAL/MOL
REMARK 927      BINDING AFFINITY PREDICTED BY RF-SCORE:    0.00 PKD
ROOT
HETATM    1  O   UNL     1     -11.733  15.582  68.032  1.00  0.00    -0.322 OA 
HETATM    2  S   UNL     1     -10.611  16.647  68.491  1.00  0.00    -0.357 S  
HETATM    3  O   UNL     1      -9.208  16.037  67.926  1.00  0.00    -0.195 OA 
HETATM    4  O   UNL     1     -10.588  16.646  69.941  1.00  0.00    -0.275 OA 
HETATM    5  O   UNL     1     -10.906  17.858  67.761  1.00  0.00    -0.374 OA 
ENDROOT
BRANCH   3   6
HETATM    6  N   UNL     1      -8.628  14.940  68.677  1.00  0.00    -0.162 N  
HETATM    7  C   UNL     1      -7.236  15.291  68.961  1.00  0.00    -0.151 C  
HETATM    8  C   UNL     1      -6.588  14.970  67.628  1.00  0.00    -0.169 C  
HETATM    9  N   UNL     1      -7.197  13.676  67.352  1.00  0.00    -0.144 N  
HETATM   10  C   UNL     1      -6.568  12.590  68.134  1.00  0.00    -0.077 C  
HETATM   11  C   UNL     1      -8.580  13.885  67.690  1.00  0.00    -0.190 C  
HETATM   12  O   UNL     1      -9.516  13.336  67.127  1.00  0.00    -0.223 OA 
HETATM   13  C   UNL     1      -6.686  12.868  69.650  1.00  0.00     0.091 C  
HETATM   14  C   UNL     1      -6.541  14.361  69.990  1.00  0.00    -0.116 C  
BRANCH  10  15
HETATM   15  C   UNL     1      -6.998  11.130  67.857  1.00  0.00    -0.069 C  
HETATM   16  O   UNL     1      -6.243  10.329  67.309  1.00  0.00    -0.057 OA 
HETATM   17  N   UNL     1      -8.290  10.820  68.190  1.00  0.00    -0.116 N  
HETATM   18  H   UNL     1      -8.895  11.557  68.551  1.00  0.00     0.000 HD 
BRANCH  17  19
HETATM   19  C   UNL     1      -8.832   9.470  68.045  1.00  0.00    -0.123 C  
HETATM   20  C   UNL     1      -9.137   8.802  69.391  1.00  0.00    -0.145 C  
HETATM   21  C   UNL     1     -10.312   9.476  70.091  1.00  0.00    -0.255 C  
HETATM   22  N   UNL     1     -11.507   9.500  69.242  1.00  0.00    -0.438 NA 
HETATM   23  H   UNL     1     -12.295   9.930  69.727  1.00  0.00     0.000 HD 
HETATM   24  C   UNL     1     -11.259  10.149  67.954  1.00  0.00    -0.163 C  
HETATM   25  C   UNL     1     -10.099   9.506  67.194  1.00  0.00    -0.290 C  
ENDBRANCH  17  19
ENDBRANCH  10  15
ENDBRANCH   3   6
TORSDOF 3
ENDMDL
MODEL      128
REMARK 921   NORMALIZED FREE ENERGY PREDICTED BY IDOCK:   -3.62 KCAL/MOL
REMARK 922        TOTAL FREE ENERGY PREDICTED BY IDOCK:   -5.11 KCAL/MOL
REMARK 923 INTER-LIGAND FREE ENERGY PREDICTED BY IDOCK:   -4.92 KCAL/MOL
REMARK 924 INTRA-LIGAND FREE ENERGY PREDICTED BY IDOCK:   -0.20 KCAL/MOL
REMARK 927      BINDING AFFINITY PREDICTED BY RF-SCORE:    0.00 PKD
ROOT
HETATM    1  O   UNL     1      -8.491   8.338  70.096  1.00  0.00    -0.121 OA 
HETATM    2  S   UNL     1      -9.218   7.880  68.730  1.00  0.00    -0.142 S  
HETATM    3  O   UNL     1      -8.853   9.052  67.656  1.00  0.00    -0.124 OA 
HETATM    4  O   UNL     1     -10.646   7.884  68.983  1.00  0.00    -0.219 OA 
HETATM    5  O   UNL     1      -8.547   6.667  68.323  1.00  0.00    -0.120 OA 
ENDROOT
BRANCH   3   6
HETATM    6  N   UNL     1      -9.602  10.289  67.766  1.00  0.00    -0.151 N  
HETATM    7  C   UNL     1     -10.122  10.606  66.436  1.00  0.00    -0.225 C  
HETATM    8  C   UNL     1      -8.886  11.192  65.783  1.00  0.00    -0.174 C  
HETATM    9  N   UNL     1      -8.425  12.071  66.849  1.00  0.00    -0.178 N  
HETATM   10  C   UNL     1      -9.213  13.320  66.916  1.00  0.00    -0.241 C  
HETATM   11  C   UNL     1      -8.560  11.255  68.028  1.00  0.00    -0.140 C  
HETATM   12  O   UNL     1      -7.821  11.323  68.998  1.00  0.00    -0.135 OA 
HETATM   13  C   UNL     1     -10.709  13.012  67.154  1.00  0.00    -0.266 C  
HETATM   14  C   UNL     1     -11.176  11.745  66.417  1.00  0.00    -0.382 C  
BRANCH  10  15
HETATM   15  C   UNL     1      -8.767  14.427  67.900  1.00  0.00    -0.168 C  
HETATM   16  O   UNL     1      -7.792  14.281  68.636  1.00  0.00    -0.133 OA 
HETATM   17  N   UNL     1      -9.570  15.535  67.949  1.00  0.00    -0.206 N  
HETATM   18  H   UNL     1     -10.418  15.553  67.384  1.00  0.00     0.000 HD 
BRANCH  17  19
HETATM   19  C   UNL     1      -9.254  16.693  68.784  1.00  0.00    -0.253 C  
HETATM   20  C   UNL     1      -7.949  17.386  68.375  1.00  0.00    -0.259 C  
HETATM   21  C   UNL     1      -8.089  18.075  67.022  1.00  0.00    -0.225 C  
HETATM   22  N   UNL     1      -9.204  19.026  67.010  1.00  0.00    -0.292 NA 
HETATM   23  H   UNL     1      -9.275  19.500  66.109  1.00  0.00     0.000 HD 
HETATM   24  C   UNL     1     -10.474  18.395  67.377  1.00  0.00    -0.415 C  
HETATM   25  C   UNL     1     -10.403  17.698  68.736  1.00  0.00    -0.348 C  
ENDBRANCH  17  19
ENDBRANCH  10  15
ENDBRANCH   3   6
TORSDOF 3
ENDMDL
MODEL      129
REMARK 921   NORMALIZED FREE ENERGY PREDICTED BY IDOCK:   -3.58 KCAL/MOL
REMARK 922        TOTAL FREE ENERGY PREDICTED BY IDOCK:   -5.07 KCAL/MOL
REMARK 923 INTER-LIGAND FREE ENERGY PREDICTED BY IDOCK:   -4.86 KCAL/MOL
REMARK 924 INTRA-LIGAND FREE ENERGY PREDICTED BY IDOCK:   -0.22 KCAL/MOL
REMARK 927      BINDING AFFINITY PREDICTED BY RF-SCORE:    0.00 PKD
ROOT
HETATM    1  O   UNL     1     -12.161  13.873  68.068  1.00  0.00    -0.367 OA 
HETATM    2  S   UNL     1     -11.249  13.829  66.738  1.00  0.00    -0.326 S  
HETATM    3  O   UNL     1     -11.070  12.241  66.414  1.00  0.00    -0.274 OA 
HETATM    4  O   UNL     1      -9.961  14.400  67.083  1.00  0.00    -0.247 OA 
HETATM    5  O   UNL     1     -12.058  14.416  65.695  1.00  0.00    -0.379 OA 
ENDROOT
BRANCH   3   6
HETATM    6  N   UNL     1     -10.110  11.518  67.226  1.00  0.00    -0.197 N  
HETATM    7  C   UNL     1      -9.143  10.900  66.317  1.00  0.00    -0.176 C  
HETATM    8  C   UNL     1      -9.933   9.697  65.842  1.00  0.00    -0.281 C  
HETATM    9  N   UNL     1     -10.467   9.224  67.111  1.00  0.00    -0.259 N  
HETATM   10  C   UNL     1      -9.456   8.487  67.898  1.00  0.00    -0.139 C  
HETATM   11  C   UNL     1     -10.909  10.434  67.753  1.00  0.00    -0.297 C  
HETATM   12  O   UNL     1     -11.871  10.503  68.503  1.00  0.00    -0.349 OA 
HETATM   13  C   UNL     1      -8.232   9.383  68.192  1.00  0.00    -0.118 C  
HETATM   14  C   UNL     1      -7.888  10.318  67.019  1.00  0.00    -0.107 C  
BRANCH  10  15
HETATM   15  C   UNL     1      -9.895   7.794  69.209  1.00  0.00    -0.173 C  
HETATM   16  O   UNL     1     -10.597   8.371  70.039  1.00  0.00    -0.227 OA 
HETATM   17  N   UNL     1      -9.390   6.538  69.414  1.00  0.00    -0.143 N  
HETATM   18  H   UNL     1      -8.736   6.154  68.732  1.00  0.00     0.000 HD 
BRANCH  17  19
HETATM   19  C   UNL     1      -9.756   5.728  70.575  1.00  0.00    -0.177 C  
HETATM   20  C   UNL     1      -9.713   4.222  70.288  1.00  0.00    -0.280 C  
HETATM   21  C   UNL     1      -8.283   3.738  70.078  1.00  0.00    -0.056 C  
HETATM   22  N   UNL     1      -7.424   4.072  71.218  1.00  0.00    -0.050 NA 
HETATM   23  H   UNL     1      -6.475   3.724  71.080  1.00  0.00     0.000 HD 
HETATM   24  C   UNL     1      -7.424   5.507  71.510  1.00  0.00    -0.095 C  
HETATM   25  C   UNL     1      -8.832   6.051  71.747  1.00  0.00    -0.138 C  
ENDBRANCH  17  19
ENDBRANCH  10  15
ENDBRANCH   3   6
TORSDOF 3
ENDMDL
MODEL      130
REMARK 921   NORMALIZED FREE ENERGY PREDICTED BY IDOCK:   -3.56 KCAL/MOL
REMARK 922        TOTAL FREE ENERGY PREDICTED BY IDOCK:   -5.04 KCAL/MOL
REMARK 923 INTER-LIGAND FREE ENERGY PREDICTED BY IDOCK:   -4.30 KCAL/MOL
REMARK 924 INTRA-LIGAND FREE ENERGY PREDICTED BY IDOCK:   -0.74 KCAL/MOL
REMARK 927      BINDING AFFINITY PREDICTED BY RF-SCORE:    0.00 PKD
ROOT
HETATM    1  O   UNL     1      -8.854   7.237  70.799  1.00  0.00    -0.148 OA 
HETATM    2  S   UNL     1      -9.903   7.352  72.020  1.00  0.00    -0.163 S  
HETATM    3  O   UNL     1     -11.224   8.047  71.363  1.00  0.00    -0.243 OA 
HETATM    4  O   UNL     1      -9.322   8.249  73.000  1.00  0.00    -0.264 OA 
HETATM    5  O   UNL     1     -10.235   5.991  72.374  1.00  0.00    -0.185 OA 
ENDROOT
BRANCH   3   6
HETATM    6  N   UNL     1     -11.161   9.479  71.141  1.00  0.00    -0.352 N  
HETATM    7  C   UNL     1     -12.415  10.054  71.628  1.00  0.00    -0.418 C  
HETATM    8  C   UNL     1     -13.342   9.725  70.475  1.00  0.00     0.163 C  
HETATM    9  N   UNL     1     -12.502  10.113  69.351  1.00  0.00     0.378 N  
HETATM   10  C   UNL     1     -12.475  11.579  69.160  1.00  0.00     0.206 C  
HETATM   11  C   UNL     1     -11.216   9.567  69.699  1.00  0.00    -0.108 C  
HETATM   12  O   UNL     1     -10.404   9.151  68.887  1.00  0.00    -0.205 OA 
HETATM   13  C   UNL     1     -11.948  12.287  70.427  1.00  0.00    -0.349 C  
HETATM   14  C   UNL     1     -12.412  11.603  71.725  1.00  0.00    -0.044 C  
BRANCH  10  15
HETATM   15  C   UNL     1     -11.744  12.153  67.924  1.00  0.00    -0.336 C  
HETATM   16  O   UNL     1     -12.019  11.783  66.783  1.00  0.00    -0.584 OA 
HETATM   17  N   UNL     1     -10.730  13.033  68.191  1.00  0.00    -0.234 N  
HETATM   18  H   UNL     1     -10.488  13.224  69.163  1.00  0.00     0.000 HD 
BRANCH  17  19
HETATM   19  C   UNL     1      -9.980  13.708  67.132  1.00  0.00    -0.247 C  
HETATM   20  C   UNL     1     -10.650  15.005  66.662  1.00  0.00    -0.301 C  
HETATM   21  C   UNL     1     -10.593  16.080  67.741  1.00  0.00    -0.309 C  
HETATM   22  N   UNL     1      -9.219  16.337  68.180  1.00  0.00    -0.196 NA 
HETATM   23  H   UNL     1      -9.188  17.075  68.884  1.00  0.00     0.000 HD 
HETATM   24  C   UNL     1      -8.553  15.123  68.656  1.00  0.00    -0.172 C  
HETATM   25  C   UNL     1      -8.561  14.009  67.609  1.00  0.00    -0.188 C  
ENDBRANCH  17  19
ENDBRANCH  10  15
ENDBRANCH   3   6
TORSDOF 3
ENDMDL
MODEL      131
REMARK 921   NORMALIZED FREE ENERGY PREDICTED BY IDOCK:   -3.51 KCAL/MOL
REMARK 922        TOTAL FREE ENERGY PREDICTED BY IDOCK:   -5.00 KCAL/MOL
REMARK 923 INTER-LIGAND FREE ENERGY PREDICTED BY IDOCK:   -4.33 KCAL/MOL
REMARK 924 INTRA-LIGAND FREE ENERGY PREDICTED BY IDOCK:   -0.67 KCAL/MOL
REMARK 927      BINDING AFFINITY PREDICTED BY RF-SCORE:    0.00 PKD
ROOT
HETATM    1  O   UNL     1     -10.240  11.450  65.899  1.00  0.00    -0.230 OA 
HETATM    2  S   UNL     1      -9.355  10.549  64.896  1.00  0.00    -0.256 S  
HETATM    3  O   UNL     1      -9.669   9.011  65.338  1.00  0.00    -0.148 OA 
HETATM    4  O   UNL     1      -7.962  10.853  65.164  1.00  0.00    -0.025 OA 
HETATM    5  O   UNL     1      -9.916  10.768  63.583  1.00  0.00    -0.312 OA 
ENDROOT
BRANCH   3   6
HETATM    6  N   UNL     1      -9.002   8.530  66.532  1.00  0.00    -0.151 N  
HETATM    7  C   UNL     1      -7.814   7.789  66.102  1.00  0.00    -0.095 C  
HETATM    8  C   UNL     1      -8.439   6.470  65.691  1.00  0.00    -0.144 C  
HETATM    9  N   UNL     1      -9.332   6.247  66.819  1.00  0.00    -0.138 N  
HETATM   10  C   UNL     1      -8.608   5.750  68.008  1.00  0.00    -0.105 C  
HETATM   11  C   UNL     1      -9.932   7.539  67.024  1.00  0.00    -0.234 C  
HETATM   12  O   UNL     1     -11.073   7.711  67.427  1.00  0.00    -0.124 OA 
HETATM   13  C   UNL     1      -7.517   6.754  68.445  1.00  0.00    -0.095 C  
HETATM   14  C   UNL     1      -6.831   7.438  67.250  1.00  0.00    -0.078 C  
BRANCH  10  15
HETATM   15  C   UNL     1      -9.424   5.325  69.251  1.00  0.00    -0.134 C  
HETATM   16  O   UNL     1      -9.887   4.191  69.362  1.00  0.00    -0.197 OA 
HETATM   17  N   UNL     1      -9.659   6.312  70.171  1.00  0.00    -0.162 N  
HETATM   18  H   UNL     1      -9.330   7.257  69.974  1.00  0.00     0.000 HD 
BRANCH  17  19
HETATM   19  C   UNL     1     -10.364   6.058  71.427  1.00  0.00    -0.220 C  
HETATM   20  C   UNL     1      -9.718   6.762  72.627  1.00  0.00    -0.164 C  
HETATM   21  C   UNL     1      -9.888   8.275  72.538  1.00  0.00    -0.298 C  
HETATM   22  N   UNL     1     -11.297   8.657  72.412  1.00  0.00    -0.339 NA 
HETATM   23  H   UNL     1     -11.403   9.671  72.378  1.00  0.00     0.000 HD 
HETATM   24  C   UNL     1     -11.943   8.018  71.264  1.00  0.00    -0.296 C  
HETATM   25  C   UNL     1     -11.822   6.495  71.303  1.00  0.00    -0.385 C  
ENDBRANCH  17  19
ENDBRANCH  10  15
ENDBRANCH   3   6
TORSDOF 3
ENDMDL
MODEL      132
REMARK 921   NORMALIZED FREE ENERGY PREDICTED BY IDOCK:   -3.49 KCAL/MOL
REMARK 922        TOTAL FREE ENERGY PREDICTED BY IDOCK:   -4.97 KCAL/MOL
REMARK 923 INTER-LIGAND FREE ENERGY PREDICTED BY IDOCK:   -4.31 KCAL/MOL
REMARK 924 INTRA-LIGAND FREE ENERGY PREDICTED BY IDOCK:   -0.66 KCAL/MOL
REMARK 927      BINDING AFFINITY PREDICTED BY RF-SCORE:    0.00 PKD
ROOT
HETATM    1  O   UNL     1      -9.635  15.768  69.980  1.00  0.00    -0.155 OA 
HETATM    2  S   UNL     1     -11.074  15.797  69.251  1.00  0.00    -0.325 S  
HETATM    3  O   UNL     1     -11.291  14.275  68.708  1.00  0.00    -0.246 OA 
HETATM    4  O   UNL     1     -10.963  16.702  68.123  1.00  0.00    -0.352 OA 
HETATM    5  O   UNL     1     -12.034  16.046  70.301  1.00  0.00    -0.328 OA 
ENDROOT
BRANCH   3   6
HETATM    6  N   UNL     1     -10.570  13.906  67.505  1.00  0.00    -0.255 N  
HETATM    7  C   UNL     1     -11.561  13.648  66.460  1.00  0.00    -0.366 C  
HETATM    8  C   UNL     1     -12.016  12.253  66.842  1.00  0.00    -0.142 C  
HETATM    9  N   UNL     1     -10.728  11.624  67.095  1.00  0.00    -0.235 N  
HETATM   10  C   UNL     1     -10.035  11.259  65.841  1.00  0.00    -0.234 C  
HETATM   11  C   UNL     1     -10.021  12.617  67.861  1.00  0.00    -0.228 C  
HETATM   12  O   UNL     1      -9.205  12.359  68.732  1.00  0.00    -0.035 OA 
HETATM   13  C   UNL     1      -9.800  12.508  64.962  1.00  0.00    -0.111 C  
HETATM   14  C   UNL     1     -10.965  13.510  65.034  1.00  0.00    -0.342 C  
BRANCH  10  15
HETATM   15  C   UNL     1      -8.717  10.453  65.928  1.00  0.00    -0.158 C  
HETATM   16  O   UNL     1      -8.668   9.263  65.618  1.00  0.00    -0.146 OA 
HETATM   17  N   UNL     1      -7.643  11.128  66.442  1.00  0.00    -0.234 N  
HETATM   18  H   UNL     1      -7.773  12.084  66.771  1.00  0.00     0.000 HD 
BRANCH  17  19
HETATM   19  C   UNL     1      -6.313  10.525  66.535  1.00  0.00    -0.094 C  
HETATM   20  C   UNL     1      -5.197  11.565  66.691  1.00  0.00    -0.118 C  
HETATM   21  C   UNL     1      -5.264  12.251  68.051  1.00  0.00    -0.068 C  
HETATM   22  N   UNL     1      -5.225  11.282  69.150  1.00  0.00    -0.044 NA 
HETATM   23  H   UNL     1      -5.246  11.750  70.056  1.00  0.00     0.000 HD 
HETATM   24  C   UNL     1      -6.290  10.283  69.046  1.00  0.00    -0.044 C  
HETATM   25  C   UNL     1      -6.267   9.547  67.706  1.00  0.00    -0.053 C  
ENDBRANCH  17  19
ENDBRANCH  10  15
ENDBRANCH   3   6
TORSDOF 3
ENDMDL
MODEL      133
REMARK 921   NORMALIZED FREE ENERGY PREDICTED BY IDOCK:   -3.49 KCAL/MOL
REMARK 922        TOTAL FREE ENERGY PREDICTED BY IDOCK:   -4.97 KCAL/MOL
REMARK 923 INTER-LIGAND FREE ENERGY PREDICTED BY IDOCK:   -4.27 KCAL/MOL
REMARK 924 INTRA-LIGAND FREE ENERGY PREDICTED BY IDOCK:   -0.69 KCAL/MOL
REMARK 927      BINDING AFFINITY PREDICTED BY RF-SCORE:    0.00 PKD
ROOT
HETATM    1  O   UNL     1      -5.933   8.476  71.704  1.00  0.00    -0.039 OA 
HETATM    2  S   UNL     1      -6.502   7.348  72.708  1.00  0.00    -0.060 S  
HETATM    3  O   UNL     1      -7.385   6.359  71.758  1.00  0.00    -0.085 OA 
HETATM    4  O   UNL     1      -7.375   8.018  73.653  1.00  0.00    -0.127 OA 
HETATM    5  O   UNL     1      -5.343   6.619  73.168  1.00  0.00    -0.036 OA 
ENDROOT
BRANCH   3   6
HETATM    6  N   UNL     1      -8.700   6.834  71.373  1.00  0.00    -0.131 N  
HETATM    7  C   UNL     1      -9.618   5.696  71.452  1.00  0.00    -0.152 C  
HETATM    8  C   UNL     1      -9.289   4.980  70.156  1.00  0.00    -0.157 C  
HETATM    9  N   UNL     1      -9.266   6.110  69.238  1.00  0.00    -0.132 N  
HETATM   10  C   UNL     1     -10.627   6.552  68.869  1.00  0.00    -0.241 C  
HETATM   11  C   UNL     1      -8.527   7.109  69.965  1.00  0.00    -0.140 C  
HETATM   12  O   UNL     1      -7.798   7.940  69.443  1.00  0.00    -0.109 OA 
HETATM   13  C   UNL     1     -11.428   6.965  70.125  1.00  0.00    -0.354 C  
HETATM   14  C   UNL     1     -11.118   6.077  71.342  1.00  0.00    -0.336 C  
BRANCH  10  15
HETATM   15  C   UNL     1     -10.785   7.651  67.792  1.00  0.00    -0.145 C  
HETATM   16  O   UNL     1     -10.849   7.374  66.594  1.00  0.00    -0.198 OA 
HETATM   17  N   UNL     1     -10.771   8.940  68.253  1.00  0.00    -0.426 N  
HETATM   18  H   UNL     1     -10.618   9.105  69.247  1.00  0.00     0.000 HD 
BRANCH  17  19
HETATM   19  C   UNL     1     -10.967  10.089  67.369  1.00  0.00    -0.191 C  
HETATM   20  C   UNL     1     -11.818  11.194  68.008  1.00  0.00    -0.203 C  
HETATM   21  C   UNL     1     -11.073  11.874  69.152  1.00  0.00    -0.228 C  
HETATM   22  N   UNL     1      -9.778  12.404  68.717  1.00  0.00    -0.416 NA 
HETATM   23  H   UNL     1      -9.298  12.879  69.482  1.00  0.00     0.000 HD 
HETATM   24  C   UNL     1      -8.929  11.372  68.118  1.00  0.00    -0.169 C  
HETATM   25  C   UNL     1      -9.615  10.661  66.952  1.00  0.00    -0.200 C  
ENDBRANCH  17  19
ENDBRANCH  10  15
ENDBRANCH   3   6
TORSDOF 3
ENDMDL
MODEL      134
REMARK 921   NORMALIZED FREE ENERGY PREDICTED BY IDOCK:   -3.48 KCAL/MOL
REMARK 922        TOTAL FREE ENERGY PREDICTED BY IDOCK:   -4.96 KCAL/MOL
REMARK 923 INTER-LIGAND FREE ENERGY PREDICTED BY IDOCK:   -4.13 KCAL/MOL
REMARK 924 INTRA-LIGAND FREE ENERGY PREDICTED BY IDOCK:   -0.83 KCAL/MOL
REMARK 927      BINDING AFFINITY PREDICTED BY RF-SCORE:    0.00 PKD
ROOT
HETATM    1  O   UNL     1      -6.297  12.491  69.621  1.00  0.00    -0.126 OA 
HETATM    2  S   UNL     1      -7.121  13.401  68.574  1.00  0.00    -0.115 S  
HETATM    3  O   UNL     1      -8.543  12.626  68.385  1.00  0.00    -0.174 OA 
HETATM    4  O   UNL     1      -6.390  13.382  67.322  1.00  0.00    -0.291 OA 
HETATM    5  O   UNL     1      -7.372  14.648  69.260  1.00  0.00    -0.146 OA 
ENDROOT
BRANCH   3   6
HETATM    6  N   UNL     1      -8.536  11.457  67.526  1.00  0.00    -0.133 N  
HETATM    7  C   UNL     1      -9.508  11.691  66.458  1.00  0.00    -0.206 C  
HETATM    8  C   UNL     1     -10.803  11.383  67.183  1.00  0.00    -0.268 C  
HETATM    9  N   UNL     1     -10.429  10.152  67.864  1.00  0.00    -0.205 N  
HETATM   10  C   UNL     1     -10.443   8.989  66.951  1.00  0.00    -0.223 C  
HETATM   11  C   UNL     1      -9.118  10.446  68.380  1.00  0.00    -0.147 C  
HETATM   12  O   UNL     1      -8.674   9.994  69.424  1.00  0.00    -0.160 OA 
HETATM   13  C   UNL     1      -9.468   9.205  65.772  1.00  0.00    -0.322 C  
HETATM   14  C   UNL     1      -9.435  10.667  65.294  1.00  0.00    -0.270 C  
BRANCH  10  15
HETATM   15  C   UNL     1     -10.209   7.578  67.542  1.00  0.00    -0.223 C  
HETATM   16  O   UNL     1     -10.770   7.210  68.573  1.00  0.00    -0.201 OA 
HETATM   17  N   UNL     1      -9.286   6.808  66.887  1.00  0.00    -0.138 N  
HETATM   18  H   UNL     1      -8.784   7.207  66.094  1.00  0.00     0.000 HD 
BRANCH  17  19
HETATM   19  C   UNL     1      -8.993   5.431  67.285  1.00  0.00    -0.111 C  
HETATM   20  C   UNL     1      -9.851   4.400  66.542  1.00  0.00    -0.247 C  
HETATM   21  C   UNL     1      -9.475   4.326  65.066  1.00  0.00    -0.171 C  
HETATM   22  N   UNL     1      -8.049   4.040  64.883  1.00  0.00    -0.093 NA 
HETATM   23  H   UNL     1      -7.811   3.969  63.894  1.00  0.00     0.000 HD 
HETATM   24  C   UNL     1      -7.196   5.017  65.564  1.00  0.00    -0.068 C  
HETATM   25  C   UNL     1      -7.514   5.126  67.055  1.00  0.00    -0.087 C  
ENDBRANCH  17  19
ENDBRANCH  10  15
ENDBRANCH   3   6
TORSDOF 3
ENDMDL
MODEL      135
REMARK 921   NORMALIZED FREE ENERGY PREDICTED BY IDOCK:   -3.48 KCAL/MOL
REMARK 922        TOTAL FREE ENERGY PREDICTED BY IDOCK:   -4.95 KCAL/MOL
REMARK 923 INTER-LIGAND FREE ENERGY PREDICTED BY IDOCK:   -4.33 KCAL/MOL
REMARK 924 INTRA-LIGAND FREE ENERGY PREDICTED BY IDOCK:   -0.63 KCAL/MOL
REMARK 927      BINDING AFFINITY PREDICTED BY RF-SCORE:    0.00 PKD
ROOT
HETATM    1  O   UNL     1     -12.303  12.790  66.916  1.00  0.00    -0.412 OA 
HETATM    2  S   UNL     1     -10.935  13.417  66.334  1.00  0.00    -0.292 S  
HETATM    3  O   UNL     1      -9.988  12.126  66.028  1.00  0.00    -0.227 OA 
HETATM    4  O   UNL     1     -10.343  14.211  67.393  1.00  0.00    -0.253 OA 
HETATM    5  O   UNL     1     -11.295  14.024  65.073  1.00  0.00    -0.318 OA 
ENDROOT
BRANCH   3   6
HETATM    6  N   UNL     1      -9.343  11.509  67.172  1.00  0.00    -0.170 N  
HETATM    7  C   UNL     1      -8.000  12.080  67.280  1.00  0.00    -0.174 C  
HETATM    8  C   UNL     1      -7.273  11.293  66.207  1.00  0.00     0.007 C  
HETATM    9  N   UNL     1      -7.752   9.951  66.504  1.00  0.00    -0.105 N  
HETATM   10  C   UNL     1      -7.062   9.362  67.670  1.00  0.00    -0.082 C  
HETATM   11  C   UNL     1      -9.162  10.147  66.723  1.00  0.00    -0.151 C  
HETATM   12  O   UNL     1     -10.021   9.323  66.445  1.00  0.00    -0.255 OA 
HETATM   13  C   UNL     1      -7.265  10.238  68.927  1.00  0.00    -0.086 C  
HETATM   14  C   UNL     1      -7.268  11.742  68.605  1.00  0.00    -0.112 C  
BRANCH  10  15
HETATM   15  C   UNL     1      -7.349   7.886  68.036  1.00  0.00    -0.096 C  
HETATM   16  O   UNL     1      -6.571   6.984  67.732  1.00  0.00    -0.048 OA 
HETATM   17  N   UNL     1      -8.553   7.651  68.646  1.00  0.00    -0.129 N  
HETATM   18  H   UNL     1      -9.196   8.430  68.783  1.00  0.00     0.000 HD 
BRANCH  17  19
HETATM   19  C   UNL     1      -8.948   6.320  69.107  1.00  0.00    -0.127 C  
HETATM   20  C   UNL     1      -9.584   6.337  70.502  1.00  0.00    -0.183 C  
HETATM   21  C   UNL     1     -10.948   7.018  70.481  1.00  0.00    -0.265 C  
HETATM   22  N   UNL     1     -11.851   6.394  69.509  1.00  0.00    -0.498 NA 
HETATM   23  H   UNL     1     -12.768   6.840  69.519  1.00  0.00     0.000 HD 
HETATM   24  C   UNL     1     -11.285   6.377  68.159  1.00  0.00    -0.167 C  
HETATM   25  C   UNL     1      -9.920   5.692  68.110  1.00  0.00    -0.186 C  
ENDBRANCH  17  19
ENDBRANCH  10  15
ENDBRANCH   3   6
TORSDOF 3
ENDMDL
MODEL      136
REMARK 921   NORMALIZED FREE ENERGY PREDICTED BY IDOCK:   -3.46 KCAL/MOL
REMARK 922        TOTAL FREE ENERGY PREDICTED BY IDOCK:   -4.93 KCAL/MOL
REMARK 923 INTER-LIGAND FREE ENERGY PREDICTED BY IDOCK:   -4.38 KCAL/MOL
REMARK 924 INTRA-LIGAND FREE ENERGY PREDICTED BY IDOCK:   -0.55 KCAL/MOL
REMARK 927      BINDING AFFINITY PREDICTED BY RF-SCORE:    0.00 PKD
ROOT
HETATM    1  O   UNL     1     -11.755  11.542  63.645  1.00  0.00    -0.376 OA 
HETATM    2  S   UNL     1     -11.504  12.559  64.872  1.00  0.00    -0.339 S  
HETATM    3  O   UNL     1     -10.173  11.984  65.618  1.00  0.00    -0.237 OA 
HETATM    4  O   UNL     1     -12.644  12.445  65.763  1.00  0.00    -0.532 OA 
HETATM    5  O   UNL     1     -11.172  13.826  64.263  1.00  0.00    -0.373 OA 
ENDROOT
BRANCH   3   6
HETATM    6  N   UNL     1     -10.357  10.828  66.474  1.00  0.00    -0.238 N  
HETATM    7  C   UNL     1      -9.929  11.207  67.821  1.00  0.00    -0.175 C  
HETATM    8  C   UNL     1      -8.424  11.099  67.680  1.00  0.00    -0.122 C  
HETATM    9  N   UNL     1      -8.323   9.825  66.983  1.00  0.00    -0.117 N  
HETATM   10  C   UNL     1      -8.509   8.678  67.897  1.00  0.00    -0.129 C  
HETATM   11  C   UNL     1      -9.349   9.917  65.978  1.00  0.00    -0.188 C  
HETATM   12  O   UNL     1      -9.277   9.402  64.873  1.00  0.00    -0.231 OA 
HETATM   13  C   UNL     1      -9.890   8.745  68.586  1.00  0.00    -0.180 C  
HETATM   14  C   UNL     1     -10.313  10.185  68.924  1.00  0.00    -0.223 C  
BRANCH  10  15
HETATM   15  C   UNL     1      -8.292   7.248  67.348  1.00  0.00    -0.119 C  
HETATM   16  O   UNL     1      -7.702   7.048  66.287  1.00  0.00    -0.089 OA 
HETATM   17  N   UNL     1      -8.864   6.240  68.077  1.00  0.00    -0.114 N  
HETATM   18  H   UNL     1      -9.422   6.481  68.895  1.00  0.00     0.000 HD 
BRANCH  17  19
HETATM   19  C   UNL     1      -8.702   4.830  67.724  1.00  0.00    -0.103 C  
HETATM   20  C   UNL     1      -7.299   4.294  68.036  1.00  0.00    -0.064 C  
HETATM   21  C   UNL     1      -7.060   4.211  69.540  1.00  0.00    -0.049 C  
HETATM   22  N   UNL     1      -8.083   3.402  70.208  1.00  0.00    -0.046 NA 
HETATM   23  H   UNL     1      -7.902   3.332  71.209  1.00  0.00     0.000 HD 
HETATM   24  C   UNL     1      -9.437   3.896  69.949  1.00  0.00    -0.197 C  
HETATM   25  C   UNL     1      -9.745   3.988  68.454  1.00  0.00    -0.135 C  
ENDBRANCH  17  19
ENDBRANCH  10  15
ENDBRANCH   3   6
TORSDOF 3
ENDMDL
MODEL      137
REMARK 921   NORMALIZED FREE ENERGY PREDICTED BY IDOCK:   -3.44 KCAL/MOL
REMARK 922        TOTAL FREE ENERGY PREDICTED BY IDOCK:   -4.91 KCAL/MOL
REMARK 923 INTER-LIGAND FREE ENERGY PREDICTED BY IDOCK:   -4.04 KCAL/MOL
REMARK 924 INTRA-LIGAND FREE ENERGY PREDICTED BY IDOCK:   -0.87 KCAL/MOL
REMARK 927      BINDING AFFINITY PREDICTED BY RF-SCORE:    0.00 PKD
ROOT
HETATM    1  O   UNL     1      -8.093   4.755  64.700  1.00  0.00    -0.098 OA 
HETATM    2  S   UNL     1      -7.274   5.872  63.872  1.00  0.00    -0.061 S  
HETATM    3  O   UNL     1      -7.237   7.170  64.858  1.00  0.00    -0.064 OA 
HETATM    4  O   UNL     1      -8.053   6.186  62.690  1.00  0.00    -0.098 OA 
HETATM    5  O   UNL     1      -5.930   5.356  63.752  1.00  0.00    -0.020 OA 
ENDROOT
BRANCH   3   6
HETATM    6  N   UNL     1      -8.450   7.962  64.934  1.00  0.00    -0.086 N  
HETATM    7  C   UNL     1      -8.121   9.313  64.478  1.00  0.00    -0.139 C  
HETATM    8  C   UNL     1      -7.453   9.874  65.719  1.00  0.00    -0.110 C  
HETATM    9  N   UNL     1      -8.389   9.426  66.739  1.00  0.00    -0.122 N  
HETATM   10  C   UNL     1      -9.604  10.266  66.784  1.00  0.00    -0.172 C  
HETATM   11  C   UNL     1      -8.660   8.063  66.361  1.00  0.00    -0.145 C  
HETATM   12  O   UNL     1      -8.897   7.164  67.154  1.00  0.00    -0.119 OA 
HETATM   13  C   UNL     1     -10.331  10.252  65.420  1.00  0.00    -0.233 C  
HETATM   14  C   UNL     1      -9.355  10.221  64.230  1.00  0.00    -0.328 C  
BRANCH  10  15
HETATM   15  C   UNL     1     -10.640  10.016  67.905  1.00  0.00    -0.250 C  
HETATM   16  O   UNL     1     -11.779  10.477  67.844  1.00  0.00    -0.453 OA 
HETATM   17  N   UNL     1     -10.181   9.322  68.992  1.00  0.00    -0.200 N  
HETATM   18  H   UNL     1      -9.198   9.051  69.024  1.00  0.00     0.000 HD 
BRANCH  17  19
HETATM   19  C   UNL     1     -11.049   8.954  70.109  1.00  0.00    -0.201 C  
HETATM   20  C   UNL     1     -11.340   7.449  70.168  1.00  0.00    -0.200 C  
HETATM   21  C   UNL     1     -10.092   6.658  70.543  1.00  0.00    -0.187 C  
HETATM   22  N   UNL     1      -9.514   7.123  71.807  1.00  0.00    -0.151 NA 
HETATM   23  H   UNL     1      -8.694   6.573  72.062  1.00  0.00     0.000 HD 
HETATM   24  C   UNL     1      -9.204   8.554  71.781  1.00  0.00    -0.246 C  
HETATM   25  C   UNL     1     -10.423   9.405  71.426  1.00  0.00    -0.358 C  
ENDBRANCH  17  19
ENDBRANCH  10  15
ENDBRANCH   3   6
TORSDOF 3
ENDMDL
MODEL      138
REMARK 921   NORMALIZED FREE ENERGY PREDICTED BY IDOCK:   -3.44 KCAL/MOL
REMARK 922        TOTAL FREE ENERGY PREDICTED BY IDOCK:   -4.91 KCAL/MOL
REMARK 923 INTER-LIGAND FREE ENERGY PREDICTED BY IDOCK:   -4.61 KCAL/MOL
REMARK 924 INTRA-LIGAND FREE ENERGY PREDICTED BY IDOCK:   -0.30 KCAL/MOL
REMARK 927      BINDING AFFINITY PREDICTED BY RF-SCORE:    0.00 PKD
ROOT
HETATM    1  O   UNL     1     -10.597  10.789  69.496  1.00  0.00    -0.223 OA 
HETATM    2  S   UNL     1     -12.019  11.542  69.615  1.00  0.00    -0.331 S  
HETATM    3  O   UNL     1     -11.980  12.683  68.451  1.00  0.00    -0.317 OA 
HETATM    4  O   UNL     1     -12.058  12.180  70.917  1.00  0.00    -0.303 OA 
HETATM    5  O   UNL     1     -13.010  10.556  69.250  1.00  0.00     0.088 OA 
ENDROOT
BRANCH   3   6
HETATM    6  N   UNL     1     -11.204  13.875  68.737  1.00  0.00    -0.258 N  
HETATM    7  C   UNL     1     -11.906  15.010  68.135  1.00  0.00    -0.260 C  
HETATM    8  C   UNL     1     -11.492  14.859  66.684  1.00  0.00    -0.296 C  
HETATM    9  N   UNL     1     -10.066  14.612  66.849  1.00  0.00    -0.252 N  
HETATM   10  C   UNL     1      -9.318  15.856  67.130  1.00  0.00    -0.212 C  
HETATM   11  C   UNL     1     -10.019  13.668  67.935  1.00  0.00    -0.244 C  
HETATM   12  O   UNL     1      -9.178  12.789  68.045  1.00  0.00    -0.196 OA 
HETATM   13  C   UNL     1      -9.844  16.532  68.416  1.00  0.00    -0.237 C  
HETATM   14  C   UNL     1     -11.369  16.397  68.574  1.00  0.00    -0.289 C  
BRANCH  10  15
HETATM   15  C   UNL     1      -7.773  15.795  67.192  1.00  0.00    -0.219 C  
HETATM   16  O   UNL     1      -7.072  16.492  66.460  1.00  0.00    -0.218 OA 
HETATM   17  N   UNL     1      -7.251  14.868  68.053  1.00  0.00    -0.120 N  
HETATM   18  H   UNL     1      -7.887  14.253  68.560  1.00  0.00     0.000 HD 
BRANCH  17  19
HETATM   19  C   UNL     1      -5.811  14.726  68.270  1.00  0.00    -0.115 C  
HETATM   20  C   UNL     1      -5.323  15.455  69.527  1.00  0.00    -0.099 C  
HETATM   21  C   UNL     1      -5.841  14.783  70.794  1.00  0.00    -0.131 C  
HETATM   22  N   UNL     1      -5.475  13.365  70.844  1.00  0.00    -0.170 NA 
HETATM   23  H   UNL     1      -5.804  12.929  71.706  1.00  0.00     0.000 HD 
HETATM   24  C   UNL     1      -5.943  12.630  69.667  1.00  0.00    -0.122 C  
HETATM   25  C   UNL     1      -5.442  13.247  68.361  1.00  0.00    -0.086 C  
ENDBRANCH  17  19
ENDBRANCH  10  15
ENDBRANCH   3   6
TORSDOF 3
ENDMDL
MODEL      139
REMARK 921   NORMALIZED FREE ENERGY PREDICTED BY IDOCK:   -3.42 KCAL/MOL
REMARK 922        TOTAL FREE ENERGY PREDICTED BY IDOCK:   -4.88 KCAL/MOL
REMARK 923 INTER-LIGAND FREE ENERGY PREDICTED BY IDOCK:   -4.29 KCAL/MOL
REMARK 924 INTRA-LIGAND FREE ENERGY PREDICTED BY IDOCK:   -0.59 KCAL/MOL
REMARK 927      BINDING AFFINITY PREDICTED BY RF-SCORE:    0.00 PKD
ROOT
HETATM    1  O   UNL     1      -9.832   5.638  65.833  1.00  0.00    -0.077 OA 
HETATM    2  S   UNL     1      -9.197   4.171  66.044  1.00  0.00    -0.161 S  
HETATM    3  O   UNL     1      -9.630   3.748  67.559  1.00  0.00    -0.195 OA 
HETATM    4  O   UNL     1      -7.755   4.314  65.976  1.00  0.00    -0.088 OA 
HETATM    5  O   UNL     1      -9.895   3.310  65.117  1.00  0.00    -0.111 OA 
ENDROOT
BRANCH   3   6
HETATM    6  N   UNL     1      -8.873   4.349  68.641  1.00  0.00    -0.099 N  
HETATM    7  C   UNL     1      -8.170   3.270  69.336  1.00  0.00    -0.055 C  
HETATM    8  C   UNL     1      -9.293   2.703  70.183  1.00  0.00    -0.123 C  
HETATM    9  N   UNL     1      -9.873   3.935  70.698  1.00  0.00    -0.174 N  
HETATM   10  C   UNL     1      -9.072   4.504  71.803  1.00  0.00    -0.127 C  
HETATM   11  C   UNL     1      -9.918   4.786  69.539  1.00  0.00    -0.216 C  
HETATM   12  O   UNL     1     -10.781   5.629  69.338  1.00  0.00    -0.297 OA 
HETATM   13  C   UNL     1      -7.630   4.805  71.336  1.00  0.00    -0.079 C  
HETATM   14  C   UNL     1      -7.097   3.754  70.347  1.00  0.00    -0.038 C  
BRANCH  10  15
HETATM   15  C   UNL     1      -9.621   5.736  72.560  1.00  0.00    -0.154 C  
HETATM   16  O   UNL     1      -9.786   5.722  73.779  1.00  0.00    -0.155 OA 
HETATM   17  N   UNL     1      -9.978   6.802  71.778  1.00  0.00    -0.175 N  
HETATM   18  H   UNL     1      -9.907   6.714  70.764  1.00  0.00     0.000 HD 
BRANCH  17  19
HETATM   19  C   UNL     1     -10.459   8.061  72.344  1.00  0.00    -0.301 C  
HETATM   20  C   UNL     1     -10.184   9.267  71.436  1.00  0.00    -0.371 C  
HETATM   21  C   UNL     1     -11.034   9.213  70.171  1.00  0.00    -0.239 C  
HETATM   22  N   UNL     1     -12.462   9.115  70.482  1.00  0.00    -0.466 NA 
HETATM   23  H   UNL     1     -13.025   9.105  69.631  1.00  0.00     0.000 HD 
HETATM   24  C   UNL     1     -12.767   7.963  71.332  1.00  0.00    -0.292 C  
HETATM   25  C   UNL     1     -11.956   7.967  72.628  1.00  0.00    -0.299 C  
ENDBRANCH  17  19
ENDBRANCH  10  15
ENDBRANCH   3   6
TORSDOF 3
ENDMDL
MODEL      140
REMARK 921   NORMALIZED FREE ENERGY PREDICTED BY IDOCK:   -3.37 KCAL/MOL
REMARK 922        TOTAL FREE ENERGY PREDICTED BY IDOCK:   -4.82 KCAL/MOL
REMARK 923 INTER-LIGAND FREE ENERGY PREDICTED BY IDOCK:   -4.01 KCAL/MOL
REMARK 924 INTRA-LIGAND FREE ENERGY PREDICTED BY IDOCK:   -0.81 KCAL/MOL
REMARK 927      BINDING AFFINITY PREDICTED BY RF-SCORE:    0.00 PKD
ROOT
HETATM    1  O   UNL     1      -5.733   8.994  71.114  1.00  0.00    -0.037 OA 
HETATM    2  S   UNL     1      -6.754   9.894  70.247  1.00  0.00    -0.139 S  
HETATM    3  O   UNL     1      -8.216   9.618  70.915  1.00  0.00    -0.290 OA 
HETATM    4  O   UNL     1      -6.736   9.377  68.892  1.00  0.00    -0.051 OA 
HETATM    5  O   UNL     1      -6.384  11.265  70.516  1.00  0.00    -0.306 OA 
ENDROOT
BRANCH   3   6
HETATM    6  N   UNL     1      -8.860   8.365  70.570  1.00  0.00    -0.142 N  
HETATM    7  C   UNL     1     -10.225   8.676  70.144  1.00  0.00    -0.192 C  
HETATM    8  C   UNL     1     -10.901   8.873  71.487  1.00  0.00    -0.326 C  
HETATM    9  N   UNL     1     -10.379   7.721  72.208  1.00  0.00    -0.220 N  
HETATM   10  C   UNL     1     -11.070   6.471  71.830  1.00  0.00    -0.257 C  
HETATM   11  C   UNL     1      -8.982   7.720  71.858  1.00  0.00    -0.128 C  
HETATM   12  O   UNL     1      -8.088   7.346  72.602  1.00  0.00    -0.099 OA 
HETATM   13  C   UNL     1     -10.925   6.201  70.315  1.00  0.00    -0.417 C  
HETATM   14  C   UNL     1     -10.971   7.491  69.478  1.00  0.00    -0.127 C  
BRANCH  10  15
HETATM   15  C   UNL     1     -10.736   5.173  72.603  1.00  0.00    -0.237 C  
HETATM   16  O   UNL     1     -11.398   4.816  73.577  1.00  0.00    -0.332 OA 
HETATM   17  N   UNL     1      -9.620   4.502  72.181  1.00  0.00    -0.147 N  
HETATM   18  H   UNL     1      -9.059   4.903  71.430  1.00  0.00     0.000 HD 
BRANCH  17  19
HETATM   19  C   UNL     1      -9.203   3.230  72.770  1.00  0.00    -0.092 C  
HETATM   20  C   UNL     1      -9.924   2.024  72.157  1.00  0.00    -0.225 C  
HETATM   21  C   UNL     1      -9.489   1.794  70.713  1.00  0.00    -0.118 C  
HETATM   22  N   UNL     1      -8.036   1.638  70.604  1.00  0.00    -0.038 NA 
HETATM   23  H   UNL     1      -7.756   1.461  69.639  1.00  0.00     0.000 HD 
HETATM   24  C   UNL     1      -7.312   2.782  71.162  1.00  0.00    -0.033 C  
HETATM   25  C   UNL     1      -7.694   3.056  72.617  1.00  0.00    -0.058 C  
ENDBRANCH  17  19
ENDBRANCH  10  15
ENDBRANCH   3   6
TORSDOF 3
ENDMDL
MODEL      141
REMARK 921   NORMALIZED FREE ENERGY PREDICTED BY IDOCK:   -3.36 KCAL/MOL
REMARK 922        TOTAL FREE ENERGY PREDICTED BY IDOCK:   -4.81 KCAL/MOL
REMARK 923 INTER-LIGAND FREE ENERGY PREDICTED BY IDOCK:   -3.99 KCAL/MOL
REMARK 924 INTRA-LIGAND FREE ENERGY PREDICTED BY IDOCK:   -0.82 KCAL/MOL
REMARK 927      BINDING AFFINITY PREDICTED BY RF-SCORE:    0.00 PKD
ROOT
HETATM    1  O   UNL     1     -12.003  12.138  69.325  1.00  0.00    -0.300 OA 
HETATM    2  S   UNL     1     -12.531  11.150  70.486  1.00  0.00    -0.309 S  
HETATM    3  O   UNL     1     -11.214  10.302  70.938  1.00  0.00    -0.336 OA 
HETATM    4  O   UNL     1     -13.497  10.254  69.880  1.00  0.00     0.170 OA 
HETATM    5  O   UNL     1     -12.914  12.011  71.582  1.00  0.00    -0.408 OA 
ENDROOT
BRANCH   3   6
HETATM    6  N   UNL     1     -10.803   9.224  70.059  1.00  0.00    -0.233 N  
HETATM    7  C   UNL     1     -10.930   7.974  70.810  1.00  0.00    -0.248 C  
HETATM    8  C   UNL     1      -9.668   8.022  71.650  1.00  0.00    -0.171 C  
HETATM    9  N   UNL     1      -8.701   8.419  70.638  1.00  0.00    -0.138 N  
HETATM   10  C   UNL     1      -8.308   7.287  69.773  1.00  0.00    -0.135 C  
HETATM   11  C   UNL     1      -9.385   9.464  69.922  1.00  0.00    -0.214 C  
HETATM   12  O   UNL     1      -8.829  10.427  69.414  1.00  0.00    -0.167 OA 
HETATM   13  C   UNL     1      -9.541   6.691  69.057  1.00  0.00    -0.133 C  
HETATM   14  C   UNL     1     -10.798   6.693  69.944  1.00  0.00    -0.329 C  
BRANCH  10  15
HETATM   15  C   UNL     1      -7.181   7.501  68.734  1.00  0.00    -0.082 C  
HETATM   16  O   UNL     1      -5.994   7.417  69.046  1.00  0.00    -0.028 OA 
HETATM   17  N   UNL     1      -7.593   7.863  67.480  1.00  0.00    -0.103 N  
HETATM   18  H   UNL     1      -8.588   8.010  67.311  1.00  0.00     0.000 HD 
BRANCH  17  19
HETATM   19  C   UNL     1      -6.656   8.045  66.372  1.00  0.00    -0.051 C  
HETATM   20  C   UNL     1      -6.581   6.825  65.446  1.00  0.00    -0.050 C  
HETATM   21  C   UNL     1      -7.876   6.646  64.660  1.00  0.00    -0.116 C  
HETATM   22  N   UNL     1      -8.221   7.851  63.901  1.00  0.00    -0.351 NA 
HETATM   23  H   UNL     1      -9.074   7.714  63.359  1.00  0.00     0.000 HD 
HETATM   24  C   UNL     1      -8.320   9.035  64.756  1.00  0.00    -0.173 C  
HETATM   25  C   UNL     1      -7.044   9.279  65.560  1.00  0.00    -0.086 C  
ENDBRANCH  17  19
ENDBRANCH  10  15
ENDBRANCH   3   6
TORSDOF 3
ENDMDL
MODEL      142
REMARK 921   NORMALIZED FREE ENERGY PREDICTED BY IDOCK:   -3.35 KCAL/MOL
REMARK 922        TOTAL FREE ENERGY PREDICTED BY IDOCK:   -4.80 KCAL/MOL
REMARK 923 INTER-LIGAND FREE ENERGY PREDICTED BY IDOCK:   -4.63 KCAL/MOL
REMARK 924 INTRA-LIGAND FREE ENERGY PREDICTED BY IDOCK:   -0.17 KCAL/MOL
REMARK 927      BINDING AFFINITY PREDICTED BY RF-SCORE:    0.00 PKD
ROOT
HETATM    1  O   UNL     1      -7.049   3.177  67.161  1.00  0.00    -0.056 OA 
HETATM    2  S   UNL     1      -8.561   3.344  66.623  1.00  0.00    -0.122 S  
HETATM    3  O   UNL     1      -8.729   4.945  66.360  1.00  0.00    -0.113 OA 
HETATM    4  O   UNL     1      -9.446   2.936  67.697  1.00  0.00    -0.205 OA 
HETATM    5  O   UNL     1      -8.594   2.669  65.346  1.00  0.00    -0.097 OA 
ENDROOT
BRANCH   3   6
HETATM    6  N   UNL     1      -8.940   5.776  67.530  1.00  0.00    -0.109 N  
HETATM    7  C   UNL     1     -10.335   5.611  67.940  1.00  0.00    -0.205 C  
HETATM    8  C   UNL     1     -11.031   6.514  66.940  1.00  0.00    -0.338 C  
HETATM    9  N   UNL     1     -10.162   7.681  67.001  1.00  0.00    -0.272 N  
HETATM   10  C   UNL     1     -10.419   8.500  68.205  1.00  0.00    -0.182 C  
HETATM   11  C   UNL     1      -8.841   7.109  66.980  1.00  0.00    -0.124 C  
HETATM   12  O   UNL     1      -7.870   7.643  66.465  1.00  0.00    -0.100 OA 
HETATM   13  C   UNL     1     -10.204   7.668  69.489  1.00  0.00    -0.209 C  
HETATM   14  C   UNL     1     -10.666   6.208  69.333  1.00  0.00    -0.385 C  
BRANCH  10  15
HETATM   15  C   UNL     1      -9.682   9.852  68.355  1.00  0.00    -0.149 C  
HETATM   16  O   UNL     1      -8.673   9.962  69.049  1.00  0.00    -0.133 OA 
HETATM   17  N   UNL     1     -10.271  10.919  67.731  1.00  0.00    -0.176 N  
HETATM   18  H   UNL     1     -11.160  10.780  67.252  1.00  0.00     0.000 HD 
BRANCH  17  19
HETATM   19  C   UNL     1      -9.669  12.252  67.729  1.00  0.00    -0.199 C  
HETATM   20  C   UNL     1      -9.505  12.830  66.318  1.00  0.00    -0.198 C  
HETATM   21  C   UNL     1     -10.856  13.157  65.692  1.00  0.00    -0.278 C  
HETATM   22  N   UNL     1     -11.638  14.066  66.535  1.00  0.00    -0.357 NA 
HETATM   23  H   UNL     1     -12.530  14.298  66.097  1.00  0.00     0.000 HD 
HETATM   24  C   UNL     1     -11.834  13.538  67.887  1.00  0.00    -0.362 C  
HETATM   25  C   UNL     1     -10.511  13.204  68.576  1.00  0.00    -0.262 C  
ENDBRANCH  17  19
ENDBRANCH  10  15
ENDBRANCH   3   6
TORSDOF 3
ENDMDL
MODEL      143
REMARK 921   NORMALIZED FREE ENERGY PREDICTED BY IDOCK:   -3.34 KCAL/MOL
REMARK 922        TOTAL FREE ENERGY PREDICTED BY IDOCK:   -4.79 KCAL/MOL
REMARK 923 INTER-LIGAND FREE ENERGY PREDICTED BY IDOCK:   -3.94 KCAL/MOL
REMARK 924 INTRA-LIGAND FREE ENERGY PREDICTED BY IDOCK:   -0.85 KCAL/MOL
REMARK 927      BINDING AFFINITY PREDICTED BY RF-SCORE:    0.00 PKD
ROOT
HETATM    1  O   UNL     1      -9.948   4.564  66.960  1.00  0.00    -0.204 OA 
HETATM    2  S   UNL     1      -8.653   4.069  66.135  1.00  0.00    -0.112 S  
HETATM    3  O   UNL     1      -7.795   5.428  65.860  1.00  0.00    -0.100 OA 
HETATM    4  O   UNL     1      -9.128   3.533  64.874  1.00  0.00    -0.125 OA 
HETATM    5  O   UNL     1      -7.905   3.238  67.051  1.00  0.00    -0.078 OA 
ENDROOT
BRANCH   3   6
HETATM    6  N   UNL     1      -8.274   6.293  64.799  1.00  0.00    -0.128 N  
HETATM    7  C   UNL     1      -7.176   6.468  63.847  1.00  0.00    -0.063 C  
HETATM    8  C   UNL     1      -6.338   7.504  64.571  1.00  0.00    -0.041 C  
HETATM    9  N   UNL     1      -7.381   8.431  64.988  1.00  0.00    -0.083 N  
HETATM   10  C   UNL     1      -7.830   9.295  63.876  1.00  0.00    -0.130 C  
HETATM   11  C   UNL     1      -8.417   7.561  65.479  1.00  0.00    -0.119 C  
HETATM   12  O   UNL     1      -9.176   7.844  66.394  1.00  0.00    -0.175 OA 
HETATM   13  C   UNL     1      -8.377   8.445  62.707  1.00  0.00    -0.134 C  
HETATM   14  C   UNL     1      -7.591   7.137  62.510  1.00  0.00    -0.107 C  
BRANCH  10  15
HETATM   15  C   UNL     1      -8.833  10.434  64.178  1.00  0.00    -0.214 C  
HETATM   16  O   UNL     1      -9.649  10.813  63.339  1.00  0.00    -0.274 OA 
HETATM   17  N   UNL     1      -8.697  11.034  65.401  1.00  0.00    -0.316 N  
HETATM   18  H   UNL     1      -7.937  10.737  66.013  1.00  0.00     0.000 HD 
BRANCH  17  19
HETATM   19  C   UNL     1      -9.603  12.086  65.861  1.00  0.00    -0.223 C  
HETATM   20  C   UNL     1     -10.936  11.537  66.384  1.00  0.00    -0.336 C  
HETATM   21  C   UNL     1     -10.747  10.773  67.690  1.00  0.00    -0.258 C  
HETATM   22  N   UNL     1     -10.090  11.595  68.710  1.00  0.00    -0.327 NA 
HETATM   23  H   UNL     1      -9.990  11.084  69.587  1.00  0.00     0.000 HD 
HETATM   24  C   UNL     1      -8.803  12.121  68.253  1.00  0.00    -0.182 C  
HETATM   25  C   UNL     1      -8.928  12.914  66.952  1.00  0.00    -0.210 C  
ENDBRANCH  17  19
ENDBRANCH  10  15
ENDBRANCH   3   6
TORSDOF 3
ENDMDL
MODEL      144
REMARK 921   NORMALIZED FREE ENERGY PREDICTED BY IDOCK:   -3.32 KCAL/MOL
REMARK 922        TOTAL FREE ENERGY PREDICTED BY IDOCK:   -4.77 KCAL/MOL
REMARK 923 INTER-LIGAND FREE ENERGY PREDICTED BY IDOCK:   -3.93 KCAL/MOL
REMARK 924 INTRA-LIGAND FREE ENERGY PREDICTED BY IDOCK:   -0.84 KCAL/MOL
REMARK 927      BINDING AFFINITY PREDICTED BY RF-SCORE:    0.00 PKD
ROOT
HETATM    1  O   UNL     1     -10.597   7.987  72.512  1.00  0.00    -0.278 OA 
HETATM    2  S   UNL     1     -11.425   6.817  71.772  1.00  0.00    -0.297 S  
HETATM    3  O   UNL     1     -10.377   6.190  70.692  1.00  0.00    -0.197 OA 
HETATM    4  O   UNL     1     -12.524   7.449  71.068  1.00  0.00    -0.314 OA 
HETATM    5  O   UNL     1     -11.679   5.821  72.788  1.00  0.00    -0.264 OA 
ENDROOT
BRANCH   3   6
HETATM    6  N   UNL     1     -10.163   6.954  69.477  1.00  0.00    -0.180 N  
HETATM    7  C   UNL     1     -10.552   6.104  68.351  1.00  0.00    -0.265 C  
HETATM    8  C   UNL     1      -9.328   5.216  68.233  1.00  0.00    -0.122 C  
HETATM    9  N   UNL     1      -8.275   6.215  68.340  1.00  0.00    -0.114 N  
HETATM   10  C   UNL     1      -8.089   6.961  67.077  1.00  0.00    -0.117 C  
HETATM   11  C   UNL     1      -8.721   7.048  69.426  1.00  0.00    -0.133 C  
HETATM   12  O   UNL     1      -7.974   7.612  70.211  1.00  0.00    -0.098 OA 
HETATM   13  C   UNL     1      -9.395   7.677  66.666  1.00  0.00    -0.239 C  
HETATM   14  C   UNL     1     -10.651   6.850  66.994  1.00  0.00    -0.403 C  
BRANCH  10  15
HETATM   15  C   UNL     1      -6.915   7.963  66.973  1.00  0.00    -0.074 C  
HETATM   16  O   UNL     1      -5.889   7.690  66.351  1.00  0.00    -0.035 OA 
HETATM   17  N   UNL     1      -7.066   9.128  67.676  1.00  0.00    -0.082 N  
HETATM   18  H   UNL     1      -7.899   9.253  68.250  1.00  0.00     0.000 HD 
BRANCH  17  19
HETATM   19  C   UNL     1      -6.073  10.201  67.634  1.00  0.00    -0.057 C  
HETATM   20  C   UNL     1      -6.540  11.415  66.820  1.00  0.00    -0.136 C  
HETATM   21  C   UNL     1      -7.679  12.146  67.522  1.00  0.00    -0.159 C  
HETATM   22  N   UNL     1      -7.309  12.547  68.883  1.00  0.00    -0.254 NA 
HETATM   23  H   UNL     1      -8.068  13.057  69.336  1.00  0.00     0.000 HD 
HETATM   24  C   UNL     1      -6.876  11.410  69.697  1.00  0.00    -0.068 C  
HETATM   25  C   UNL     1      -5.722  10.642  69.053  1.00  0.00    -0.040 C  
ENDBRANCH  17  19
ENDBRANCH  10  15
ENDBRANCH   3   6
TORSDOF 3
ENDMDL
MODEL      145
REMARK 921   NORMALIZED FREE ENERGY PREDICTED BY IDOCK:   -3.28 KCAL/MOL
REMARK 922        TOTAL FREE ENERGY PREDICTED BY IDOCK:   -4.73 KCAL/MOL
REMARK 923 INTER-LIGAND FREE ENERGY PREDICTED BY IDOCK:   -3.97 KCAL/MOL
REMARK 924 INTRA-LIGAND FREE ENERGY PREDICTED BY IDOCK:   -0.76 KCAL/MOL
REMARK 927      BINDING AFFINITY PREDICTED BY RF-SCORE:    0.00 PKD
ROOT
HETATM    1  O   UNL     1      -6.932   5.389  66.303  1.00  0.00    -0.060 OA 
HETATM    2  S   UNL     1      -6.614   6.742  65.484  1.00  0.00    -0.052 S  
HETATM    3  O   UNL     1      -6.404   7.880  66.634  1.00  0.00    -0.048 OA 
HETATM    4  O   UNL     1      -7.794   7.057  64.702  1.00  0.00    -0.113 OA 
HETATM    5  O   UNL     1      -5.343   6.512  64.837  1.00  0.00    -0.020 OA 
ENDROOT
BRANCH   3   6
HETATM    6  N   UNL     1      -7.606   8.408  67.250  1.00  0.00    -0.096 N  
HETATM    7  C   UNL     1      -7.500   9.868  67.237  1.00  0.00    -0.087 C  
HETATM    8  C   UNL     1      -6.570  10.092  68.414  1.00  0.00    -0.053 C  
HETATM    9  N   UNL     1      -7.176   9.200  69.393  1.00  0.00    -0.066 N  
HETATM   10  C   UNL     1      -8.391   9.785  69.998  1.00  0.00    -0.192 C  
HETATM   11  C   UNL     1      -7.443   8.009  68.630  1.00  0.00    -0.098 C  
HETATM   12  O   UNL     1      -7.404   6.877  69.087  1.00  0.00    -0.088 OA 
HETATM   13  C   UNL     1      -9.445  10.101  68.913  1.00  0.00    -0.183 C  
HETATM   14  C   UNL     1      -8.814  10.607  67.605  1.00  0.00    -0.131 C  
BRANCH  10  15
HETATM   15  C   UNL     1      -9.079   9.030  71.160  1.00  0.00    -0.246 C  
HETATM   16  O   UNL     1      -8.429   8.400  71.993  1.00  0.00    -0.157 OA 
HETATM   17  N   UNL     1     -10.448   9.047  71.149  1.00  0.00    -0.265 N  
HETATM   18  H   UNL     1     -10.928   9.506  70.376  1.00  0.00     0.000 HD 
BRANCH  17  19
HETATM   19  C   UNL     1     -11.246   8.430  72.209  1.00  0.00    -0.376 C  
HETATM   20  C   UNL     1     -12.571   9.161  72.459  1.00  0.00    -0.311 C  
HETATM   21  C   UNL     1     -13.528   8.990  71.285  1.00  0.00    -0.197 C  
HETATM   22  N   UNL     1     -13.766   7.576  70.980  1.00  0.00    -0.629 NA 
HETATM   23  H   UNL     1     -14.426   7.471  70.210  1.00  0.00     0.000 HD 
HETATM   24  C   UNL     1     -12.523   6.849  70.715  1.00  0.00    -0.197 C  
HETATM   25  C   UNL     1     -11.525   6.969  71.867  1.00  0.00    -0.304 C  
ENDBRANCH  17  19
ENDBRANCH  10  15
ENDBRANCH   3   6
TORSDOF 3
ENDMDL
MODEL      146
REMARK 921   NORMALIZED FREE ENERGY PREDICTED BY IDOCK:   -3.27 KCAL/MOL
REMARK 922        TOTAL FREE ENERGY PREDICTED BY IDOCK:   -4.70 KCAL/MOL
REMARK 923 INTER-LIGAND FREE ENERGY PREDICTED BY IDOCK:   -4.26 KCAL/MOL
REMARK 924 INTRA-LIGAND FREE ENERGY PREDICTED BY IDOCK:   -0.44 KCAL/MOL
REMARK 927      BINDING AFFINITY PREDICTED BY RF-SCORE:    0.00 PKD
ROOT
HETATM    1  O   UNL     1     -10.107  10.506  66.966  1.00  0.00    -0.196 OA 
HETATM    2  S   UNL     1     -10.708  11.255  68.262  1.00  0.00    -0.210 S  
HETATM    3  O   UNL     1     -10.096  10.435  69.532  1.00  0.00    -0.229 OA 
HETATM    4  O   UNL     1     -12.148  11.085  68.226  1.00  0.00    -0.604 OA 
HETATM    5  O   UNL     1     -10.123  12.576  68.251  1.00  0.00    -0.219 OA 
ENDROOT
BRANCH   3   6
HETATM    6  N   UNL     1     -10.720   9.164  69.845  1.00  0.00    -0.227 N  
HETATM    7  C   UNL     1     -11.147   9.217  71.244  1.00  0.00    -0.357 C  
HETATM    8  C   UNL     1      -9.830   8.960  71.950  1.00  0.00    -0.294 C  
HETATM    9  N   UNL     1      -9.329   7.844  71.160  1.00  0.00    -0.149 N  
HETATM   10  C   UNL     1      -9.988   6.571  71.519  1.00  0.00    -0.175 C  
HETATM   11  C   UNL     1      -9.597   8.254  69.806  1.00  0.00    -0.171 C  
HETATM   12  O   UNL     1      -8.897   7.961  68.848  1.00  0.00    -0.141 OA 
HETATM   13  C   UNL     1     -11.516   6.666  71.309  1.00  0.00    -0.360 C  
HETATM   14  C   UNL     1     -12.078   8.052  71.672  1.00  0.00    -0.339 C  
BRANCH  10  15
HETATM   15  C   UNL     1      -9.475   5.261  70.876  1.00  0.00    -0.165 C  
HETATM   16  O   UNL     1     -10.251   4.407  70.448  1.00  0.00    -0.174 OA 
HETATM   17  N   UNL     1      -8.117   5.088  70.887  1.00  0.00    -0.094 N  
HETATM   18  H   UNL     1      -7.535   5.789  71.343  1.00  0.00     0.000 HD 
BRANCH  17  19
HETATM   19  C   UNL     1      -7.471   3.931  70.266  1.00  0.00    -0.045 C  
HETATM   20  C   UNL     1      -5.942   4.039  70.254  1.00  0.00    -0.018 C  
HETATM   21  C   UNL     1      -5.367   3.929  71.662  1.00  0.00     0.000 C  
HETATM   22  N   UNL     1      -5.793   2.695  72.327  1.00  0.00    -0.008 NA 
HETATM   23  H   UNL     1      -5.385   2.618  73.258  1.00  0.00     0.000 HD 
HETATM   24  C   UNL     1      -7.251   2.567  72.376  1.00  0.00    -0.038 C  
HETATM   25  C   UNL     1      -7.888   2.653  70.989  1.00  0.00    -0.049 C  
ENDBRANCH  17  19
ENDBRANCH  10  15
ENDBRANCH   3   6
TORSDOF 3
ENDMDL
MODEL      147
REMARK 921   NORMALIZED FREE ENERGY PREDICTED BY IDOCK:   -3.26 KCAL/MOL
REMARK 922        TOTAL FREE ENERGY PREDICTED BY IDOCK:   -4.70 KCAL/MOL
REMARK 923 INTER-LIGAND FREE ENERGY PREDICTED BY IDOCK:   -3.87 KCAL/MOL
REMARK 924 INTRA-LIGAND FREE ENERGY PREDICTED BY IDOCK:   -0.83 KCAL/MOL
REMARK 927      BINDING AFFINITY PREDICTED BY RF-SCORE:    0.00 PKD
ROOT
HETATM    1  O   UNL     1      -6.356   9.367  71.616  1.00  0.00    -0.229 OA 
HETATM    2  S   UNL     1      -6.742   7.811  71.437  1.00  0.00    -0.046 S  
HETATM    3  O   UNL     1      -7.085   7.652  69.851  1.00  0.00    -0.060 OA 
HETATM    4  O   UNL     1      -7.942   7.575  72.217  1.00  0.00    -0.096 OA 
HETATM    5  O   UNL     1      -5.528   7.077  71.715  1.00  0.00    -0.035 OA 
ENDROOT
BRANCH   3   6
HETATM    6  N   UNL     1      -8.382   8.134  69.416  1.00  0.00    -0.121 N  
HETATM    7  C   UNL     1      -9.145   6.977  68.945  1.00  0.00    -0.134 C  
HETATM    8  C   UNL     1      -8.543   6.786  67.567  1.00  0.00    -0.120 C  
HETATM    9  N   UNL     1      -8.535   8.163  67.097  1.00  0.00    -0.123 N  
HETATM   10  C   UNL     1      -9.875   8.606  66.658  1.00  0.00    -0.266 C  
HETATM   11  C   UNL     1      -8.044   8.896  68.235  1.00  0.00    -0.109 C  
HETATM   12  O   UNL     1      -7.363   9.907  68.159  1.00  0.00    -0.079 OA 
HETATM   13  C   UNL     1     -10.895   8.495  67.813  1.00  0.00    -0.065 C  
HETATM   14  C   UNL     1     -10.650   7.262  68.701  1.00  0.00    -0.194 C  
BRANCH  10  15
HETATM   15  C   UNL     1     -10.018   9.998  65.997  1.00  0.00    -0.267 C  
HETATM   16  O   UNL     1      -9.546  10.235  64.886  1.00  0.00    -0.253 OA 
HETATM   17  N   UNL     1     -10.631  10.956  66.759  1.00  0.00    -0.255 N  
HETATM   18  H   UNL     1     -10.913  10.721  67.710  1.00  0.00     0.000 HD 
BRANCH  17  19
HETATM   19  C   UNL     1     -10.894  12.304  66.257  1.00  0.00    -0.278 C  
HETATM   20  C   UNL     1     -12.219  12.883  66.770  1.00  0.00    -0.204 C  
HETATM   21  C   UNL     1     -12.154  13.174  68.266  1.00  0.00    -0.179 C  
HETATM   22  N   UNL     1     -11.038  14.063  68.597  1.00  0.00    -0.252 NA 
HETATM   23  H   UNL     1     -11.017  14.272  69.596  1.00  0.00     0.000 HD 
HETATM   24  C   UNL     1      -9.752  13.533  68.140  1.00  0.00    -0.233 C  
HETATM   25  C   UNL     1      -9.747  13.236  66.641  1.00  0.00    -0.270 C  
ENDBRANCH  17  19
ENDBRANCH  10  15
ENDBRANCH   3   6
TORSDOF 3
ENDMDL
MODEL      148
REMARK 921   NORMALIZED FREE ENERGY PREDICTED BY IDOCK:   -3.26 KCAL/MOL
REMARK 922        TOTAL FREE ENERGY PREDICTED BY IDOCK:   -4.69 KCAL/MOL
REMARK 923 INTER-LIGAND FREE ENERGY PREDICTED BY IDOCK:   -4.03 KCAL/MOL
REMARK 924 INTRA-LIGAND FREE ENERGY PREDICTED BY IDOCK:   -0.66 KCAL/MOL
REMARK 927      BINDING AFFINITY PREDICTED BY RF-SCORE:    0.00 PKD
ROOT
HETATM    1  O   UNL     1      -8.646  14.765  68.080  1.00  0.00    -0.155 OA 
HETATM    2  S   UNL     1      -7.071  14.418  68.094  1.00  0.00    -0.143 S  
HETATM    3  O   UNL     1      -6.997  12.825  67.757  1.00  0.00    -0.101 OA 
HETATM    4  O   UNL     1      -6.593  14.650  69.444  1.00  0.00    -0.117 OA 
HETATM    5  O   UNL     1      -6.505  15.144  66.979  1.00  0.00    -0.227 OA 
ENDROOT
BRANCH   3   6
HETATM    6  N   UNL     1      -7.316  11.917  68.842  1.00  0.00    -0.105 N  
HETATM    7  C   UNL     1      -6.065  11.291  69.273  1.00  0.00    -0.062 C  
HETATM    8  C   UNL     1      -5.890  10.241  68.194  1.00  0.00    -0.041 C  
HETATM    9  N   UNL     1      -7.241   9.703  68.138  1.00  0.00    -0.079 N  
HETATM   10  C   UNL     1      -7.516   8.779  69.259  1.00  0.00    -0.078 C  
HETATM   11  C   UNL     1      -8.066  10.883  68.166  1.00  0.00    -0.119 C  
HETATM   12  O   UNL     1      -9.143  10.982  67.598  1.00  0.00    -0.143 OA 
HETATM   13  C   UNL     1      -7.335   9.494  70.616  1.00  0.00    -0.133 C  
HETATM   14  C   UNL     1      -6.171  10.501  70.604  1.00  0.00    -0.065 C  
BRANCH  10  15
HETATM   15  C   UNL     1      -8.857   8.008  69.274  1.00  0.00    -0.141 C  
HETATM   16  O   UNL     1      -9.475   7.770  68.237  1.00  0.00    -0.145 OA 
HETATM   17  N   UNL     1      -9.340   7.683  70.513  1.00  0.00    -0.163 N  
HETATM   18  H   UNL     1      -8.827   7.994  71.338  1.00  0.00     0.000 HD 
BRANCH  17  19
HETATM   19  C   UNL     1     -10.564   6.904  70.697  1.00  0.00    -0.222 C  
HETATM   20  C   UNL     1     -10.525   6.016  71.946  1.00  0.00    -0.263 C  
HETATM   21  C   UNL     1     -10.559   6.851  73.221  1.00  0.00    -0.325 C  
HETATM   22  N   UNL     1     -11.723   7.741  73.256  1.00  0.00    -0.590 NA 
HETATM   23  H   UNL     1     -11.751   8.278  74.123  1.00  0.00     0.000 HD 
HETATM   24  C   UNL     1     -11.784   8.620  72.086  1.00  0.00    -0.371 C  
HETATM   25  C   UNL     1     -11.769   7.839  70.772  1.00  0.00    -0.242 C  
ENDBRANCH  17  19
ENDBRANCH  10  15
ENDBRANCH   3   6
TORSDOF 3
ENDMDL
MODEL      149
REMARK 921   NORMALIZED FREE ENERGY PREDICTED BY IDOCK:   -3.18 KCAL/MOL
REMARK 922        TOTAL FREE ENERGY PREDICTED BY IDOCK:   -4.61 KCAL/MOL
REMARK 923 INTER-LIGAND FREE ENERGY PREDICTED BY IDOCK:   -4.17 KCAL/MOL
REMARK 924 INTRA-LIGAND FREE ENERGY PREDICTED BY IDOCK:   -0.44 KCAL/MOL
REMARK 927      BINDING AFFINITY PREDICTED BY RF-SCORE:    0.00 PKD
ROOT
HETATM    1  O   UNL     1      -8.134  21.381  67.209  1.00  0.00    -0.153 OA 
HETATM    2  S   UNL     1      -6.759  20.568  66.981  1.00  0.00    -0.287 S  
HETATM    3  O   UNL     1      -7.230  19.110  66.424  1.00  0.00    -0.222 OA 
HETATM    4  O   UNL     1      -6.134  20.411  68.280  1.00  0.00    -0.255 OA 
HETATM    5  O   UNL     1      -6.073  21.261  65.914  1.00  0.00    -0.263 OA 
ENDROOT
BRANCH   3   6
HETATM    6  N   UNL     1      -7.744  18.176  67.408  1.00  0.00    -0.215 N  
HETATM    7  C   UNL     1      -6.602  17.441  67.954  1.00  0.00    -0.165 C  
HETATM    8  C   UNL     1      -6.359  16.434  66.847  1.00  0.00    -0.074 C  
HETATM    9  N   UNL     1      -7.725  15.999  66.592  1.00  0.00    -0.235 N  
HETATM   10  C   UNL     1      -8.201  15.043  67.615  1.00  0.00    -0.168 C  
HETATM   11  C   UNL     1      -8.467  17.232  66.585  1.00  0.00    -0.260 C  
HETATM   12  O   UNL     1      -9.453  17.436  65.893  1.00  0.00    -0.512 OA 
HETATM   13  C   UNL     1      -8.150  15.677  69.023  1.00  0.00    -0.222 C  
HETATM   14  C   UNL     1      -6.931  16.596  69.214  1.00  0.00    -0.225 C  
BRANCH  10  15
HETATM   15  C   UNL     1      -9.581  14.372  67.418  1.00  0.00    -0.216 C  
HETATM   16  O   UNL     1     -10.023  14.124  66.297  1.00  0.00    -0.283 OA 
HETATM   17  N   UNL     1     -10.299  14.147  68.562  1.00  0.00    -0.245 N  
HETATM   18  H   UNL     1      -9.917  14.464  69.453  1.00  0.00     0.000 HD 
BRANCH  17  19
HETATM   19  C   UNL     1     -11.594  13.468  68.552  1.00  0.00    -0.333 C  
HETATM   20  C   UNL     1     -11.803  12.564  69.772  1.00  0.00    -0.380 C  
HETATM   21  C   UNL     1     -11.953  13.383  71.050  1.00  0.00     0.067 C  
HETATM   22  N   UNL     1     -13.037  14.363  70.941  1.00  0.00    -0.352 NA 
HETATM   23  H   UNL     1     -13.146  14.890  71.808  1.00  0.00     0.000 HD 
HETATM   24  C   UNL     1     -12.861  15.259  69.797  1.00  0.00     0.087 C  
HETATM   25  C   UNL     1     -12.720  14.497  68.479  1.00  0.00     0.744 C  
ENDBRANCH  17  19
ENDBRANCH  10  15
ENDBRANCH   3   6
TORSDOF 3
ENDMDL
MODEL      150
REMARK 921   NORMALIZED FREE ENERGY PREDICTED BY IDOCK:   -3.18 KCAL/MOL
REMARK 922        TOTAL FREE ENERGY PREDICTED BY IDOCK:   -4.60 KCAL/MOL
REMARK 923 INTER-LIGAND FREE ENERGY PREDICTED BY IDOCK:   -3.76 KCAL/MOL
REMARK 924 INTRA-LIGAND FREE ENERGY PREDICTED BY IDOCK:   -0.84 KCAL/MOL
REMARK 927      BINDING AFFINITY PREDICTED BY RF-SCORE:    0.00 PKD
ROOT
HETATM    1  O   UNL     1      -6.210  11.598  68.875  1.00  0.00    -0.050 OA 
HETATM    2  S   UNL     1      -7.330  11.994  67.784  1.00  0.00    -0.125 S  
HETATM    3  O   UNL     1      -8.737  11.493  68.439  1.00  0.00    -0.153 OA 
HETATM    4  O   UNL     1      -7.053  11.224  66.587  1.00  0.00    -0.138 OA 
HETATM    5  O   UNL     1      -7.337  13.438  67.744  1.00  0.00    -0.124 OA 
ENDROOT
BRANCH   3   6
HETATM    6  N   UNL     1      -9.017  10.072  68.367  1.00  0.00    -0.119 N  
HETATM    7  C   UNL     1     -10.297   9.911  67.676  1.00  0.00    -0.225 C  
HETATM    8  C   UNL     1     -11.264  10.237  68.797  1.00  0.00    -0.206 C  
HETATM    9  N   UNL     1     -10.674   9.462  69.878  1.00  0.00    -0.225 N  
HETATM   10  C   UNL     1     -10.992   8.023  69.767  1.00  0.00    -0.137 C  
HETATM   11  C   UNL     1      -9.267   9.739  69.751  1.00  0.00    -0.226 C  
HETATM   12  O   UNL     1      -8.490   9.795  70.693  1.00  0.00    -0.200 OA 
HETATM   13  C   UNL     1     -10.480   7.451  68.426  1.00  0.00    -0.220 C  
HETATM   14  C   UNL     1     -10.620   8.450  67.265  1.00  0.00    -0.328 C  
BRANCH  10  15
HETATM   15  C   UNL     1     -10.562   7.076  70.912  1.00  0.00    -0.217 C  
HETATM   16  O   UNL     1     -11.113   7.103  72.012  1.00  0.00    -0.234 OA 
HETATM   17  N   UNL     1      -9.488   6.271  70.643  1.00  0.00    -0.168 N  
HETATM   18  H   UNL     1      -9.014   6.365  69.745  1.00  0.00     0.000 HD 
BRANCH  17  19
HETATM   19  C   UNL     1      -8.995   5.280  71.599  1.00  0.00    -0.135 C  
HETATM   20  C   UNL     1      -9.563   3.877  71.350  1.00  0.00    -0.237 C  
HETATM   21  C   UNL     1      -9.017   3.280  70.058  1.00  0.00    -0.106 C  
HETATM   22  N   UNL     1      -7.552   3.254  70.048  1.00  0.00    -0.044 NA 
HETATM   23  H   UNL     1      -7.197   2.831  69.191  1.00  0.00     0.000 HD 
HETATM   24  C   UNL     1      -6.973   4.581  70.263  1.00  0.00    -0.044 C  
HETATM   25  C   UNL     1      -7.470   5.228  71.556  1.00  0.00    -0.096 C  
ENDBRANCH  17  19
ENDBRANCH  10  15
ENDBRANCH   3   6
TORSDOF 3
ENDMDL
MODEL      151
REMARK 921   NORMALIZED FREE ENERGY PREDICTED BY IDOCK:   -3.15 KCAL/MOL
REMARK 922        TOTAL FREE ENERGY PREDICTED BY IDOCK:   -4.57 KCAL/MOL
REMARK 923 INTER-LIGAND FREE ENERGY PREDICTED BY IDOCK:   -3.66 KCAL/MOL
REMARK 924 INTRA-LIGAND FREE ENERGY PREDICTED BY IDOCK:   -0.91 KCAL/MOL
REMARK 927      BINDING AFFINITY PREDICTED BY RF-SCORE:    0.00 PKD
ROOT
HETATM    1  O   UNL     1     -11.020   9.586  69.587  1.00  0.00    -0.236 OA 
HETATM    2  S   UNL     1     -10.626   8.382  70.587  1.00  0.00    -0.213 S  
HETATM    3  O   UNL     1      -9.368   7.640  69.862  1.00  0.00    -0.151 OA 
HETATM    4  O   UNL     1     -11.759   7.478  70.635  1.00  0.00    -0.281 OA 
HETATM    5  O   UNL     1     -10.143   9.021  71.790  1.00  0.00    -0.326 OA 
ENDROOT
BRANCH   3   6
HETATM    6  N   UNL     1      -9.686   6.759  68.754  1.00  0.00    -0.132 N  
HETATM    7  C   UNL     1      -9.126   5.443  69.066  1.00  0.00    -0.115 C  
HETATM    8  C   UNL     1      -7.668   5.667  68.715  1.00  0.00    -0.089 C  
HETATM    9  N   UNL     1      -7.814   6.351  67.438  1.00  0.00    -0.104 N  
HETATM   10  C   UNL     1      -8.130   5.412  66.341  1.00  0.00    -0.105 C  
HETATM   11  C   UNL     1      -8.869   7.297  67.691  1.00  0.00    -0.123 C  
HETATM   12  O   UNL     1      -8.945   8.398  67.165  1.00  0.00    -0.133 OA 
HETATM   13  C   UNL     1      -9.440   4.647  66.633  1.00  0.00    -0.173 C  
HETATM   14  C   UNL     1      -9.605   4.306  68.125  1.00  0.00    -0.196 C  
BRANCH  10  15
HETATM   15  C   UNL     1      -8.178   5.952  64.892  1.00  0.00    -0.135 C  
HETATM   16  O   UNL     1      -8.747   5.334  63.993  1.00  0.00    -0.112 OA 
HETATM   17  N   UNL     1      -7.486   7.112  64.668  1.00  0.00    -0.090 N  
HETATM   18  H   UNL     1      -6.954   7.523  65.435  1.00  0.00     0.000 HD 
BRANCH  17  19
HETATM   19  C   UNL     1      -7.481   7.782  63.368  1.00  0.00    -0.115 C  
HETATM   20  C   UNL     1      -8.422   8.991  63.317  1.00  0.00    -0.180 C  
HETATM   21  C   UNL     1      -7.911  10.129  64.194  1.00  0.00    -0.154 C  
HETATM   22  N   UNL     1      -6.546  10.521  63.832  1.00  0.00    -0.350 NA 
HETATM   23  H   UNL     1      -6.221  11.298  64.407  1.00  0.00     0.000 HD 
HETATM   24  C   UNL     1      -5.612   9.394  63.889  1.00  0.00    -0.067 C  
HETATM   25  C   UNL     1      -6.062   8.223  63.016  1.00  0.00    -0.081 C  
ENDBRANCH  17  19
ENDBRANCH  10  15
ENDBRANCH   3   6
TORSDOF 3
ENDMDL
MODEL      152
REMARK 921   NORMALIZED FREE ENERGY PREDICTED BY IDOCK:   -3.13 KCAL/MOL
REMARK 922        TOTAL FREE ENERGY PREDICTED BY IDOCK:   -4.55 KCAL/MOL
REMARK 923 INTER-LIGAND FREE ENERGY PREDICTED BY IDOCK:   -3.84 KCAL/MOL
REMARK 924 INTRA-LIGAND FREE ENERGY PREDICTED BY IDOCK:   -0.71 KCAL/MOL
REMARK 927      BINDING AFFINITY PREDICTED BY RF-SCORE:    0.00 PKD
ROOT
HETATM    1  O   UNL     1      -7.091   8.005  64.544  1.00  0.00    -0.072 OA 
HETATM    2  S   UNL     1      -7.199   7.375  66.025  1.00  0.00    -0.071 S  
HETATM    3  O   UNL     1      -8.276   8.324  66.799  1.00  0.00    -0.101 OA 
HETATM    4  O   UNL     1      -5.896   7.516  66.647  1.00  0.00    -0.036 OA 
HETATM    5  O   UNL     1      -7.791   6.069  65.847  1.00  0.00    -0.100 OA 
ENDROOT
BRANCH   3   6
HETATM    6  N   UNL     1      -7.791   9.609  67.265  1.00  0.00    -0.095 N  
HETATM    7  C   UNL     1      -7.808   9.580  68.728  1.00  0.00    -0.084 C  
HETATM    8  C   UNL     1      -9.280   9.825  68.996  1.00  0.00    -0.165 C  
HETATM    9  N   UNL     1      -9.530  10.923  68.073  1.00  0.00    -0.159 N  
HETATM   10  C   UNL     1      -9.025  12.211  68.594  1.00  0.00    -0.000 C  
HETATM   11  C   UNL     1      -8.859  10.500  66.871  1.00  0.00    -0.137 C  
HETATM   12  O   UNL     1      -9.238  10.770  65.741  1.00  0.00    -0.175 OA 
HETATM   13  C   UNL     1      -7.505  12.137  68.859  1.00  0.00    -0.027 C  
HETATM   14  C   UNL     1      -7.065  10.765  69.399  1.00  0.00    -0.122 C  
BRANCH  10  15
HETATM   15  C   UNL     1      -9.333  13.504  67.803  1.00  0.00    -0.213 C  
HETATM   16  O   UNL     1      -8.557  14.458  67.801  1.00  0.00    -0.154 OA 
HETATM   17  N   UNL     1     -10.551  13.540  67.177  1.00  0.00    -0.263 N  
HETATM   18  H   UNL     1     -11.190  12.755  67.298  1.00  0.00     0.000 HD 
BRANCH  17  19
HETATM   19  C   UNL     1     -10.967  14.666  66.342  1.00  0.00    -0.325 C  
HETATM   20  C   UNL     1     -10.167  14.770  65.038  1.00  0.00    -0.379 C  
HETATM   21  C   UNL     1     -10.493  13.617  64.095  1.00  0.00     0.043 C  
HETATM   22  N   UNL     1     -11.929  13.534  63.815  1.00  0.00    -0.657 NA 
HETATM   23  H   UNL     1     -12.135  12.776  63.165  1.00  0.00     0.000 HD 
HETATM   24  C   UNL     1     -12.726  13.414  65.038  1.00  0.00    -0.360 C  
HETATM   25  C   UNL     1     -12.456  14.553  66.021  1.00  0.00    -0.187 C  
ENDBRANCH  17  19
ENDBRANCH  10  15
ENDBRANCH   3   6
TORSDOF 3
ENDMDL
MODEL      153
REMARK 921   NORMALIZED FREE ENERGY PREDICTED BY IDOCK:   -3.13 KCAL/MOL
REMARK 922        TOTAL FREE ENERGY PREDICTED BY IDOCK:   -4.54 KCAL/MOL
REMARK 923 INTER-LIGAND FREE ENERGY PREDICTED BY IDOCK:   -3.82 KCAL/MOL
REMARK 924 INTRA-LIGAND FREE ENERGY PREDICTED BY IDOCK:   -0.72 KCAL/MOL
REMARK 927      BINDING AFFINITY PREDICTED BY RF-SCORE:    0.00 PKD
ROOT
HETATM    1  O   UNL     1      -6.883   8.185  63.674  1.00  0.00    -0.074 OA 
HETATM    2  S   UNL     1      -7.018   9.790  63.583  1.00  0.00    -0.121 S  
HETATM    3  O   UNL     1      -7.223  10.274  65.127  1.00  0.00    -0.139 OA 
HETATM    4  O   UNL     1      -8.219  10.077  62.823  1.00  0.00    -0.133 OA 
HETATM    5  O   UNL     1      -5.730  10.261  63.128  1.00  0.00    -0.119 OA 
ENDROOT
BRANCH   3   6
HETATM    6  N   UNL     1      -8.544  10.088  65.695  1.00  0.00    -0.149 N  
HETATM    7  C   UNL     1      -8.999  11.390  66.184  1.00  0.00    -0.201 C  
HETATM    8  C   UNL     1      -8.242  11.478  67.494  1.00  0.00    -0.140 C  
HETATM    9  N   UNL     1      -8.479  10.141  68.018  1.00  0.00    -0.117 N  
HETATM   10  C   UNL     1      -9.834  10.002  68.592  1.00  0.00    -0.160 C  
HETATM   11  C   UNL     1      -8.263   9.297  66.871  1.00  0.00    -0.119 C  
HETATM   12  O   UNL     1      -7.805   8.165  66.928  1.00  0.00    -0.094 OA 
HETATM   13  C   UNL     1     -10.913  10.304  67.528  1.00  0.00    -0.344 C  
HETATM   14  C   UNL     1     -10.501  11.437  66.572  1.00  0.00    -0.292 C  
BRANCH  10  15
HETATM   15  C   UNL     1     -10.202   8.688  69.319  1.00  0.00    -0.211 C  
HETATM   16  O   UNL     1     -10.879   7.817  68.773  1.00  0.00    -0.114 OA 
HETATM   17  N   UNL     1      -9.792   8.597  70.622  1.00  0.00    -0.175 N  
HETATM   18  H   UNL     1      -9.318   9.394  71.046  1.00  0.00     0.000 HD 
BRANCH  17  19
HETATM   19  C   UNL     1     -10.010   7.396  71.429  1.00  0.00    -0.186 C  
HETATM   20  C   UNL     1      -8.923   6.334  71.224  1.00  0.00    -0.139 C  
HETATM   21  C   UNL     1      -7.587   6.791  71.799  1.00  0.00    -0.095 C  
HETATM   22  N   UNL     1      -7.701   7.148  73.216  1.00  0.00    -0.085 NA 
HETATM   23  H   UNL     1      -6.798   7.428  73.599  1.00  0.00     0.000 HD 
HETATM   24  C   UNL     1      -8.717   8.176  73.449  1.00  0.00    -0.251 C  
HETATM   25  C   UNL     1     -10.087   7.770  72.907  1.00  0.00    -0.363 C  
ENDBRANCH  17  19
ENDBRANCH  10  15
ENDBRANCH   3   6
TORSDOF 3
ENDMDL
MODEL      154
REMARK 921   NORMALIZED FREE ENERGY PREDICTED BY IDOCK:   -3.10 KCAL/MOL
REMARK 922        TOTAL FREE ENERGY PREDICTED BY IDOCK:   -4.51 KCAL/MOL
REMARK 923 INTER-LIGAND FREE ENERGY PREDICTED BY IDOCK:   -3.66 KCAL/MOL
REMARK 924 INTRA-LIGAND FREE ENERGY PREDICTED BY IDOCK:   -0.85 KCAL/MOL
REMARK 927      BINDING AFFINITY PREDICTED BY RF-SCORE:    0.00 PKD
ROOT
HETATM    1  O   UNL     1     -10.370   6.115  68.156  1.00  0.00    -0.157 OA 
HETATM    2  S   UNL     1      -9.035   5.535  67.462  1.00  0.00    -0.107 S  
HETATM    3  O   UNL     1      -7.906   6.683  67.716  1.00  0.00    -0.108 OA 
HETATM    4  O   UNL     1      -9.303   5.427  66.041  1.00  0.00    -0.156 OA 
HETATM    5  O   UNL     1      -8.675   4.366  68.233  1.00  0.00    -0.097 OA 
ENDROOT
BRANCH   3   6
HETATM    6  N   UNL     1      -7.969   7.855  66.864  1.00  0.00    -0.106 N  
HETATM    7  C   UNL     1      -6.701   7.937  66.137  1.00  0.00    -0.054 C  
HETATM    8  C   UNL     1      -5.803   8.530  67.205  1.00  0.00    -0.043 C  
HETATM    9  N   UNL     1      -6.668   9.585  67.712  1.00  0.00    -0.066 N  
HETATM   10  C   UNL     1      -6.694  10.759  66.814  1.00  0.00    -0.110 C  
HETATM   11  C   UNL     1      -7.948   8.934  67.825  1.00  0.00    -0.102 C  
HETATM   12  O   UNL     1      -8.781   9.200  68.678  1.00  0.00    -0.127 OA 
HETATM   13  C   UNL     1      -7.189  10.361  65.405  1.00  0.00    -0.121 C  
HETATM   14  C   UNL     1      -6.696   8.968  64.977  1.00  0.00    -0.069 C  
BRANCH  10  15
HETATM   15  C   UNL     1      -7.453  12.028  67.271  1.00  0.00    -0.158 C  
HETATM   16  O   UNL     1      -6.868  12.972  67.800  1.00  0.00    -0.110 OA 
HETATM   17  N   UNL     1      -8.813  11.992  67.119  1.00  0.00    -0.181 N  
HETATM   18  H   UNL     1      -9.246  11.140  66.763  1.00  0.00     0.000 HD 
BRANCH  17  19
HETATM   19  C   UNL     1      -9.667  13.132  67.448  1.00  0.00    -0.220 C  
HETATM   20  C   UNL     1     -10.020  13.986  66.224  1.00  0.00    -0.317 C  
HETATM   21  C   UNL     1     -10.947  13.237  65.274  1.00  0.00    -0.291 C  
HETATM   22  N   UNL     1     -12.163  12.778  65.952  1.00  0.00    -0.559 NA 
HETATM   23  H   UNL     1     -12.789  12.300  65.304  1.00  0.00     0.000 HD 
HETATM   24  C   UNL     1     -11.866  11.942  67.117  1.00  0.00    -0.139 C  
HETATM   25  C   UNL     1     -10.950  12.645  68.118  1.00  0.00    -0.265 C  
ENDBRANCH  17  19
ENDBRANCH  10  15
ENDBRANCH   3   6
TORSDOF 3
ENDMDL
MODEL      155
REMARK 921   NORMALIZED FREE ENERGY PREDICTED BY IDOCK:   -3.08 KCAL/MOL
REMARK 922        TOTAL FREE ENERGY PREDICTED BY IDOCK:   -4.49 KCAL/MOL
REMARK 923 INTER-LIGAND FREE ENERGY PREDICTED BY IDOCK:   -3.71 KCAL/MOL
REMARK 924 INTRA-LIGAND FREE ENERGY PREDICTED BY IDOCK:   -0.77 KCAL/MOL
REMARK 927      BINDING AFFINITY PREDICTED BY RF-SCORE:    0.00 PKD
ROOT
HETATM    1  O   UNL     1      -5.465   7.777  66.756  1.00  0.00    -0.027 OA 
HETATM    2  S   UNL     1      -6.077   6.710  65.712  1.00  0.00    -0.035 S  
HETATM    3  O   UNL     1      -7.622   6.504  66.192  1.00  0.00    -0.086 OA 
HETATM    4  O   UNL     1      -5.346   5.470  65.890  1.00  0.00    -0.012 OA 
HETATM    5  O   UNL     1      -6.085   7.382  64.433  1.00  0.00    -0.037 OA 
ENDROOT
BRANCH   3   6
HETATM    6  N   UNL     1      -7.834   5.656  67.348  1.00  0.00    -0.101 N  
HETATM    7  C   UNL     1      -8.563   4.470  66.895  1.00  0.00    -0.104 C  
HETATM    8  C   UNL     1      -9.971   5.023  66.806  1.00  0.00    -0.217 C  
HETATM    9  N   UNL     1     -10.043   5.747  68.067  1.00  0.00    -0.148 N  
HETATM   10  C   UNL     1     -10.267   4.842  69.213  1.00  0.00    -0.135 C  
HETATM   11  C   UNL     1      -8.776   6.428  68.126  1.00  0.00    -0.116 C  
HETATM   12  O   UNL     1      -8.607   7.522  68.645  1.00  0.00    -0.129 OA 
HETATM   13  C   UNL     1      -9.133   3.798  69.318  1.00  0.00    -0.200 C  
HETATM   14  C   UNL     1      -8.635   3.326  67.941  1.00  0.00    -0.117 C  
BRANCH  10  15
HETATM   15  C   UNL     1     -10.510   5.459  70.611  1.00  0.00    -0.259 C  
HETATM   16  O   UNL     1     -10.184   4.871  71.641  1.00  0.00    -0.198 OA 
HETATM   17  N   UNL     1     -11.175   6.656  70.623  1.00  0.00    -0.294 N  
HETATM   18  H   UNL     1     -11.504   7.045  69.739  1.00  0.00     0.000 HD 
BRANCH  17  19
HETATM   19  C   UNL     1     -11.430   7.397  71.858  1.00  0.00    -0.266 C  
HETATM   20  C   UNL     1     -11.299   8.914  71.681  1.00  0.00    -0.407 C  
HETATM   21  C   UNL     1     -12.422   9.470  70.812  1.00  0.00    -0.124 C  
HETATM   22  N   UNL     1     -13.742   9.124  71.345  1.00  0.00    -0.497 NA 
HETATM   23  H   UNL     1     -14.487   9.520  70.771  1.00  0.00     0.000 HD 
HETATM   24  C   UNL     1     -13.912   7.679  71.509  1.00  0.00    -0.397 C  
HETATM   25  C   UNL     1     -12.823   7.062  72.387  1.00  0.00     0.191 C  
ENDBRANCH  17  19
ENDBRANCH  10  15
ENDBRANCH   3   6
TORSDOF 3
ENDMDL
MODEL      156
REMARK 921   NORMALIZED FREE ENERGY PREDICTED BY IDOCK:   -3.07 KCAL/MOL
REMARK 922        TOTAL FREE ENERGY PREDICTED BY IDOCK:   -4.47 KCAL/MOL
REMARK 923 INTER-LIGAND FREE ENERGY PREDICTED BY IDOCK:   -3.66 KCAL/MOL
REMARK 924 INTRA-LIGAND FREE ENERGY PREDICTED BY IDOCK:   -0.81 KCAL/MOL
REMARK 927      BINDING AFFINITY PREDICTED BY RF-SCORE:    0.00 PKD
ROOT
HETATM    1  O   UNL     1      -9.182   4.156  72.744  1.00  0.00    -0.114 OA 
HETATM    2  S   UNL     1      -9.882   5.455  73.396  1.00  0.00    -0.167 S  
HETATM    3  O   UNL     1     -10.627   6.192  72.146  1.00  0.00    -0.198 OA 
HETATM    4  O   UNL     1      -8.821   6.308  73.897  1.00  0.00    -0.122 OA 
HETATM    5  O   UNL     1     -10.895   4.941  74.289  1.00  0.00    -0.320 OA 
ENDROOT
BRANCH   3   6
HETATM    6  N   UNL     1      -9.784   6.963  71.252  1.00  0.00    -0.172 N  
HETATM    7  C   UNL     1     -10.054   8.379  71.506  1.00  0.00    -0.226 C  
HETATM    8  C   UNL     1     -11.353   8.558  70.743  1.00  0.00    -0.266 C  
HETATM    9  N   UNL     1     -11.019   7.870  69.504  1.00  0.00    -0.139 N  
HETATM   10  C   UNL     1     -10.167   8.697  68.623  1.00  0.00    -0.194 C  
HETATM   11  C   UNL     1     -10.363   6.672  69.960  1.00  0.00    -0.199 C  
HETATM   12  O   UNL     1     -10.421   5.596  69.385  1.00  0.00    -0.247 OA 
HETATM   13  C   UNL     1      -8.849   9.077  69.336  1.00  0.00    -0.144 C  
HETATM   14  C   UNL     1      -9.047   9.351  70.837  1.00  0.00    -0.220 C  
BRANCH  10  15
HETATM   15  C   UNL     1      -9.836   8.174  67.206  1.00  0.00    -0.197 C  
HETATM   16  O   UNL     1     -10.503   8.504  66.226  1.00  0.00    -0.089 OA 
HETATM   17  N   UNL     1      -8.812   7.268  67.132  1.00  0.00    -0.123 N  
HETATM   18  H   UNL     1      -8.362   6.962  67.994  1.00  0.00     0.000 HD 
BRANCH  17  19
HETATM   19  C   UNL     1      -8.339   6.724  65.859  1.00  0.00    -0.137 C  
HETATM   20  C   UNL     1      -6.809   6.702  65.751  1.00  0.00    -0.049 C  
HETATM   21  C   UNL     1      -6.201   5.682  66.708  1.00  0.00    -0.034 C  
HETATM   22  N   UNL     1      -6.754   4.342  66.495  1.00  0.00    -0.049 NA 
HETATM   23  H   UNL     1      -6.324   3.662  67.122  1.00  0.00     0.000 HD 
HETATM   24  C   UNL     1      -8.214   4.320  66.610  1.00  0.00    -0.102 C  
HETATM   25  C   UNL     1      -8.886   5.312  65.662  1.00  0.00    -0.152 C  
ENDBRANCH  17  19
ENDBRANCH  10  15
ENDBRANCH   3   6
TORSDOF 3
ENDMDL
MODEL      157
REMARK 921   NORMALIZED FREE ENERGY PREDICTED BY IDOCK:   -3.05 KCAL/MOL
REMARK 922        TOTAL FREE ENERGY PREDICTED BY IDOCK:   -4.45 KCAL/MOL
REMARK 923 INTER-LIGAND FREE ENERGY PREDICTED BY IDOCK:   -4.13 KCAL/MOL
REMARK 924 INTRA-LIGAND FREE ENERGY PREDICTED BY IDOCK:   -0.32 KCAL/MOL
REMARK 927      BINDING AFFINITY PREDICTED BY RF-SCORE:    0.00 PKD
ROOT
HETATM    1  O   UNL     1     -11.588  15.132  68.013  1.00  0.00    -0.334 OA 
HETATM    2  S   UNL     1     -10.595  16.282  68.556  1.00  0.00    -0.312 S  
HETATM    3  O   UNL     1      -9.127  15.864  67.982  1.00  0.00    -0.182 OA 
HETATM    4  O   UNL     1     -10.590  16.194  70.004  1.00  0.00    -0.300 OA 
HETATM    5  O   UNL     1     -11.012  17.497  67.895  1.00  0.00    -0.323 OA 
ENDROOT
BRANCH   3   6
HETATM    6  N   UNL     1      -8.440  14.792  68.676  1.00  0.00    -0.162 N  
HETATM    7  C   UNL     1      -7.134  15.306  69.093  1.00  0.00    -0.155 C  
HETATM    8  C   UNL     1      -6.365  15.210  67.790  1.00  0.00    -0.160 C  
HETATM    9  N   UNL     1      -6.759  13.876  67.358  1.00  0.00    -0.095 N  
HETATM   10  C   UNL     1      -6.027  12.819  68.087  1.00  0.00    -0.086 C  
HETATM   11  C   UNL     1      -8.176  13.855  67.608  1.00  0.00    -0.177 C  
HETATM   12  O   UNL     1      -8.984  13.237  66.930  1.00  0.00    -0.225 OA 
HETATM   13  C   UNL     1      -6.277  12.929  69.608  1.00  0.00    -0.114 C  
HETATM   14  C   UNL     1      -6.375  14.388  70.087  1.00  0.00    -0.158 C  
BRANCH  10  15
HETATM   15  C   UNL     1      -6.220  11.347  67.653  1.00  0.00    -0.062 C  
HETATM   16  O   UNL     1      -5.326  10.513  67.790  1.00  0.00    -0.040 OA 
HETATM   17  N   UNL     1      -7.412  11.061  67.044  1.00  0.00    -0.120 N  
HETATM   18  H   UNL     1      -8.072  11.818  66.873  1.00  0.00     0.000 HD 
BRANCH  17  19
HETATM   19  C   UNL     1      -7.771   9.705  66.628  1.00  0.00    -0.098 C  
HETATM   20  C   UNL     1      -9.287   9.488  66.551  1.00  0.00    -0.220 C  
HETATM   21  C   UNL     1      -9.904  10.280  65.404  1.00  0.00    -0.296 C  
HETATM   22  N   UNL     1      -9.270   9.960  64.122  1.00  0.00    -0.275 NA 
HETATM   23  H   UNL     1      -9.705  10.477  63.357  1.00  0.00     0.000 HD 
HETATM   24  C   UNL     1      -7.822  10.175  64.150  1.00  0.00    -0.145 C  
HETATM   25  C   UNL     1      -7.141   9.392  65.273  1.00  0.00    -0.092 C  
ENDBRANCH  17  19
ENDBRANCH  10  15
ENDBRANCH   3   6
TORSDOF 3
ENDMDL
MODEL      158
REMARK 921   NORMALIZED FREE ENERGY PREDICTED BY IDOCK:   -3.01 KCAL/MOL
REMARK 922        TOTAL FREE ENERGY PREDICTED BY IDOCK:   -4.40 KCAL/MOL
REMARK 923 INTER-LIGAND FREE ENERGY PREDICTED BY IDOCK:   -3.60 KCAL/MOL
REMARK 924 INTRA-LIGAND FREE ENERGY PREDICTED BY IDOCK:   -0.80 KCAL/MOL
REMARK 927      BINDING AFFINITY PREDICTED BY RF-SCORE:    0.00 PKD
ROOT
HETATM    1  O   UNL     1     -10.226  15.593  67.183  1.00  0.00    -0.259 OA 
HETATM    2  S   UNL     1      -8.676  15.948  67.459  1.00  0.00    -0.182 S  
HETATM    3  O   UNL     1      -7.863  14.602  67.027  1.00  0.00    -0.174 OA 
HETATM    4  O   UNL     1      -8.533  16.162  68.886  1.00  0.00    -0.215 OA 
HETATM    5  O   UNL     1      -8.347  16.997  66.521  1.00  0.00    -0.230 OA 
ENDROOT
BRANCH   3   6
HETATM    6  N   UNL     1      -7.889  13.499  67.969  1.00  0.00    -0.132 N  
HETATM    7  C   UNL     1      -6.513  13.266  68.410  1.00  0.00    -0.091 C  
HETATM    8  C   UNL     1      -5.965  12.492  67.227  1.00  0.00    -0.110 C  
HETATM    9  N   UNL     1      -7.056  11.552  67.009  1.00  0.00    -0.139 N  
HETATM   10  C   UNL     1      -7.036  10.443  67.986  1.00  0.00    -0.082 C  
HETATM   11  C   UNL     1      -8.229  12.380  67.119  1.00  0.00    -0.176 C  
HETATM   12  O   UNL     1      -9.260  12.197  66.490  1.00  0.00    -0.212 OA 
HETATM   13  C   UNL     1      -7.144  10.983  69.429  1.00  0.00    -0.128 C  
HETATM   14  C   UNL     1      -6.385  12.308  69.624  1.00  0.00    -0.111 C  
BRANCH  10  15
HETATM   15  C   UNL     1      -8.041   9.280  67.810  1.00  0.00    -0.104 C  
HETATM   16  O   UNL     1      -8.319   8.832  66.698  1.00  0.00    -0.106 OA 
HETATM   17  N   UNL     1      -8.648   8.843  68.956  1.00  0.00    -0.136 N  
HETATM   18  H   UNL     1      -8.445   9.322  69.834  1.00  0.00     0.000 HD 
BRANCH  17  19
HETATM   19  C   UNL     1      -9.578   7.714  68.968  1.00  0.00    -0.151 C  
HETATM   20  C   UNL     1      -8.904   6.390  69.348  1.00  0.00    -0.132 C  
HETATM   21  C   UNL     1      -8.478   6.386  70.812  1.00  0.00    -0.135 C  
HETATM   22  N   UNL     1      -9.604   6.669  71.706  1.00  0.00    -0.159 NA 
HETATM   23  H   UNL     1      -9.315   6.640  72.684  1.00  0.00     0.000 HD 
HETATM   24  C   UNL     1     -10.262   7.937  71.385  1.00  0.00    -0.190 C  
HETATM   25  C   UNL     1     -10.728   7.997  69.931  1.00  0.00    -0.242 C  
ENDBRANCH  17  19
ENDBRANCH  10  15
ENDBRANCH   3   6
TORSDOF 3
ENDMDL
MODEL      159
REMARK 921   NORMALIZED FREE ENERGY PREDICTED BY IDOCK:   -2.94 KCAL/MOL
REMARK 922        TOTAL FREE ENERGY PREDICTED BY IDOCK:   -4.32 KCAL/MOL
REMARK 923 INTER-LIGAND FREE ENERGY PREDICTED BY IDOCK:   -4.81 KCAL/MOL
REMARK 924 INTRA-LIGAND FREE ENERGY PREDICTED BY IDOCK:    0.49 KCAL/MOL
REMARK 927      BINDING AFFINITY PREDICTED BY RF-SCORE:    0.00 PKD
ROOT
HETATM    1  O   UNL     1      -6.244  11.572  68.801  1.00  0.00    -0.048 OA 
HETATM    2  S   UNL     1      -6.287  12.205  67.317  1.00  0.00    -0.139 S  
HETATM    3  O   UNL     1      -7.693  13.029  67.262  1.00  0.00    -0.160 OA 
HETATM    4  O   UNL     1      -6.339  11.098  66.381  1.00  0.00    -0.127 OA 
HETATM    5  O   UNL     1      -5.201  13.157  67.271  1.00  0.00    -0.336 OA 
ENDROOT
BRANCH   3   6
HETATM    6  N   UNL     1      -8.898  12.244  67.078  1.00  0.00    -0.200 N  
HETATM    7  C   UNL     1      -9.939  13.147  66.583  1.00  0.00    -0.270 C  
HETATM    8  C   UNL     1     -10.353  13.831  67.872  1.00  0.00    -0.244 C  
HETATM    9  N   UNL     1     -10.449  12.678  68.755  1.00  0.00    -0.188 N  
HETATM   10  C   UNL     1     -11.696  11.914  68.536  1.00  0.00    -0.330 C  
HETATM   11  C   UNL     1      -9.264  11.923  68.439  1.00  0.00    -0.173 C  
HETATM   12  O   UNL     1      -8.645  11.247  69.247  1.00  0.00     0.038 OA 
HETATM   13  C   UNL     1     -11.784  11.415  67.077  1.00  0.00     0.001 C  
HETATM   14  C   UNL     1     -11.215  12.429  66.069  1.00  0.00    -0.374 C  
BRANCH  10  15
HETATM   15  C   UNL     1     -12.025  10.740  69.488  1.00  0.00    -0.292 C  
HETATM   16  O   UNL     1     -12.961  10.798  70.284  1.00  0.00    -0.257 OA 
HETATM   17  N   UNL     1     -11.164   9.677  69.436  1.00  0.00    -0.420 N  
HETATM   18  H   UNL     1     -10.351   9.731  68.823  1.00  0.00     0.000 HD 
BRANCH  17  19
HETATM   19  C   UNL     1     -11.369   8.465  70.229  1.00  0.00    -0.129 C  
HETATM   20  C   UNL     1     -10.766   7.215  69.575  1.00  0.00    -0.255 C  
HETATM   21  C   UNL     1      -9.242   7.269  69.578  1.00  0.00    -0.149 C  
HETATM   22  N   UNL     1      -8.708   7.454  70.930  1.00  0.00    -0.142 NA 
HETATM   23  H   UNL     1      -7.688   7.464  70.925  1.00  0.00     0.000 HD 
HETATM   24  C   UNL     1      -9.246   8.650  71.580  1.00  0.00    -0.246 C  
HETATM   25  C   UNL     1     -10.774   8.649  71.624  1.00  0.00    -0.374 C  
ENDBRANCH  17  19
ENDBRANCH  10  15
ENDBRANCH   3   6
TORSDOF 3
ENDMDL
MODEL      160
REMARK 921   NORMALIZED FREE ENERGY PREDICTED BY IDOCK:   -2.92 KCAL/MOL
REMARK 922        TOTAL FREE ENERGY PREDICTED BY IDOCK:   -4.30 KCAL/MOL
REMARK 923 INTER-LIGAND FREE ENERGY PREDICTED BY IDOCK:   -4.09 KCAL/MOL
REMARK 924 INTRA-LIGAND FREE ENERGY PREDICTED BY IDOCK:   -0.20 KCAL/MOL
REMARK 927      BINDING AFFINITY PREDICTED BY RF-SCORE:    0.00 PKD
ROOT
HETATM    1  O   UNL     1     -12.267  13.663  68.949  1.00  0.00    -0.336 OA 
HETATM    2  S   UNL     1     -11.007  14.065  68.025  1.00  0.00    -0.259 S  
HETATM    3  O   UNL     1     -10.286  12.646  67.671  1.00  0.00    -0.215 OA 
HETATM    4  O   UNL     1     -10.117  14.869  68.840  1.00  0.00    -0.224 OA 
HETATM    5  O   UNL     1     -11.575  14.600  66.809  1.00  0.00    -0.365 OA 
ENDROOT
BRANCH   3   6
HETATM    6  N   UNL     1      -9.469  12.056  68.714  1.00  0.00    -0.039 N  
HETATM    7  C   UNL     1      -8.260  11.528  68.079  1.00  0.00    -0.143 C  
HETATM    8  C   UNL     1      -8.791  10.232  67.499  1.00  0.00    -0.128 C  
HETATM    9  N   UNL     1      -9.551   9.734  68.637  1.00  0.00    -0.148 N  
HETATM   10  C   UNL     1      -8.677   9.136  69.668  1.00  0.00    -0.145 C  
HETATM   11  C   UNL     1     -10.251  10.903  69.101  1.00  0.00    -0.195 C  
HETATM   12  O   UNL     1     -11.362  10.882  69.610  1.00  0.00    -0.245 OA 
HETATM   13  C   UNL     1      -7.653  10.171  70.186  1.00  0.00    -0.119 C  
HETATM   14  C   UNL     1      -7.147  11.109  69.075  1.00  0.00    -0.113 C  
BRANCH  10  15
HETATM   15  C   UNL     1      -9.332   8.432  70.880  1.00  0.00    -0.166 C  
HETATM   16  O   UNL     1     -10.071   9.037  71.655  1.00  0.00    -0.316 OA 
HETATM   17  N   UNL     1      -8.974   7.124  71.069  1.00  0.00    -0.149 N  
HETATM   18  H   UNL     1      -8.282   6.708  70.447  1.00  0.00     0.000 HD 
BRANCH  17  19
HETATM   19  C   UNL     1      -9.549   6.302  72.134  1.00  0.00    -0.150 C  
HETATM   20  C   UNL     1      -9.947   4.900  71.655  1.00  0.00    -0.255 C  
HETATM   21  C   UNL     1      -8.720   4.061  71.318  1.00  0.00    -0.090 C  
HETATM   22  N   UNL     1      -7.792   3.977  72.449  1.00  0.00    -0.079 NA 
HETATM   23  H   UNL     1      -6.986   3.394  72.222  1.00  0.00     0.000 HD 
HETATM   24  C   UNL     1      -7.373   5.298  72.921  1.00  0.00    -0.091 C  
HETATM   25  C   UNL     1      -8.561   6.185  73.292  1.00  0.00    -0.123 C  
ENDBRANCH  17  19
ENDBRANCH  10  15
ENDBRANCH   3   6
TORSDOF 3
ENDMDL
MODEL      161
REMARK 921   NORMALIZED FREE ENERGY PREDICTED BY IDOCK:   -2.89 KCAL/MOL
REMARK 922        TOTAL FREE ENERGY PREDICTED BY IDOCK:   -4.26 KCAL/MOL
REMARK 923 INTER-LIGAND FREE ENERGY PREDICTED BY IDOCK:   -3.61 KCAL/MOL
REMARK 924 INTRA-LIGAND FREE ENERGY PREDICTED BY IDOCK:   -0.65 KCAL/MOL
REMARK 927      BINDING AFFINITY PREDICTED BY RF-SCORE:    0.00 PKD
ROOT
HETATM    1  O   UNL     1      -7.724   8.237  65.200  1.00  0.00    -0.091 OA 
HETATM    2  S   UNL     1      -7.734   9.841  65.023  1.00  0.00    -0.132 S  
HETATM    3  O   UNL     1      -7.700  10.424  66.546  1.00  0.00    -0.112 OA 
HETATM    4  O   UNL     1      -8.994  10.195  64.398  1.00  0.00    -0.193 OA 
HETATM    5  O   UNL     1      -6.479  10.167  64.385  1.00  0.00    -0.126 OA 
ENDROOT
BRANCH   3   6
HETATM    6  N   UNL     1      -8.949  10.390  67.281  1.00  0.00    -0.135 N  
HETATM    7  C   UNL     1      -9.070  11.659  68.001  1.00  0.00    -0.177 C  
HETATM    8  C   UNL     1      -8.150  11.402  69.179  1.00  0.00     0.082 C  
HETATM    9  N   UNL     1      -8.581  10.062  69.553  1.00  0.00    -0.176 N  
HETATM   10  C   UNL     1      -9.853  10.079  70.306  1.00  0.00    -0.085 C  
HETATM   11  C   UNL     1      -8.686   9.385  68.287  1.00  0.00    -0.124 C  
HETATM   12  O   UNL     1      -8.459   8.196  68.123  1.00  0.00    -0.125 OA 
HETATM   13  C   UNL     1     -10.976  10.734  69.470  1.00  0.00    -0.317 C  
HETATM   14  C   UNL     1     -10.470  11.912  68.619  1.00  0.00    -0.231 C  
BRANCH  10  15
HETATM   15  C   UNL     1     -10.381   8.753  70.903  1.00  0.00    -0.223 C  
HETATM   16  O   UNL     1     -11.508   8.670  71.391  1.00  0.00    -0.259 OA 
HETATM   17  N   UNL     1      -9.490   7.715  70.920  1.00  0.00    -0.164 N  
HETATM   18  H   UNL     1      -8.539   7.877  70.588  1.00  0.00     0.000 HD 
BRANCH  17  19
HETATM   19  C   UNL     1      -9.852   6.381  71.397  1.00  0.00    -0.176 C  
HETATM   20  C   UNL     1     -10.726   5.608  70.402  1.00  0.00    -0.352 C  
HETATM   21  C   UNL     1      -9.939   5.229  69.152  1.00  0.00    -0.205 C  
HETATM   22  N   UNL     1      -8.733   4.465  69.482  1.00  0.00    -0.080 NA 
HETATM   23  H   UNL     1      -8.226   4.194  68.639  1.00  0.00     0.000 HD 
HETATM   24  C   UNL     1      -7.862   5.180  70.417  1.00  0.00    -0.075 C  
HETATM   25  C   UNL     1      -8.591   5.576  71.701  1.00  0.00    -0.132 C  
ENDBRANCH  17  19
ENDBRANCH  10  15
ENDBRANCH   3   6
TORSDOF 3
ENDMDL
MODEL      162
REMARK 921   NORMALIZED FREE ENERGY PREDICTED BY IDOCK:   -2.89 KCAL/MOL
REMARK 922        TOTAL FREE ENERGY PREDICTED BY IDOCK:   -4.26 KCAL/MOL
REMARK 923 INTER-LIGAND FREE ENERGY PREDICTED BY IDOCK:   -3.45 KCAL/MOL
REMARK 924 INTRA-LIGAND FREE ENERGY PREDICTED BY IDOCK:   -0.81 KCAL/MOL
REMARK 927      BINDING AFFINITY PREDICTED BY RF-SCORE:    0.00 PKD
ROOT
HETATM    1  O   UNL     1      -9.596   4.709  66.942  1.00  0.00    -0.153 OA 
HETATM    2  S   UNL     1      -8.893   3.258  67.012  1.00  0.00    -0.150 S  
HETATM    3  O   UNL     1      -9.346   2.651  68.456  1.00  0.00    -0.177 OA 
HETATM    4  O   UNL     1      -7.459   3.476  67.006  1.00  0.00    -0.073 OA 
HETATM    5  O   UNL     1      -9.522   2.474  65.974  1.00  0.00    -0.018 OA 
ENDROOT
BRANCH   3   6
HETATM    6  N   UNL     1      -8.650   3.163  69.621  1.00  0.00    -0.061 N  
HETATM    7  C   UNL     1      -8.220   2.012  70.417  1.00  0.00    -0.041 C  
HETATM    8  C   UNL     1      -9.517   1.652  71.114  1.00  0.00    -0.125 C  
HETATM    9  N   UNL     1      -9.958   2.975  71.534  1.00  0.00    -0.120 N  
HETATM   10  C   UNL     1      -9.226   3.450  72.727  1.00  0.00    -0.092 C  
HETATM   11  C   UNL     1      -9.720   3.785  70.368  1.00  0.00    -0.154 C  
HETATM   12  O   UNL     1     -10.407   4.743  70.045  1.00  0.00    -0.249 OA 
HETATM   13  C   UNL     1      -7.707   3.511  72.451  1.00  0.00    -0.063 C  
HETATM   14  C   UNL     1      -7.223   2.359  71.554  1.00  0.00    -0.032 C  
BRANCH  10  15
HETATM   15  C   UNL     1      -9.668   4.776  73.390  1.00  0.00    -0.136 C  
HETATM   16  O   UNL     1     -10.440   4.792  74.348  1.00  0.00    -0.260 OA 
HETATM   17  N   UNL     1      -9.206   5.919  72.795  1.00  0.00    -0.142 N  
HETATM   18  H   UNL     1      -8.648   5.840  71.945  1.00  0.00     0.000 HD 
BRANCH  17  19
HETATM   19  C   UNL     1      -9.486   7.250  73.333  1.00  0.00    -0.208 C  
HETATM   20  C   UNL     1      -8.479   7.681  74.407  1.00  0.00    -0.259 C  
HETATM   21  C   UNL     1      -7.101   7.933  73.806  1.00  0.00    -0.126 C  
HETATM   22  N   UNL     1      -7.153   8.916  72.721  1.00  0.00    -0.331 NA 
HETATM   23  H   UNL     1      -6.224   9.096  72.341  1.00  0.00     0.000 HD 
HETATM   24  C   UNL     1      -8.091   8.528  71.665  1.00  0.00    -0.150 C  
HETATM   25  C   UNL     1      -9.499   8.277  72.203  1.00  0.00    -0.328 C  
ENDBRANCH  17  19
ENDBRANCH  10  15
ENDBRANCH   3   6
TORSDOF 3
ENDMDL
MODEL      163
REMARK 921   NORMALIZED FREE ENERGY PREDICTED BY IDOCK:   -2.89 KCAL/MOL
REMARK 922        TOTAL FREE ENERGY PREDICTED BY IDOCK:   -4.26 KCAL/MOL
REMARK 923 INTER-LIGAND FREE ENERGY PREDICTED BY IDOCK:   -3.42 KCAL/MOL
REMARK 924 INTRA-LIGAND FREE ENERGY PREDICTED BY IDOCK:   -0.83 KCAL/MOL
REMARK 927      BINDING AFFINITY PREDICTED BY RF-SCORE:    0.00 PKD
ROOT
HETATM    1  O   UNL     1     -12.113   6.043  72.297  1.00  0.00    -0.301 OA 
HETATM    2  S   UNL     1     -12.407   7.526  71.732  1.00  0.00    -0.332 S  
HETATM    3  O   UNL     1     -11.774   7.527  70.230  1.00  0.00    -0.166 OA 
HETATM    4  O   UNL     1     -11.672   8.456  72.567  1.00  0.00    -0.388 OA 
HETATM    5  O   UNL     1     -13.845   7.618  71.618  1.00  0.00    -0.375 OA 
ENDROOT
BRANCH   3   6
HETATM    6  N   UNL     1     -10.333   7.661  70.133  1.00  0.00    -0.212 N  
HETATM    7  C   UNL     1     -10.054   8.915  69.432  1.00  0.00    -0.202 C  
HETATM    8  C   UNL     1     -10.301   8.494  67.996  1.00  0.00    -0.217 C  
HETATM    9  N   UNL     1      -9.589   7.225  67.975  1.00  0.00    -0.138 N  
HETATM   10  C   UNL     1      -8.126   7.411  67.868  1.00  0.00    -0.119 C  
HETATM   11  C   UNL     1      -9.988   6.603  69.210  1.00  0.00    -0.158 C  
HETATM   12  O   UNL     1     -10.119   5.397  69.362  1.00  0.00    -0.191 OA 
HETATM   13  C   UNL     1      -7.593   8.246  69.054  1.00  0.00    -0.089 C  
HETATM   14  C   UNL     1      -8.568   9.357  69.482  1.00  0.00    -0.158 C  
BRANCH  10  15
HETATM   15  C   UNL     1      -7.229   6.164  67.690  1.00  0.00    -0.079 C  
HETATM   16  O   UNL     1      -6.725   5.882  66.604  1.00  0.00    -0.054 OA 
HETATM   17  N   UNL     1      -7.100   5.364  68.794  1.00  0.00    -0.060 N  
HETATM   18  H   UNL     1      -7.622   5.602  69.637  1.00  0.00     0.000 HD 
BRANCH  17  19
HETATM   19  C   UNL     1      -6.241   4.181  68.806  1.00  0.00    -0.032 C  
HETATM   20  C   UNL     1      -5.436   4.042  70.104  1.00  0.00    -0.012 C  
HETATM   21  C   UNL     1      -6.342   3.713  71.286  1.00  0.00    -0.018 C  
HETATM   22  N   UNL     1      -7.139   2.508  71.040  1.00  0.00    -0.033 NA 
HETATM   23  H   UNL     1      -7.724   2.282  71.844  1.00  0.00     0.000 HD 
HETATM   24  C   UNL     1      -7.938   2.612  69.817  1.00  0.00    -0.041 C  
HETATM   25  C   UNL     1      -7.082   2.925  68.590  1.00  0.00    -0.048 C  
ENDBRANCH  17  19
ENDBRANCH  10  15
ENDBRANCH   3   6
TORSDOF 3
ENDMDL
MODEL      164
REMARK 921   NORMALIZED FREE ENERGY PREDICTED BY IDOCK:   -2.88 KCAL/MOL
REMARK 922        TOTAL FREE ENERGY PREDICTED BY IDOCK:   -4.25 KCAL/MOL
REMARK 923 INTER-LIGAND FREE ENERGY PREDICTED BY IDOCK:   -3.56 KCAL/MOL
REMARK 924 INTRA-LIGAND FREE ENERGY PREDICTED BY IDOCK:   -0.69 KCAL/MOL
REMARK 927      BINDING AFFINITY PREDICTED BY RF-SCORE:    0.00 PKD
ROOT
HETATM    1  O   UNL     1      -9.040   4.640  64.612  1.00  0.00    -0.155 OA 
HETATM    2  S   UNL     1      -8.875   3.387  65.615  1.00  0.00    -0.141 S  
HETATM    3  O   UNL     1      -9.617   3.859  66.989  1.00  0.00    -0.198 OA 
HETATM    4  O   UNL     1      -7.455   3.223  65.865  1.00  0.00    -0.071 OA 
HETATM    5  O   UNL     1      -9.647   2.317  65.028  1.00  0.00    -0.068 OA 
ENDROOT
BRANCH   3   6
HETATM    6  N   UNL     1      -8.883   4.776  67.840  1.00  0.00    -0.103 N  
HETATM    7  C   UNL     1      -8.525   4.051  69.060  1.00  0.00    -0.077 C  
HETATM    8  C   UNL     1      -9.839   4.104  69.814  1.00  0.00    -0.150 C  
HETATM    9  N   UNL     1     -10.191   5.503  69.619  1.00  0.00    -0.240 N  
HETATM   10  C   UNL     1      -9.424   6.397  70.513  1.00  0.00    -0.162 C  
HETATM   11  C   UNL     1      -9.906   5.722  68.225  1.00  0.00    -0.139 C  
HETATM   12  O   UNL     1     -10.531   6.490  67.509  1.00  0.00    -0.177 OA 
HETATM   13  C   UNL     1      -7.906   6.240  70.272  1.00  0.00    -0.103 C  
HETATM   14  C   UNL     1      -7.502   4.788  69.964  1.00  0.00    -0.055 C  
BRANCH  10  15
HETATM   15  C   UNL     1      -9.775   7.903  70.537  1.00  0.00    -0.174 C  
HETATM   16  O   UNL     1     -10.204   8.448  71.552  1.00  0.00    -0.197 OA 
HETATM   17  N   UNL     1      -9.650   8.559  69.342  1.00  0.00    -0.169 N  
HETATM   18  H   UNL     1      -9.381   8.028  68.514  1.00  0.00     0.000 HD 
BRANCH  17  19
HETATM   19  C   UNL     1      -9.887   9.997  69.210  1.00  0.00    -0.214 C  
HETATM   20  C   UNL     1      -8.607  10.788  68.914  1.00  0.00    -0.155 C  
HETATM   21  C   UNL     1      -8.080  10.486  67.515  1.00  0.00    -0.107 C  
HETATM   22  N   UNL     1      -9.094  10.738  66.487  1.00  0.00    -0.162 NA 
HETATM   23  H   UNL     1      -8.726  10.557  65.554  1.00  0.00     0.000 HD 
HETATM   24  C   UNL     1     -10.326   9.983  66.726  1.00  0.00    -0.217 C  
HETATM   25  C   UNL     1     -10.914  10.256  68.111  1.00  0.00    -0.328 C  
ENDBRANCH  17  19
ENDBRANCH  10  15
ENDBRANCH   3   6
TORSDOF 3
ENDMDL
MODEL      165
REMARK 921   NORMALIZED FREE ENERGY PREDICTED BY IDOCK:   -2.86 KCAL/MOL
REMARK 922        TOTAL FREE ENERGY PREDICTED BY IDOCK:   -4.23 KCAL/MOL
REMARK 923 INTER-LIGAND FREE ENERGY PREDICTED BY IDOCK:   -3.42 KCAL/MOL
REMARK 924 INTRA-LIGAND FREE ENERGY PREDICTED BY IDOCK:   -0.81 KCAL/MOL
REMARK 927      BINDING AFFINITY PREDICTED BY RF-SCORE:    0.00 PKD
ROOT
HETATM    1  O   UNL     1     -10.672   9.058  72.195  1.00  0.00    -0.332 OA 
HETATM    2  S   UNL     1     -10.824   7.479  72.492  1.00  0.00    -0.330 S  
HETATM    3  O   UNL     1      -9.479   6.810  71.858  1.00  0.00    -0.148 OA 
HETATM    4  O   UNL     1     -11.986   7.015  71.758  1.00  0.00    -0.294 OA 
HETATM    5  O   UNL     1     -10.762   7.348  73.929  1.00  0.00    -0.319 OA 
ENDROOT
BRANCH   3   6
HETATM    6  N   UNL     1      -9.453   6.645  70.417  1.00  0.00    -0.166 N  
HETATM    7  C   UNL     1      -9.411   5.209  70.140  1.00  0.00    -0.168 C  
HETATM    8  C   UNL     1      -7.944   4.917  70.390  1.00  0.00    -0.070 C  
HETATM    9  N   UNL     1      -7.336   6.031  69.678  1.00  0.00    -0.077 N  
HETATM   10  C   UNL     1      -7.326   5.815  68.215  1.00  0.00    -0.080 C  
HETATM   11  C   UNL     1      -8.144   7.155  70.075  1.00  0.00    -0.127 C  
HETATM   12  O   UNL     1      -7.721   8.294  70.205  1.00  0.00    -0.080 OA 
HETATM   13  C   UNL     1      -8.763   5.623  67.680  1.00  0.00    -0.107 C  
HETATM   14  C   UNL     1      -9.657   4.838  68.654  1.00  0.00    -0.223 C  
BRANCH  10  15
HETATM   15  C   UNL     1      -6.589   6.837  67.318  1.00  0.00    -0.054 C  
HETATM   16  O   UNL     1      -5.393   6.718  67.054  1.00  0.00    -0.012 OA 
HETATM   17  N   UNL     1      -7.333   7.911  66.909  1.00  0.00    -0.088 N  
HETATM   18  H   UNL     1      -8.292   8.001  67.243  1.00  0.00     0.000 HD 
BRANCH  17  19
HETATM   19  C   UNL     1      -6.800   8.935  66.010  1.00  0.00    -0.076 C  
HETATM   20  C   UNL     1      -6.885   8.533  64.533  1.00  0.00    -0.069 C  
HETATM   21  C   UNL     1      -8.331   8.496  64.051  1.00  0.00    -0.093 C  
HETATM   22  N   UNL     1      -9.012   9.774  64.280  1.00  0.00    -0.225 NA 
HETATM   23  H   UNL     1      -9.971   9.748  63.933  1.00  0.00     0.000 HD 
HETATM   24  C   UNL     1      -8.969  10.180  65.686  1.00  0.00    -0.171 C  
HETATM   25  C   UNL     1      -7.541  10.252  66.225  1.00  0.00    -0.117 C  
ENDBRANCH  17  19
ENDBRANCH  10  15
ENDBRANCH   3   6
TORSDOF 3
ENDMDL
MODEL      166
REMARK 921   NORMALIZED FREE ENERGY PREDICTED BY IDOCK:   -2.84 KCAL/MOL
REMARK 922        TOTAL FREE ENERGY PREDICTED BY IDOCK:   -4.20 KCAL/MOL
REMARK 923 INTER-LIGAND FREE ENERGY PREDICTED BY IDOCK:   -3.37 KCAL/MOL
REMARK 924 INTRA-LIGAND FREE ENERGY PREDICTED BY IDOCK:   -0.84 KCAL/MOL
REMARK 927      BINDING AFFINITY PREDICTED BY RF-SCORE:    0.00 PKD
ROOT
HETATM    1  O   UNL     1      -8.462   3.683  65.544  1.00  0.00    -0.107 OA 
HETATM    2  S   UNL     1      -8.504   3.042  67.024  1.00  0.00    -0.103 S  
HETATM    3  O   UNL     1      -9.517   4.007  67.862  1.00  0.00    -0.165 OA 
HETATM    4  O   UNL     1      -7.167   3.150  67.576  1.00  0.00    -0.053 OA 
HETATM    5  O   UNL     1      -9.133   1.750  66.869  1.00  0.00    -0.122 OA 
ENDROOT
BRANCH   3   6
HETATM    6  N   UNL     1      -8.980   5.277  68.311  1.00  0.00    -0.108 N  
HETATM    7  C   UNL     1      -9.278   5.399  69.739  1.00  0.00    -0.132 C  
HETATM    8  C   UNL     1     -10.734   5.818  69.688  1.00  0.00    -0.346 C  
HETATM    9  N   UNL     1     -10.672   6.835  68.648  1.00  0.00    -0.229 N  
HETATM   10  C   UNL     1     -10.127   8.112  69.154  1.00  0.00    -0.202 C  
HETATM   11  C   UNL     1      -9.841   6.227  67.642  1.00  0.00    -0.121 C  
HETATM   12  O   UNL     1      -9.965   6.417  66.442  1.00  0.00    -0.134 OA 
HETATM   13  C   UNL     1      -8.703   7.913  69.723  1.00  0.00    -0.137 C  
HETATM   14  C   UNL     1      -8.539   6.565  70.447  1.00  0.00    -0.146 C  
BRANCH  10  15
HETATM   15  C   UNL     1     -10.124   9.343  68.217  1.00  0.00    -0.183 C  
HETATM   16  O   UNL     1     -11.169   9.887  67.866  1.00  0.00    -0.226 OA 
HETATM   17  N   UNL     1      -8.896   9.729  67.750  1.00  0.00    -0.129 N  
HETATM   18  H   UNL     1      -8.077   9.176  68.002  1.00  0.00     0.000 HD 
BRANCH  17  19
HETATM   19  C   UNL     1      -8.717  10.907  66.902  1.00  0.00    -0.144 C  
HETATM   20  C   UNL     1      -8.366  12.168  67.700  1.00  0.00    -0.163 C  
HETATM   21  C   UNL     1      -6.968  12.071  68.303  1.00  0.00    -0.075 C  
HETATM   22  N   UNL     1      -5.953  11.808  67.280  1.00  0.00    -0.107 NA 
HETATM   23  H   UNL     1      -5.019  11.769  67.688  1.00  0.00     0.000 HD 
HETATM   24  C   UNL     1      -6.245  10.598  66.509  1.00  0.00    -0.097 C  
HETATM   25  C   UNL     1      -7.630  10.640  65.864  1.00  0.00    -0.138 C  
ENDBRANCH  17  19
ENDBRANCH  10  15
ENDBRANCH   3   6
TORSDOF 3
ENDMDL
MODEL      167
REMARK 921   NORMALIZED FREE ENERGY PREDICTED BY IDOCK:   -2.82 KCAL/MOL
REMARK 922        TOTAL FREE ENERGY PREDICTED BY IDOCK:   -4.18 KCAL/MOL
REMARK 923 INTER-LIGAND FREE ENERGY PREDICTED BY IDOCK:   -4.08 KCAL/MOL
REMARK 924 INTRA-LIGAND FREE ENERGY PREDICTED BY IDOCK:   -0.10 KCAL/MOL
REMARK 927      BINDING AFFINITY PREDICTED BY RF-SCORE:    0.00 PKD
ROOT
HETATM    1  O   UNL     1     -11.329   8.090  71.805  1.00  0.00    -0.250 OA 
HETATM    2  S   UNL     1     -10.595   7.254  70.637  1.00  0.00    -0.230 S  
HETATM    3  O   UNL     1      -9.364   8.209  70.158  1.00  0.00    -0.158 OA 
HETATM    4  O   UNL     1     -11.546   7.110  69.552  1.00  0.00    -0.020 OA 
HETATM    5  O   UNL     1     -10.039   6.089  71.287  1.00  0.00    -0.184 OA 
ENDROOT
BRANCH   3   6
HETATM    6  N   UNL     1      -9.705   9.322  69.294  1.00  0.00    -0.165 N  
HETATM    7  C   UNL     1     -10.110   8.767  68.002  1.00  0.00    -0.196 C  
HETATM    8  C   UNL     1      -8.756   8.462  67.391  1.00  0.00    -0.135 C  
HETATM    9  N   UNL     1      -8.049   9.694  67.706  1.00  0.00    -0.112 N  
HETATM   10  C   UNL     1      -8.423  10.796  66.794  1.00  0.00    -0.134 C  
HETATM   11  C   UNL     1      -8.419   9.945  69.074  1.00  0.00    -0.136 C  
HETATM   12  O   UNL     1      -7.690  10.480  69.896  1.00  0.00    -0.137 OA 
HETATM   13  C   UNL     1      -9.941  11.076  66.868  1.00  0.00    -0.231 C  
HETATM   14  C   UNL     1     -10.771   9.793  67.044  1.00  0.00    -0.236 C  
BRANCH  10  15
HETATM   15  C   UNL     1      -7.661  12.138  66.899  1.00  0.00    -0.029 C  
HETATM   16  O   UNL     1      -6.434  12.191  66.815  1.00  0.00    -0.078 OA 
HETATM   17  N   UNL     1      -8.431  13.238  67.165  1.00  0.00    -0.293 N  
HETATM   18  H   UNL     1      -9.432  13.113  67.319  1.00  0.00     0.000 HD 
BRANCH  17  19
HETATM   19  C   UNL     1      -7.871  14.587  67.237  1.00  0.00    -0.173 C  
HETATM   20  C   UNL     1      -8.719  15.626  66.493  1.00  0.00    -0.342 C  
HETATM   21  C   UNL     1     -10.049  15.863  67.200  1.00  0.00    -0.264 C  
HETATM   22  N   UNL     1      -9.857  16.257  68.599  1.00  0.00    -0.222 NA 
HETATM   23  H   UNL     1     -10.751  16.437  69.057  1.00  0.00     0.000 HD 
HETATM   24  C   UNL     1      -9.067  15.278  69.347  1.00  0.00    -0.228 C  
HETATM   25  C   UNL     1      -7.711  15.008  68.696  1.00  0.00    -0.128 C  
ENDBRANCH  17  19
ENDBRANCH  10  15
ENDBRANCH   3   6
TORSDOF 3
ENDMDL
MODEL      168
REMARK 921   NORMALIZED FREE ENERGY PREDICTED BY IDOCK:   -2.81 KCAL/MOL
REMARK 922        TOTAL FREE ENERGY PREDICTED BY IDOCK:   -4.16 KCAL/MOL
REMARK 923 INTER-LIGAND FREE ENERGY PREDICTED BY IDOCK:   -3.44 KCAL/MOL
REMARK 924 INTRA-LIGAND FREE ENERGY PREDICTED BY IDOCK:   -0.73 KCAL/MOL
REMARK 927      BINDING AFFINITY PREDICTED BY RF-SCORE:    0.00 PKD
ROOT
HETATM    1  O   UNL     1     -12.660   5.893  72.439  1.00  0.00    -0.091 OA 
HETATM    2  S   UNL     1     -12.775   7.331  71.717  1.00  0.00    -0.310 S  
HETATM    3  O   UNL     1     -11.950   7.159  70.322  1.00  0.00    -0.198 OA 
HETATM    4  O   UNL     1     -12.096   8.292  72.565  1.00  0.00    -0.385 OA 
HETATM    5  O   UNL     1     -14.175   7.492  71.398  1.00  0.00    -0.430 OA 
ENDROOT
BRANCH   3   6
HETATM    6  N   UNL     1     -10.503   7.202  70.415  1.00  0.00    -0.214 N  
HETATM    7  C   UNL     1     -10.051   8.383  69.678  1.00  0.00    -0.199 C  
HETATM    8  C   UNL     1     -10.133   7.874  68.253  1.00  0.00    -0.194 C  
HETATM    9  N   UNL     1      -9.510   6.567  68.411  1.00  0.00    -0.121 N  
HETATM   10  C   UNL     1      -8.037   6.662  68.493  1.00  0.00    -0.119 C  
HETATM   11  C   UNL     1     -10.111   6.062  69.618  1.00  0.00    -0.190 C  
HETATM   12  O   UNL     1     -10.340   4.880  69.828  1.00  0.00    -0.260 OA 
HETATM   13  C   UNL     1      -7.611   7.549  69.684  1.00  0.00    -0.094 C  
HETATM   14  C   UNL     1      -8.558   8.742  69.902  1.00  0.00    -0.133 C  
BRANCH  10  15
HETATM   15  C   UNL     1      -7.210   5.355  68.520  1.00  0.00    -0.074 C  
HETATM   16  O   UNL     1      -6.274   5.202  69.304  1.00  0.00    -0.030 OA 
HETATM   17  N   UNL     1      -7.538   4.426  67.570  1.00  0.00    -0.077 N  
HETATM   18  H   UNL     1      -8.260   4.654  66.887  1.00  0.00     0.000 HD 
BRANCH  17  19
HETATM   19  C   UNL     1      -6.889   3.117  67.500  1.00  0.00    -0.046 C  
HETATM   20  C   UNL     1      -7.875   1.978  67.209  1.00  0.00    -0.065 C  
HETATM   21  C   UNL     1      -8.424   2.069  65.789  1.00  0.00    -0.101 C  
HETATM   22  N   UNL     1      -7.350   2.090  64.793  1.00  0.00    -0.060 NA 
HETATM   23  H   UNL     1      -7.726   2.127  63.845  1.00  0.00     0.000 HD 
HETATM   24  C   UNL     1      -6.398   3.179  65.026  1.00  0.00    -0.024 C  
HETATM   25  C   UNL     1      -5.798   3.133  66.432  1.00  0.00    -0.023 C  
ENDBRANCH  17  19
ENDBRANCH  10  15
ENDBRANCH   3   6
TORSDOF 3
ENDMDL
MODEL      169
REMARK 921   NORMALIZED FREE ENERGY PREDICTED BY IDOCK:   -2.78 KCAL/MOL
REMARK 922        TOTAL FREE ENERGY PREDICTED BY IDOCK:   -4.13 KCAL/MOL
REMARK 923 INTER-LIGAND FREE ENERGY PREDICTED BY IDOCK:   -4.28 KCAL/MOL
REMARK 924 INTRA-LIGAND FREE ENERGY PREDICTED BY IDOCK:    0.15 KCAL/MOL
REMARK 927      BINDING AFFINITY PREDICTED BY RF-SCORE:    0.00 PKD
ROOT
HETATM    1  O   UNL     1     -12.427  10.981  69.832  1.00  0.00    -0.299 OA 
HETATM    2  S   UNL     1     -12.872  10.628  71.342  1.00  0.00    -0.469 S  
HETATM    3  O   UNL     1     -11.670   9.689  71.917  1.00  0.00    -0.357 OA 
HETATM    4  O   UNL     1     -14.095   9.852  71.258  1.00  0.00     0.012 OA 
HETATM    5  O   UNL     1     -12.847  11.884  72.056  1.00  0.00    -0.310 OA 
ENDROOT
BRANCH   3   6
HETATM    6  N   UNL     1     -11.664   8.305  71.482  1.00  0.00    -0.280 N  
HETATM    7  C   UNL     1     -11.054   7.512  72.550  1.00  0.00    -0.321 C  
HETATM    8  C   UNL     1      -9.584   7.793  72.304  1.00  0.00    -0.176 C  
HETATM    9  N   UNL     1      -9.530   7.627  70.859  1.00  0.00    -0.164 N  
HETATM   10  C   UNL     1      -9.517   6.203  70.465  1.00  0.00    -0.164 C  
HETATM   11  C   UNL     1     -10.702   8.328  70.403  1.00  0.00    -0.232 C  
HETATM   12  O   UNL     1     -10.775   8.925  69.340  1.00  0.00    -0.228 OA 
HETATM   13  C   UNL     1     -10.778   5.479  70.988  1.00  0.00    -0.275 C  
HETATM   14  C   UNL     1     -11.214   5.978  72.377  1.00  0.00    -0.338 C  
BRANCH  10  15
HETATM   15  C   UNL     1      -9.318   5.846  68.973  1.00  0.00    -0.123 C  
HETATM   16  O   UNL     1     -10.175   5.232  68.338  1.00  0.00    -0.170 OA 
HETATM   17  N   UNL     1      -8.105   6.189  68.439  1.00  0.00    -0.107 N  
HETATM   18  H   UNL     1      -7.401   6.609  69.045  1.00  0.00     0.000 HD 
BRANCH  17  19
HETATM   19  C   UNL     1      -7.783   5.973  67.029  1.00  0.00    -0.101 C  
HETATM   20  C   UNL     1      -6.532   6.738  66.579  1.00  0.00    -0.043 C  
HETATM   21  C   UNL     1      -5.272   6.166  67.221  1.00  0.00    -0.005 C  
HETATM   22  N   UNL     1      -5.128   4.733  66.949  1.00  0.00    -0.007 NA 
HETATM   23  H   UNL     1      -4.271   4.364  67.361  1.00  0.00     0.000 HD 
HETATM   24  C   UNL     1      -6.297   3.966  67.383  1.00  0.00    -0.037 C  
HETATM   25  C   UNL     1      -7.594   4.482  66.760  1.00  0.00    -0.086 C  
ENDBRANCH  17  19
ENDBRANCH  10  15
ENDBRANCH   3   6
TORSDOF 3
ENDMDL
MODEL      170
REMARK 921   NORMALIZED FREE ENERGY PREDICTED BY IDOCK:   -2.74 KCAL/MOL
REMARK 922        TOTAL FREE ENERGY PREDICTED BY IDOCK:   -4.08 KCAL/MOL
REMARK 923 INTER-LIGAND FREE ENERGY PREDICTED BY IDOCK:   -4.37 KCAL/MOL
REMARK 924 INTRA-LIGAND FREE ENERGY PREDICTED BY IDOCK:    0.29 KCAL/MOL
REMARK 927      BINDING AFFINITY PREDICTED BY RF-SCORE:    0.00 PKD
ROOT
HETATM    1  O   UNL     1     -13.586  15.551  70.098  1.00  0.00     0.035 OA 
HETATM    2  S   UNL     1     -12.121  15.006  70.502  1.00  0.00    -0.357 S  
HETATM    3  O   UNL     1     -11.331  14.859  69.083  1.00  0.00    -0.260 OA 
HETATM    4  O   UNL     1     -12.301  13.694  71.094  1.00  0.00    -0.355 OA 
HETATM    5  O   UNL     1     -11.506  16.075  71.255  1.00  0.00    -0.407 OA 
ENDROOT
BRANCH   3   6
HETATM    6  N   UNL     1     -11.658  13.699  68.276  1.00  0.00    -0.316 N  
HETATM    7  C   UNL     1     -11.263  12.511  69.035  1.00  0.00    -0.268 C  
HETATM    8  C   UNL     1      -9.768  12.501  68.783  1.00  0.00     0.057 C  
HETATM    9  N   UNL     1      -9.748  12.752  67.349  1.00  0.00    -0.194 N  
HETATM   10  C   UNL     1     -10.079  11.541  66.570  1.00  0.00    -0.213 C  
HETATM   11  C   UNL     1     -10.714  13.808  67.187  1.00  0.00    -0.281 C  
HETATM   12  O   UNL     1     -10.636  14.687  66.342  1.00  0.00    -0.290 OA 
HETATM   13  C   UNL     1     -11.480  11.011  66.949  1.00  0.00     0.028 C  
HETATM   14  C   UNL     1     -11.788  11.174  68.448  1.00  0.00    -0.302 C  
BRANCH  10  15
HETATM   15  C   UNL     1      -9.965  11.595  65.028  1.00  0.00    -0.259 C  
HETATM   16  O   UNL     1     -10.810  12.166  64.339  1.00  0.00    -0.290 OA 
HETATM   17  N   UNL     1      -8.914  10.905  64.487  1.00  0.00    -0.310 N  
HETATM   18  H   UNL     1      -8.304  10.371  65.106  1.00  0.00     0.000 HD 
BRANCH  17  19
HETATM   19  C   UNL     1      -8.634  10.905  63.051  1.00  0.00    -0.129 C  
HETATM   20  C   UNL     1      -7.135  10.978  62.736  1.00  0.00     0.269 C  
HETATM   21  C   UNL     1      -6.421   9.691  63.136  1.00  0.00    -0.108 C  
HETATM   22  N   UNL     1      -7.026   8.516  62.503  1.00  0.00    -0.094 NA 
HETATM   23  H   UNL     1      -6.528   7.663  62.756  1.00  0.00     0.000 HD 
HETATM   24  C   UNL     1      -8.456   8.402  62.798  1.00  0.00    -0.080 C  
HETATM   25  C   UNL     1      -9.232   9.659  62.404  1.00  0.00    -0.248 C  
ENDBRANCH  17  19
ENDBRANCH  10  15
ENDBRANCH   3   6
TORSDOF 3
ENDMDL
MODEL      171
REMARK 921   NORMALIZED FREE ENERGY PREDICTED BY IDOCK:   -2.74 KCAL/MOL
REMARK 922        TOTAL FREE ENERGY PREDICTED BY IDOCK:   -4.08 KCAL/MOL
REMARK 923 INTER-LIGAND FREE ENERGY PREDICTED BY IDOCK:   -4.10 KCAL/MOL
REMARK 924 INTRA-LIGAND FREE ENERGY PREDICTED BY IDOCK:    0.01 KCAL/MOL
REMARK 927      BINDING AFFINITY PREDICTED BY RF-SCORE:    0.00 PKD
ROOT
HETATM    1  O   UNL     1      -7.828   8.673  72.253  1.00  0.00    -0.295 OA 
HETATM    2  S   UNL     1      -9.399   8.386  72.026  1.00  0.00    -0.285 S  
HETATM    3  O   UNL     1      -9.443   7.188  70.921  1.00  0.00    -0.160 OA 
HETATM    4  O   UNL     1      -9.976   9.589  71.458  1.00  0.00    -0.188 OA 
HETATM    5  O   UNL     1      -9.882   7.861  73.283  1.00  0.00    -0.293 OA 
ENDROOT
BRANCH   3   6
HETATM    6  N   UNL     1      -9.204   7.568  69.542  1.00  0.00    -0.147 N  
HETATM    7  C   UNL     1     -10.467   8.071  69.000  1.00  0.00    -0.199 C  
HETATM    8  C   UNL     1     -11.188   6.768  68.713  1.00  0.00    -0.104 C  
HETATM    9  N   UNL     1     -10.119   6.019  68.070  1.00  0.00    -0.146 N  
HETATM   10  C   UNL     1      -9.918   6.436  66.666  1.00  0.00    -0.149 C  
HETATM   11  C   UNL     1      -8.979   6.289  68.906  1.00  0.00    -0.126 C  
HETATM   12  O   UNL     1      -8.072   5.496  69.108  1.00  0.00    -0.093 OA 
HETATM   13  C   UNL     1      -9.572   7.940  66.585  1.00  0.00    -0.293 C  
HETATM   14  C   UNL     1     -10.335   8.779  67.625  1.00  0.00    -0.317 C  
BRANCH  10  15
HETATM   15  C   UNL     1      -8.917   5.645  65.792  1.00  0.00    -0.147 C  
HETATM   16  O   UNL     1      -7.705   5.689  66.000  1.00  0.00    -0.092 OA 
HETATM   17  N   UNL     1      -9.461   4.964  64.736  1.00  0.00    -0.350 N  
HETATM   18  H   UNL     1     -10.462   5.046  64.561  1.00  0.00     0.000 HD 
BRANCH  17  19
HETATM   19  C   UNL     1      -8.657   4.121  63.851  1.00  0.00    -0.111 C  
HETATM   20  C   UNL     1      -8.211   2.813  64.515  1.00  0.00    -0.086 C  
HETATM   21  C   UNL     1      -9.395   1.881  64.751  1.00  0.00    -0.100 C  
HETATM   22  N   UNL     1     -10.126   1.608  63.511  1.00  0.00    -0.127 NA 
HETATM   23  H   UNL     1     -10.901   0.965  63.674  1.00  0.00     0.000 HD 
HETATM   24  C   UNL     1     -10.586   2.835  62.858  1.00  0.00    -0.179 C  
HETATM   25  C   UNL     1      -9.440   3.808  62.578  1.00  0.00    -0.110 C  
ENDBRANCH  17  19
ENDBRANCH  10  15
ENDBRANCH   3   6
TORSDOF 3
ENDMDL
MODEL      172
REMARK 921   NORMALIZED FREE ENERGY PREDICTED BY IDOCK:   -2.73 KCAL/MOL
REMARK 922        TOTAL FREE ENERGY PREDICTED BY IDOCK:   -4.07 KCAL/MOL
REMARK 923 INTER-LIGAND FREE ENERGY PREDICTED BY IDOCK:   -3.73 KCAL/MOL
REMARK 924 INTRA-LIGAND FREE ENERGY PREDICTED BY IDOCK:   -0.34 KCAL/MOL
REMARK 927      BINDING AFFINITY PREDICTED BY RF-SCORE:    0.00 PKD
ROOT
HETATM    1  O   UNL     1     -11.070  16.089  71.333  1.00  0.00    -0.224 OA 
HETATM    2  S   UNL     1     -12.197  15.436  70.382  1.00  0.00    -0.411 S  
HETATM    3  O   UNL     1     -11.360  14.749  69.163  1.00  0.00    -0.253 OA 
HETATM    4  O   UNL     1     -13.002  16.525  69.862  1.00  0.00     1.084 OA 
HETATM    5  O   UNL     1     -12.802  14.384  71.166  1.00  0.00    -0.312 OA 
ENDROOT
BRANCH   3   6
HETATM    6  N   UNL     1     -10.858  15.642  68.136  1.00  0.00    -0.290 N  
HETATM    7  C   UNL     1     -11.031  14.970  66.848  1.00  0.00    -0.324 C  
HETATM    8  C   UNL     1      -9.850  14.020  66.865  1.00  0.00    -0.267 C  
HETATM    9  N   UNL     1      -8.803  14.921  67.324  1.00  0.00    -0.189 N  
HETATM   10  C   UNL     1      -8.319  15.805  66.242  1.00  0.00    -0.131 C  
HETATM   11  C   UNL     1      -9.436  15.641  68.398  1.00  0.00    -0.196 C  
HETATM   12  O   UNL     1      -8.852  16.048  69.391  1.00  0.00    -0.243 OA 
HETATM   13  C   UNL     1      -9.475  16.657  65.672  1.00  0.00     0.048 C  
HETATM   14  C   UNL     1     -10.806  15.885  65.615  1.00  0.00    -0.292 C  
BRANCH  10  15
HETATM   15  C   UNL     1      -7.109  16.727  66.521  1.00  0.00    -0.219 C  
HETATM   16  O   UNL     1      -5.984  16.271  66.724  1.00  0.00    -0.323 OA 
HETATM   17  N   UNL     1      -7.389  18.065  66.603  1.00  0.00    -0.207 N  
HETATM   18  H   UNL     1      -8.359  18.370  66.522  1.00  0.00     0.000 HD 
BRANCH  17  19
HETATM   19  C   UNL     1      -6.348  19.072  66.804  1.00  0.00    -0.186 C  
HETATM   20  C   UNL     1      -5.288  19.063  65.695  1.00  0.00    -0.189 C  
HETATM   21  C   UNL     1      -5.867  19.553  64.372  1.00  0.00    -0.279 C  
HETATM   22  N   UNL     1      -6.469  20.883  64.503  1.00  0.00    -0.480 NA 
HETATM   23  H   UNL     1      -6.831  21.213  63.608  1.00  0.00     0.000 HD 
HETATM   24  C   UNL     1      -7.501  20.925  65.541  1.00  0.00     0.474 C  
HETATM   25  C   UNL     1      -6.977  20.460  66.899  1.00  0.00    -0.318 C  
ENDBRANCH  17  19
ENDBRANCH  10  15
ENDBRANCH   3   6
TORSDOF 3
ENDMDL
MODEL      173
REMARK 921   NORMALIZED FREE ENERGY PREDICTED BY IDOCK:   -2.69 KCAL/MOL
REMARK 922        TOTAL FREE ENERGY PREDICTED BY IDOCK:   -4.03 KCAL/MOL
REMARK 923 INTER-LIGAND FREE ENERGY PREDICTED BY IDOCK:   -3.24 KCAL/MOL
REMARK 924 INTRA-LIGAND FREE ENERGY PREDICTED BY IDOCK:   -0.79 KCAL/MOL
REMARK 927      BINDING AFFINITY PREDICTED BY RF-SCORE:    0.00 PKD
ROOT
HETATM    1  O   UNL     1      -8.182   7.608  65.611  1.00  0.00    -0.122 OA 
HETATM    2  S   UNL     1      -8.759   9.087  65.898  1.00  0.00    -0.177 S  
HETATM    3  O   UNL     1      -8.129   9.502  67.343  1.00  0.00    -0.109 OA 
HETATM    4  O   UNL     1     -10.200   8.969  66.015  1.00  0.00    -0.225 OA 
HETATM    5  O   UNL     1      -8.171   9.934  64.886  1.00  0.00    -0.131 OA 
ENDROOT
BRANCH   3   6
HETATM    6  N   UNL     1      -8.751   8.915  68.515  1.00  0.00    -0.133 N  
HETATM    7  C   UNL     1      -9.068  10.007  69.437  1.00  0.00    -0.215 C  
HETATM    8  C   UNL     1      -7.705  10.259  70.053  1.00  0.00    -0.074 C  
HETATM    9  N   UNL     1      -7.289   8.890  70.322  1.00  0.00    -0.060 N  
HETATM   10  C   UNL     1      -7.943   8.339  71.527  1.00  0.00    -0.123 C  
HETATM   11  C   UNL     1      -7.653   8.193  69.115  1.00  0.00    -0.096 C  
HETATM   12  O   UNL     1      -7.035   7.243  68.658  1.00  0.00    -0.076 OA 
HETATM   13  C   UNL     1      -9.480   8.356  71.373  1.00  0.00    -0.251 C  
HETATM   14  C   UNL     1      -9.985   9.599  70.619  1.00  0.00    -0.299 C  
BRANCH  10  15
HETATM   15  C   UNL     1      -7.507   6.945  72.038  1.00  0.00    -0.092 C  
HETATM   16  O   UNL     1      -6.353   6.541  71.901  1.00  0.00    -0.044 OA 
HETATM   17  N   UNL     1      -8.501   6.173  72.575  1.00  0.00    -0.119 N  
HETATM   18  H   UNL     1      -9.457   6.528  72.571  1.00  0.00     0.000 HD 
BRANCH  17  19
HETATM   19  C   UNL     1      -8.242   4.855  73.154  1.00  0.00    -0.101 C  
HETATM   20  C   UNL     1      -9.074   4.583  74.413  1.00  0.00    -0.112 C  
HETATM   21  C   UNL     1     -10.553   4.428  74.077  1.00  0.00    -0.270 C  
HETATM   22  N   UNL     1     -10.775   3.383  73.074  1.00  0.00    -0.161 NA 
HETATM   23  H   UNL     1     -11.769   3.270  72.874  1.00  0.00     0.000 HD 
HETATM   24  C   UNL     1     -10.011   3.620  71.848  1.00  0.00    -0.153 C  
HETATM   25  C   UNL     1      -8.514   3.768  72.117  1.00  0.00    -0.094 C  
ENDBRANCH  17  19
ENDBRANCH  10  15
ENDBRANCH   3   6
TORSDOF 3
ENDMDL
MODEL      174
REMARK 921   NORMALIZED FREE ENERGY PREDICTED BY IDOCK:   -2.68 KCAL/MOL
REMARK 922        TOTAL FREE ENERGY PREDICTED BY IDOCK:   -4.02 KCAL/MOL
REMARK 923 INTER-LIGAND FREE ENERGY PREDICTED BY IDOCK:   -3.43 KCAL/MOL
REMARK 924 INTRA-LIGAND FREE ENERGY PREDICTED BY IDOCK:   -0.58 KCAL/MOL
REMARK 927      BINDING AFFINITY PREDICTED BY RF-SCORE:    0.00 PKD
ROOT
HETATM    1  O   UNL     1      -6.509  10.899  68.963  1.00  0.00    -0.049 OA 
HETATM    2  S   UNL     1      -7.969  11.124  68.315  1.00  0.00    -0.135 S  
HETATM    3  O   UNL     1      -9.012  10.664  69.481  1.00  0.00    -0.104 OA 
HETATM    4  O   UNL     1      -8.080  10.221  67.185  1.00  0.00    -0.119 OA 
HETATM    5  O   UNL     1      -8.095  12.551  68.131  1.00  0.00    -0.150 OA 
ENDROOT
BRANCH   3   6
HETATM    6  N   UNL     1      -9.194   9.237  69.663  1.00  0.00    -0.165 N  
HETATM    7  C   UNL     1     -10.625   8.957  69.534  1.00  0.00    -0.228 C  
HETATM    8  C   UNL     1     -11.120   9.386  70.901  1.00  0.00    -0.319 C  
HETATM    9  N   UNL     1     -10.111   8.763  71.746  1.00  0.00    -0.306 N  
HETATM   10  C   UNL     1     -10.343   7.312  71.908  1.00  0.00    -0.188 C  
HETATM   11  C   UNL     1      -8.880   9.064  71.063  1.00  0.00    -0.230 C  
HETATM   12  O   UNL     1      -7.812   9.254  71.625  1.00  0.00    -0.329 OA 
HETATM   13  C   UNL     1     -10.334   6.600  70.537  1.00  0.00    -0.231 C  
HETATM   14  C   UNL     1     -10.973   7.449  69.425  1.00  0.00    -0.126 C  
BRANCH  10  15
HETATM   15  C   UNL     1      -9.446   6.521  72.889  1.00  0.00    -0.141 C  
HETATM   16  O   UNL     1      -9.754   6.379  74.072  1.00  0.00    -0.181 OA 
HETATM   17  N   UNL     1      -8.263   6.064  72.373  1.00  0.00    -0.110 N  
HETATM   18  H   UNL     1      -8.022   6.299  71.410  1.00  0.00     0.000 HD 
BRANCH  17  19
HETATM   19  C   UNL     1      -7.332   5.251  73.154  1.00  0.00    -0.091 C  
HETATM   20  C   UNL     1      -7.966   3.959  73.682  1.00  0.00    -0.087 C  
HETATM   21  C   UNL     1      -8.267   2.986  72.547  1.00  0.00    -0.067 C  
HETATM   22  N   UNL     1      -7.070   2.688  71.756  1.00  0.00    -0.034 NA 
HETATM   23  H   UNL     1      -7.275   2.018  71.014  1.00  0.00     0.000 HD 
HETATM   24  C   UNL     1      -6.447   3.899  71.217  1.00  0.00    -0.019 C  
HETATM   25  C   UNL     1      -6.105   4.911  72.311  1.00  0.00    -0.025 C  
ENDBRANCH  17  19
ENDBRANCH  10  15
ENDBRANCH   3   6
TORSDOF 3
ENDMDL
MODEL      175
REMARK 921   NORMALIZED FREE ENERGY PREDICTED BY IDOCK:   -2.63 KCAL/MOL
REMARK 922        TOTAL FREE ENERGY PREDICTED BY IDOCK:   -3.95 KCAL/MOL
REMARK 923 INTER-LIGAND FREE ENERGY PREDICTED BY IDOCK:   -3.55 KCAL/MOL
REMARK 924 INTRA-LIGAND FREE ENERGY PREDICTED BY IDOCK:   -0.40 KCAL/MOL
REMARK 927      BINDING AFFINITY PREDICTED BY RF-SCORE:    0.00 PKD
ROOT
HETATM    1  O   UNL     1     -10.493  15.657  67.059  1.00  0.00    -0.290 OA 
HETATM    2  S   UNL     1     -11.020  14.914  68.390  1.00  0.00    -0.273 S  
HETATM    3  O   UNL     1      -9.917  13.747  68.674  1.00  0.00    -0.225 OA 
HETATM    4  O   UNL     1     -12.295  14.304  68.064  1.00  0.00    -0.215 OA 
HETATM    5  O   UNL     1     -10.924  15.896  69.445  1.00  0.00    -0.262 OA 
ENDROOT
BRANCH   3   6
HETATM    6  N   UNL     1     -10.003  12.558  67.847  1.00  0.00    -0.206 N  
HETATM    7  C   UNL     1     -10.973  11.658  68.472  1.00  0.00    -0.220 C  
HETATM    8  C   UNL     1     -10.127  11.058  69.578  1.00  0.00     0.056 C  
HETATM    9  N   UNL     1      -8.909  10.763  68.838  1.00  0.00    -0.160 N  
HETATM   10  C   UNL     1      -9.041   9.540  68.017  1.00  0.00    -0.123 C  
HETATM   11  C   UNL     1      -8.707  11.951  68.051  1.00  0.00    -0.173 C  
HETATM   12  O   UNL     1      -7.610  12.393  67.742  1.00  0.00    -0.111 OA 
HETATM   13  C   UNL     1     -10.200   9.683  67.005  1.00  0.00    -0.308 C  
HETATM   14  C   UNL     1     -11.397  10.460  67.582  1.00  0.00    -0.162 C  
BRANCH  10  15
HETATM   15  C   UNL     1      -7.794   9.003  67.277  1.00  0.00    -0.099 C  
HETATM   16  O   UNL     1      -6.915   8.376  67.867  1.00  0.00    -0.075 OA 
HETATM   17  N   UNL     1      -7.700   9.339  65.953  1.00  0.00    -0.098 N  
HETATM   18  H   UNL     1      -8.413   9.944  65.547  1.00  0.00     0.000 HD 
BRANCH  17  19
HETATM   19  C   UNL     1      -6.612   8.862  65.100  1.00  0.00    -0.065 C  
HETATM   20  C   UNL     1      -7.010   7.650  64.249  1.00  0.00    -0.060 C  
HETATM   21  C   UNL     1      -8.025   8.034  63.178  1.00  0.00    -0.143 C  
HETATM   22  N   UNL     1      -7.533   9.123  62.330  1.00  0.00    -0.100 NA 
HETATM   23  H   UNL     1      -8.208   9.358  61.602  1.00  0.00     0.000 HD 
HETATM   24  C   UNL     1      -7.161  10.307  63.108  1.00  0.00    -0.112 C  
HETATM   25  C   UNL     1      -6.130   9.989  64.191  1.00  0.00    -0.132 C  
ENDBRANCH  17  19
ENDBRANCH  10  15
ENDBRANCH   3   6
TORSDOF 3
ENDMDL
MODEL      176
REMARK 921   NORMALIZED FREE ENERGY PREDICTED BY IDOCK:   -2.61 KCAL/MOL
REMARK 922        TOTAL FREE ENERGY PREDICTED BY IDOCK:   -3.94 KCAL/MOL
REMARK 923 INTER-LIGAND FREE ENERGY PREDICTED BY IDOCK:   -3.19 KCAL/MOL
REMARK 924 INTRA-LIGAND FREE ENERGY PREDICTED BY IDOCK:   -0.75 KCAL/MOL
REMARK 927      BINDING AFFINITY PREDICTED BY RF-SCORE:    0.00 PKD
ROOT
HETATM    1  O   UNL     1      -6.463   9.023  64.840  1.00  0.00    -0.065 OA 
HETATM    2  S   UNL     1      -7.984   9.196  64.332  1.00  0.00    -0.146 S  
HETATM    3  O   UNL     1      -8.825   9.586  65.674  1.00  0.00    -0.142 OA 
HETATM    4  O   UNL     1      -8.424   7.902  63.846  1.00  0.00     0.016 OA 
HETATM    5  O   UNL     1      -7.971  10.345  63.455  1.00  0.00    -0.157 OA 
ENDROOT
BRANCH   3   6
HETATM    6  N   UNL     1      -9.138   8.499  66.581  1.00  0.00    -0.155 N  
HETATM    7  C   UNL     1     -10.595   8.355  66.607  1.00  0.00    -0.029 C  
HETATM    8  C   UNL     1     -10.974   9.492  67.536  1.00  0.00    -0.054 C  
HETATM    9  N   UNL     1      -9.990   9.299  68.591  1.00  0.00    -0.173 N  
HETATM   10  C   UNL     1     -10.356   8.187  69.494  1.00  0.00    -0.222 C  
HETATM   11  C   UNL     1      -8.771   9.056  67.864  1.00  0.00    -0.129 C  
HETATM   12  O   UNL     1      -7.662   9.393  68.250  1.00  0.00    -0.082 OA 
HETATM   13  C   UNL     1     -10.488   6.864  68.707  1.00  0.00    -0.223 C  
HETATM   14  C   UNL     1     -11.096   7.066  67.308  1.00  0.00    -0.302 C  
BRANCH  10  15
HETATM   15  C   UNL     1      -9.493   7.937  70.753  1.00  0.00    -0.158 C  
HETATM   16  O   UNL     1      -9.020   8.868  71.405  1.00  0.00    -0.217 OA 
HETATM   17  N   UNL     1      -9.232   6.625  71.041  1.00  0.00    -0.160 N  
HETATM   18  H   UNL     1      -9.572   5.904  70.405  1.00  0.00     0.000 HD 
BRANCH  17  19
HETATM   19  C   UNL     1      -8.480   6.219  72.228  1.00  0.00    -0.115 C  
HETATM   20  C   UNL     1      -9.330   6.232  73.505  1.00  0.00    -0.139 C  
HETATM   21  C   UNL     1     -10.384   5.131  73.480  1.00  0.00    -0.217 C  
HETATM   22  N   UNL     1      -9.783   3.810  73.272  1.00  0.00    -0.112 NA 
HETATM   23  H   UNL     1     -10.493   3.077  73.281  1.00  0.00     0.000 HD 
HETATM   24  C   UNL     1      -8.979   3.754  72.049  1.00  0.00    -0.109 C  
HETATM   25  C   UNL     1      -7.891   4.826  72.021  1.00  0.00    -0.100 C  
ENDBRANCH  17  19
ENDBRANCH  10  15
ENDBRANCH   3   6
TORSDOF 3
ENDMDL
MODEL      177
REMARK 921   NORMALIZED FREE ENERGY PREDICTED BY IDOCK:   -2.60 KCAL/MOL
REMARK 922        TOTAL FREE ENERGY PREDICTED BY IDOCK:   -3.92 KCAL/MOL
REMARK 923 INTER-LIGAND FREE ENERGY PREDICTED BY IDOCK:   -3.43 KCAL/MOL
REMARK 924 INTRA-LIGAND FREE ENERGY PREDICTED BY IDOCK:   -0.49 KCAL/MOL
REMARK 927      BINDING AFFINITY PREDICTED BY RF-SCORE:    0.00 PKD
ROOT
HETATM    1  O   UNL     1      -8.684  14.529  66.760  1.00  0.00    -0.234 OA 
HETATM    2  S   UNL     1      -7.405  14.136  67.662  1.00  0.00    -0.176 S  
HETATM    3  O   UNL     1      -7.053  12.603  67.233  1.00  0.00    -0.149 OA 
HETATM    4  O   UNL     1      -7.834  14.163  69.048  1.00  0.00    -0.105 OA 
HETATM    5  O   UNL     1      -6.333  14.992  67.208  1.00  0.00    -0.312 OA 
ENDROOT
BRANCH   3   6
HETATM    6  N   UNL     1      -7.899  11.563  67.787  1.00  0.00    -0.120 N  
HETATM    7  C   UNL     1      -7.171  10.954  68.901  1.00  0.00    -0.095 C  
HETATM    8  C   UNL     1      -6.220  10.042  68.151  1.00  0.00    -0.053 C  
HETATM    9  N   UNL     1      -7.138   9.450  67.189  1.00  0.00    -0.085 N  
HETATM   10  C   UNL     1      -7.972   8.392  67.798  1.00  0.00    -0.111 C  
HETATM   11  C   UNL     1      -7.906  10.578  66.730  1.00  0.00    -0.121 C  
HETATM   12  O   UNL     1      -8.355  10.689  65.599  1.00  0.00    -0.161 OA 
HETATM   13  C   UNL     1      -8.800   8.956  68.974  1.00  0.00    -0.136 C  
HETATM   14  C   UNL     1      -8.031  10.012  69.786  1.00  0.00    -0.190 C  
BRANCH  10  15
HETATM   15  C   UNL     1      -8.903   7.561  66.883  1.00  0.00    -0.135 C  
HETATM   16  O   UNL     1     -10.028   7.956  66.579  1.00  0.00    -0.243 OA 
HETATM   17  N   UNL     1      -8.423   6.336  66.505  1.00  0.00    -0.117 N  
HETATM   18  H   UNL     1      -7.522   6.026  66.870  1.00  0.00     0.000 HD 
BRANCH  17  19
HETATM   19  C   UNL     1      -9.155   5.455  65.596  1.00  0.00    -0.140 C  
HETATM   20  C   UNL     1      -8.232   4.647  64.676  1.00  0.00    -0.113 C  
HETATM   21  C   UNL     1      -7.441   3.606  65.460  1.00  0.00    -0.077 C  
HETATM   22  N   UNL     1      -8.323   2.715  66.220  1.00  0.00    -0.088 NA 
HETATM   23  H   UNL     1      -7.787   2.007  66.722  1.00  0.00     0.000 HD 
HETATM   24  C   UNL     1      -9.207   3.451  67.126  1.00  0.00    -0.191 C  
HETATM   25  C   UNL     1     -10.041   4.503  66.395  1.00  0.00    -0.271 C  
ENDBRANCH  17  19
ENDBRANCH  10  15
ENDBRANCH   3   6
TORSDOF 3
ENDMDL
MODEL      178
REMARK 921   NORMALIZED FREE ENERGY PREDICTED BY IDOCK:   -2.59 KCAL/MOL
REMARK 922        TOTAL FREE ENERGY PREDICTED BY IDOCK:   -3.91 KCAL/MOL
REMARK 923 INTER-LIGAND FREE ENERGY PREDICTED BY IDOCK:   -7.79 KCAL/MOL
REMARK 924 INTRA-LIGAND FREE ENERGY PREDICTED BY IDOCK:    3.88 KCAL/MOL
REMARK 927      BINDING AFFINITY PREDICTED BY RF-SCORE:    0.00 PKD
ROOT
HETATM    1  O   UNL     1     -12.637  14.214  64.021  1.00  0.00    -0.691 OA 
HETATM    2  S   UNL     1     -11.126  13.936  64.514  1.00  0.00    -0.331 S  
HETATM    3  O   UNL     1     -11.268  13.584  66.099  1.00  0.00    -0.291 OA 
HETATM    4  O   UNL     1     -10.391  15.177  64.358  1.00  0.00     0.065 OA 
HETATM    5  O   UNL     1     -10.707  12.741  63.819  1.00  0.00    -0.413 OA 
ENDROOT
BRANCH   3   6
HETATM    6  N   UNL     1     -11.469  14.705  66.998  1.00  0.00    -0.359 N  
HETATM    7  C   UNL     1     -10.266  15.537  66.936  1.00  0.00    -0.279 C  
HETATM    8  C   UNL     1      -9.331  14.746  67.828  1.00  0.00    -0.199 C  
HETATM    9  N   UNL     1     -10.221  14.459  68.944  1.00  0.00    -0.230 N  
HETATM   10  C   UNL     1     -10.388  15.627  69.834  1.00  0.00    -0.315 C  
HETATM   11  C   UNL     1     -11.445  14.066  68.294  1.00  0.00    -0.304 C  
HETATM   12  O   UNL     1     -12.227  13.242  68.743  1.00  0.00    -0.278 OA 
HETATM   13  C   UNL     1     -10.960  16.833  69.055  1.00  0.00    -0.239 C  
HETATM   14  C   UNL     1     -10.413  16.922  67.619  1.00  0.00    -0.332 C  
BRANCH  10  15
HETATM   15  C   UNL     1     -11.190  15.453  71.146  1.00  0.00    -0.361 C  
HETATM   16  O   UNL     1     -11.355  16.388  71.928  1.00  0.00    -0.230 OA 
HETATM   17  N   UNL     1     -11.629  14.183  71.407  1.00  0.00    -0.305 N  
HETATM   18  H   UNL     1     -11.376  13.433  70.765  1.00  0.00     0.000 HD 
BRANCH  17  19
HETATM   19  C   UNL     1     -12.449  13.865  72.576  1.00  0.00     0.056 C  
HETATM   20  C   UNL     1     -12.199  14.812  73.756  1.00  0.00    -0.429 C  
HETATM   21  C   UNL     1     -12.713  16.217  73.457  1.00  0.00    -0.559 C  
HETATM   22  N   UNL     1     -14.132  16.209  73.092  1.00  0.00    -0.539 NA 
HETATM   23  H   UNL     1     -14.473  17.155  72.918  1.00  0.00     0.000 HD 
HETATM   24  C   UNL     1     -14.406  15.330  71.954  1.00  0.00    -0.589 C  
HETATM   25  C   UNL     1     -13.928  13.898  72.198  1.00  0.00    -0.639 C  
ENDBRANCH  17  19
ENDBRANCH  10  15
ENDBRANCH   3   6
TORSDOF 3
ENDMDL
MODEL      179
REMARK 921   NORMALIZED FREE ENERGY PREDICTED BY IDOCK:   -2.58 KCAL/MOL
REMARK 922        TOTAL FREE ENERGY PREDICTED BY IDOCK:   -3.89 KCAL/MOL
REMARK 923 INTER-LIGAND FREE ENERGY PREDICTED BY IDOCK:   -4.96 KCAL/MOL
REMARK 924 INTRA-LIGAND FREE ENERGY PREDICTED BY IDOCK:    1.07 KCAL/MOL
REMARK 927      BINDING AFFINITY PREDICTED BY RF-SCORE:    0.00 PKD
ROOT
HETATM    1  O   UNL     1      -9.019  17.318  67.354  1.00  0.00    -0.219 OA 
HETATM    2  S   UNL     1      -9.795  18.353  68.318  1.00  0.00    -0.377 S  
HETATM    3  O   UNL     1     -10.170  17.479  69.643  1.00  0.00    -0.088 OA 
HETATM    4  O   UNL     1     -11.014  18.742  67.635  1.00  0.00    -0.384 OA 
HETATM    5  O   UNL     1      -8.813  19.345  68.692  1.00  0.00    -0.369 OA 
ENDROOT
BRANCH   3   6
HETATM    6  N   UNL     1     -11.298  16.575  69.525  1.00  0.00    -0.181 N  
HETATM    7  C   UNL     1     -11.703  16.200  70.881  1.00  0.00    -0.334 C  
HETATM    8  C   UNL     1     -10.655  15.153  71.207  1.00  0.00     0.391 C  
HETATM    9  N   UNL     1     -10.671  14.382  69.973  1.00  0.00     0.057 N  
HETATM   10  C   UNL     1     -11.833  13.471  69.902  1.00  0.00    -0.316 C  
HETATM   11  C   UNL     1     -10.688  15.397  68.952  1.00  0.00    -0.244 C  
HETATM   12  O   UNL     1     -10.158  15.279  67.857  1.00  0.00    -0.230 OA 
HETATM   13  C   UNL     1     -13.156  14.263  69.995  1.00  0.00     0.295 C  
HETATM   14  C   UNL     1     -13.064  15.459  70.959  1.00  0.00    -0.565 C  
BRANCH  10  15
HETATM   15  C   UNL     1     -11.926  12.476  68.722  1.00  0.00    -0.238 C  
HETATM   16  O   UNL     1     -12.620  11.462  68.788  1.00  0.00    -0.257 OA 
HETATM   17  N   UNL     1     -11.132  12.759  67.643  1.00  0.00    -0.247 N  
HETATM   18  H   UNL     1     -10.507  13.564  67.690  1.00  0.00     0.000 HD 
BRANCH  17  19
HETATM   19  C   UNL     1     -11.149  11.950  66.425  1.00  0.00    -0.309 C  
HETATM   20  C   UNL     1     -12.404  12.178  65.574  1.00  0.00     0.074 C  
HETATM   21  C   UNL     1     -12.408  13.572  64.956  1.00  0.00    -0.428 C  
HETATM   22  N   UNL     1     -11.197  13.819  64.168  1.00  0.00    -0.593 NA 
HETATM   23  H   UNL     1     -11.219  14.744  63.738  1.00  0.00     0.000 HD 
HETATM   24  C   UNL     1      -9.976  13.630  64.954  1.00  0.00    -0.152 C  
HETATM   25  C   UNL     1      -9.905  12.241  65.590  1.00  0.00    -0.247 C  
ENDBRANCH  17  19
ENDBRANCH  10  15
ENDBRANCH   3   6
TORSDOF 3
ENDMDL
MODEL      180
REMARK 921   NORMALIZED FREE ENERGY PREDICTED BY IDOCK:   -2.57 KCAL/MOL
REMARK 922        TOTAL FREE ENERGY PREDICTED BY IDOCK:   -3.89 KCAL/MOL
REMARK 923 INTER-LIGAND FREE ENERGY PREDICTED BY IDOCK:   -3.17 KCAL/MOL
REMARK 924 INTRA-LIGAND FREE ENERGY PREDICTED BY IDOCK:   -0.72 KCAL/MOL
REMARK 927      BINDING AFFINITY PREDICTED BY RF-SCORE:    0.00 PKD
ROOT
HETATM    1  O   UNL     1     -10.759  14.824  70.462  1.00  0.00    -0.050 OA 
HETATM    2  S   UNL     1     -11.938  14.896  69.363  1.00  0.00    -0.282 S  
HETATM    3  O   UNL     1     -11.967  13.410  68.691  1.00  0.00    -0.343 OA 
HETATM    4  O   UNL     1     -11.535  15.869  68.366  1.00  0.00    -0.365 OA 
HETATM    5  O   UNL     1     -13.158  15.077  70.116  1.00  0.00    -0.155 OA 
ENDROOT
BRANCH   3   6
HETATM    6  N   UNL     1     -10.932  13.118  67.718  1.00  0.00    -0.245 N  
HETATM    7  C   UNL     1     -11.596  12.804  66.452  1.00  0.00    -0.378 C  
HETATM    8  C   UNL     1     -12.024  11.372  66.707  1.00  0.00     0.709 C  
HETATM    9  N   UNL     1     -10.800  10.838  67.287  1.00  0.00    -0.278 N  
HETATM   10  C   UNL     1      -9.780  10.549  66.257  1.00  0.00    -0.205 C  
HETATM   11  C   UNL     1     -10.396  11.868  68.207  1.00  0.00    -0.201 C  
HETATM   12  O   UNL     1      -9.815  11.658  69.262  1.00  0.00     0.079 OA 
HETATM   13  C   UNL     1      -9.423  11.827  65.466  1.00  0.00    -0.185 C  
HETATM   14  C   UNL     1     -10.642  12.736  65.230  1.00  0.00    -0.312 C  
BRANCH  10  15
HETATM   15  C   UNL     1      -8.471   9.844  66.686  1.00  0.00    -0.125 C  
HETATM   16  O   UNL     1      -7.382  10.412  66.621  1.00  0.00    -0.104 OA 
HETATM   17  N   UNL     1      -8.600   8.534  67.063  1.00  0.00    -0.120 N  
HETATM   18  H   UNL     1      -9.517   8.092  67.002  1.00  0.00     0.000 HD 
BRANCH  17  19
HETATM   19  C   UNL     1      -7.468   7.745  67.550  1.00  0.00    -0.097 C  
HETATM   20  C   UNL     1      -7.710   7.153  68.943  1.00  0.00    -0.113 C  
HETATM   21  C   UNL     1      -8.781   6.069  68.906  1.00  0.00    -0.122 C  
HETATM   22  N   UNL     1      -8.451   5.012  67.946  1.00  0.00    -0.104 NA 
HETATM   23  H   UNL     1      -9.161   4.279  67.945  1.00  0.00     0.000 HD 
HETATM   24  C   UNL     1      -8.232   5.538  66.597  1.00  0.00    -0.105 C  
HETATM   25  C   UNL     1      -7.155   6.622  66.564  1.00  0.00    -0.068 C  
ENDBRANCH  17  19
ENDBRANCH  10  15
ENDBRANCH   3   6
TORSDOF 3
ENDMDL
MODEL      181
REMARK 921   NORMALIZED FREE ENERGY PREDICTED BY IDOCK:   -2.57 KCAL/MOL
REMARK 922        TOTAL FREE ENERGY PREDICTED BY IDOCK:   -3.89 KCAL/MOL
REMARK 923 INTER-LIGAND FREE ENERGY PREDICTED BY IDOCK:   -3.17 KCAL/MOL
REMARK 924 INTRA-LIGAND FREE ENERGY PREDICTED BY IDOCK:   -0.72 KCAL/MOL
REMARK 927      BINDING AFFINITY PREDICTED BY RF-SCORE:    0.00 PKD
ROOT
HETATM    1  O   UNL     1      -6.543   9.268  70.564  1.00  0.00    -0.054 OA 
HETATM    2  S   UNL     1      -7.299   8.426  71.713  1.00  0.00    -0.101 S  
HETATM    3  O   UNL     1      -7.654   6.997  71.011  1.00  0.00    -0.084 OA 
HETATM    4  O   UNL     1      -8.529   9.130  72.022  1.00  0.00    -0.319 OA 
HETATM    5  O   UNL     1      -6.308   8.193  72.738  1.00  0.00    -0.068 OA 
ENDROOT
BRANCH   3   6
HETATM    6  N   UNL     1      -8.786   6.983  70.105  1.00  0.00    -0.145 N  
HETATM    7  C   UNL     1      -9.833   6.168  70.723  1.00  0.00    -0.186 C  
HETATM    8  C   UNL     1      -9.325   4.774  70.411  1.00  0.00    -0.151 C  
HETATM    9  N   UNL     1      -8.965   4.940  69.011  1.00  0.00    -0.099 N  
HETATM   10  C   UNL     1     -10.150   4.912  68.127  1.00  0.00    -0.075 C  
HETATM   11  C   UNL     1      -8.281   6.207  68.995  1.00  0.00    -0.112 C  
HETATM   12  O   UNL     1      -7.360   6.481  68.240  1.00  0.00    -0.082 OA 
HETATM   13  C   UNL     1     -11.144   6.031  68.508  1.00  0.00    -0.279 C  
HETATM   14  C   UNL     1     -11.215   6.268  70.026  1.00  0.00    -0.480 C  
BRANCH  10  15
HETATM   15  C   UNL     1      -9.935   4.932  66.595  1.00  0.00    -0.229 C  
HETATM   16  O   UNL     1     -10.883   4.942  65.812  1.00  0.00    -0.262 OA 
HETATM   17  N   UNL     1      -8.633   4.860  66.179  1.00  0.00    -0.115 N  
HETATM   18  H   UNL     1      -7.897   4.757  66.877  1.00  0.00     0.000 HD 
BRANCH  17  19
HETATM   19  C   UNL     1      -8.259   4.927  64.766  1.00  0.00    -0.126 C  
HETATM   20  C   UNL     1      -7.187   5.987  64.483  1.00  0.00    -0.063 C  
HETATM   21  C   UNL     1      -5.844   5.592  65.085  1.00  0.00    -0.021 C  
HETATM   22  N   UNL     1      -5.405   4.275  64.616  1.00  0.00    -0.012 NA 
HETATM   23  H   UNL     1      -4.495   4.029  65.004  1.00  0.00     0.000 HD 
HETATM   24  C   UNL     1      -6.396   3.231  64.887  1.00  0.00    -0.024 C  
HETATM   25  C   UNL     1      -7.765   3.562  64.293  1.00  0.00    -0.077 C  
ENDBRANCH  17  19
ENDBRANCH  10  15
ENDBRANCH   3   6
TORSDOF 3
ENDMDL
MODEL      182
REMARK 921   NORMALIZED FREE ENERGY PREDICTED BY IDOCK:   -2.54 KCAL/MOL
REMARK 922        TOTAL FREE ENERGY PREDICTED BY IDOCK:   -3.85 KCAL/MOL
REMARK 923 INTER-LIGAND FREE ENERGY PREDICTED BY IDOCK:   -3.05 KCAL/MOL
REMARK 924 INTRA-LIGAND FREE ENERGY PREDICTED BY IDOCK:   -0.80 KCAL/MOL
REMARK 927      BINDING AFFINITY PREDICTED BY RF-SCORE:    0.00 PKD
ROOT
HETATM    1  O   UNL     1      -6.380   4.878  63.636  1.00  0.00    -0.025 OA 
HETATM    2  S   UNL     1      -6.522   3.400  64.267  1.00  0.00    -0.032 S  
HETATM    3  O   UNL     1      -7.894   3.459  65.148  1.00  0.00    -0.081 OA 
HETATM    4  O   UNL     1      -5.389   3.201  65.150  1.00  0.00    -0.008 OA 
HETATM    5  O   UNL     1      -6.743   2.519  63.143  1.00  0.00    -0.025 OA 
ENDROOT
BRANCH   3   6
HETATM    6  N   UNL     1      -7.809   4.118  66.437  1.00  0.00    -0.093 N  
HETATM    7  C   UNL     1      -7.853   3.077  67.466  1.00  0.00    -0.076 C  
HETATM    8  C   UNL     1      -9.339   2.781  67.503  1.00  0.00    -0.158 C  
HETATM    9  N   UNL     1      -9.870   4.137  67.511  1.00  0.00    -0.135 N  
HETATM   10  C   UNL     1      -9.769   4.763  68.846  1.00  0.00    -0.174 C  
HETATM   11  C   UNL     1      -9.077   4.806  66.513  1.00  0.00    -0.121 C  
HETATM   12  O   UNL     1      -9.490   5.707  65.798  1.00  0.00    -0.122 OA 
HETATM   13  C   UNL     1      -8.298   4.817  69.316  1.00  0.00    -0.083 C  
HETATM   14  C   UNL     1      -7.496   3.574  68.892  1.00  0.00    -0.053 C  
BRANCH  10  15
HETATM   15  C   UNL     1     -10.416   6.151  69.066  1.00  0.00    -0.248 C  
HETATM   16  O   UNL     1     -11.590   6.267  69.414  1.00  0.00    -0.403 OA 
HETATM   17  N   UNL     1      -9.621   7.228  68.775  1.00  0.00    -0.142 N  
HETATM   18  H   UNL     1      -8.688   7.063  68.399  1.00  0.00     0.000 HD 
BRANCH  17  19
HETATM   19  C   UNL     1     -10.064   8.606  68.986  1.00  0.00    -0.199 C  
HETATM   20  C   UNL     1      -8.984   9.488  69.624  1.00  0.00    -0.198 C  
HETATM   21  C   UNL     1      -7.829   9.734  68.660  1.00  0.00    -0.081 C  
HETATM   22  N   UNL     1      -8.291  10.315  67.396  1.00  0.00    -0.118 NA 
HETATM   23  H   UNL     1      -7.509  10.499  66.768  1.00  0.00     0.000 HD 
HETATM   24  C   UNL     1      -9.310   9.489  66.746  1.00  0.00    -0.153 C  
HETATM   25  C   UNL     1     -10.506   9.219  67.659  1.00  0.00    -0.325 C  
ENDBRANCH  17  19
ENDBRANCH  10  15
ENDBRANCH   3   6
TORSDOF 3
ENDMDL
MODEL      183
REMARK 921   NORMALIZED FREE ENERGY PREDICTED BY IDOCK:   -2.45 KCAL/MOL
REMARK 922        TOTAL FREE ENERGY PREDICTED BY IDOCK:   -3.74 KCAL/MOL
REMARK 923 INTER-LIGAND FREE ENERGY PREDICTED BY IDOCK:   -3.19 KCAL/MOL
REMARK 924 INTRA-LIGAND FREE ENERGY PREDICTED BY IDOCK:   -0.55 KCAL/MOL
REMARK 927      BINDING AFFINITY PREDICTED BY RF-SCORE:    0.00 PKD
ROOT
HETATM    1  O   UNL     1      -5.704   8.587  64.533  1.00  0.00    -0.061 OA 
HETATM    2  S   UNL     1      -7.244   8.360  64.105  1.00  0.00    -0.096 S  
HETATM    3  O   UNL     1      -8.044   8.205  65.517  1.00  0.00    -0.114 OA 
HETATM    4  O   UNL     1      -7.305   7.108  63.375  1.00  0.00    -0.069 OA 
HETATM    5  O   UNL     1      -7.658   9.596  63.482  1.00  0.00    -0.113 OA 
ENDROOT
BRANCH   3   6
HETATM    6  N   UNL     1      -7.931   6.926  66.191  1.00  0.00    -0.105 N  
HETATM    7  C   UNL     1      -9.150   6.169  65.904  1.00  0.00    -0.085 C  
HETATM    8  C   UNL     1     -10.116   6.811  66.881  1.00  0.00    -0.202 C  
HETATM    9  N   UNL     1      -9.287   6.843  68.077  1.00  0.00    -0.124 N  
HETATM   10  C   UNL     1      -9.207   5.520  68.731  1.00  0.00    -0.122 C  
HETATM   11  C   UNL     1      -8.015   7.304  67.583  1.00  0.00    -0.114 C  
HETATM   12  O   UNL     1      -7.239   7.995  68.225  1.00  0.00    -0.088 OA 
HETATM   13  C   UNL     1      -8.623   4.465  67.765  1.00  0.00    -0.109 C  
HETATM   14  C   UNL     1      -9.085   4.674  66.312  1.00  0.00    -0.122 C  
BRANCH  10  15
HETATM   15  C   UNL     1      -8.483   5.407  70.094  1.00  0.00    -0.119 C  
HETATM   16  O   UNL     1      -7.311   5.039  70.171  1.00  0.00    -0.056 OA 
HETATM   17  N   UNL     1      -9.251   5.667  71.197  1.00  0.00    -0.148 N  
HETATM   18  H   UNL     1     -10.241   5.873  71.069  1.00  0.00     0.000 HD 
BRANCH  17  19
HETATM   19  C   UNL     1      -8.701   5.660  72.552  1.00  0.00    -0.124 C  
HETATM   20  C   UNL     1      -9.027   6.937  73.335  1.00  0.00    -0.156 C  
HETATM   21  C   UNL     1     -10.514   7.022  73.662  1.00  0.00    -0.376 C  
HETATM   22  N   UNL     1     -10.978   5.837  74.389  1.00  0.00    -0.283 NA 
HETATM   23  H   UNL     1     -11.967   5.913  74.625  1.00  0.00     0.000 HD 
HETATM   24  C   UNL     1     -10.701   4.596  73.662  1.00  0.00    -0.277 C  
HETATM   25  C   UNL     1      -9.219   4.445  73.318  1.00  0.00    -0.123 C  
ENDBRANCH  17  19
ENDBRANCH  10  15
ENDBRANCH   3   6
TORSDOF 3
ENDMDL
MODEL      184
REMARK 921   NORMALIZED FREE ENERGY PREDICTED BY IDOCK:   -2.35 KCAL/MOL
REMARK 922        TOTAL FREE ENERGY PREDICTED BY IDOCK:   -3.63 KCAL/MOL
REMARK 923 INTER-LIGAND FREE ENERGY PREDICTED BY IDOCK:   -2.84 KCAL/MOL
REMARK 924 INTRA-LIGAND FREE ENERGY PREDICTED BY IDOCK:   -0.79 KCAL/MOL
REMARK 927      BINDING AFFINITY PREDICTED BY RF-SCORE:    0.00 PKD
ROOT
HETATM    1  O   UNL     1     -11.117   3.907  65.199  1.00  0.00     0.120 OA 
HETATM    2  S   UNL     1      -9.625   3.694  64.623  1.00  0.00    -0.181 S  
HETATM    3  O   UNL     1      -8.647   4.305  65.776  1.00  0.00    -0.113 OA 
HETATM    4  O   UNL     1      -9.512   4.495  63.419  1.00  0.00    -0.111 OA 
HETATM    5  O   UNL     1      -9.430   2.263  64.574  1.00  0.00    -0.141 OA 
ENDROOT
BRANCH   3   6
HETATM    6  N   UNL     1      -8.535   5.750  65.832  1.00  0.00    -0.133 N  
HETATM    7  C   UNL     1      -7.169   6.099  65.439  1.00  0.00    -0.070 C  
HETATM    8  C   UNL     1      -6.422   5.802  66.724  1.00  0.00    -0.050 C  
HETATM    9  N   UNL     1      -7.313   6.428  67.690  1.00  0.00    -0.086 N  
HETATM   10  C   UNL     1      -7.157   7.898  67.716  1.00  0.00    -0.086 C  
HETATM   11  C   UNL     1      -8.619   6.008  67.252  1.00  0.00    -0.106 C  
HETATM   12  O   UNL     1      -9.561   5.801  68.002  1.00  0.00    -0.115 OA 
HETATM   13  C   UNL     1      -7.447   8.505  66.325  1.00  0.00    -0.090 C  
HETATM   14  C   UNL     1      -6.948   7.612  65.175  1.00  0.00    -0.055 C  
BRANCH  10  15
HETATM   15  C   UNL     1      -7.927   8.708  68.786  1.00  0.00    -0.114 C  
HETATM   16  O   UNL     1      -8.103   9.920  68.672  1.00  0.00    -0.094 OA 
HETATM   17  N   UNL     1      -8.324   8.003  69.891  1.00  0.00    -0.120 N  
HETATM   18  H   UNL     1      -8.062   7.021  69.968  1.00  0.00     0.000 HD 
BRANCH  17  19
HETATM   19  C   UNL     1      -9.111   8.609  70.964  1.00  0.00    -0.199 C  
HETATM   20  C   UNL     1     -10.579   8.828  70.576  1.00  0.00    -0.252 C  
HETATM   21  C   UNL     1     -11.317   7.501  70.435  1.00  0.00    -0.233 C  
HETATM   22  N   UNL     1     -11.219   6.692  71.653  1.00  0.00    -0.252 NA 
HETATM   23  H   UNL     1     -11.736   5.818  71.558  1.00  0.00     0.000 HD 
HETATM   24  C   UNL     1      -9.829   6.446  72.043  1.00  0.00    -0.156 C  
HETATM   25  C   UNL     1      -9.037   7.741  72.218  1.00  0.00    -0.201 C  
ENDBRANCH  17  19
ENDBRANCH  10  15
ENDBRANCH   3   6
TORSDOF 3
ENDMDL
MODEL      185
REMARK 921   NORMALIZED FREE ENERGY PREDICTED BY IDOCK:   -2.31 KCAL/MOL
REMARK 922        TOTAL FREE ENERGY PREDICTED BY IDOCK:   -3.58 KCAL/MOL
REMARK 923 INTER-LIGAND FREE ENERGY PREDICTED BY IDOCK:   -3.20 KCAL/MOL
REMARK 924 INTRA-LIGAND FREE ENERGY PREDICTED BY IDOCK:   -0.38 KCAL/MOL
REMARK 927      BINDING AFFINITY PREDICTED BY RF-SCORE:    0.00 PKD
ROOT
HETATM    1  O   UNL     1      -9.338   6.651  66.100  1.00  0.00    -0.146 OA 
HETATM    2  S   UNL     1     -10.108   5.312  66.567  1.00  0.00    -0.253 S  
HETATM    3  O   UNL     1     -10.682   5.663  68.052  1.00  0.00    -0.219 OA 
HETATM    4  O   UNL     1      -9.114   4.260  66.669  1.00  0.00    -0.116 OA 
HETATM    5  O   UNL     1     -11.230   5.178  65.666  1.00  0.00     0.061 OA 
ENDROOT
BRANCH   3   6
HETATM    6  N   UNL     1      -9.727   5.623  69.143  1.00  0.00    -0.137 N  
HETATM    7  C   UNL     1     -10.399   5.013  70.292  1.00  0.00    -0.229 C  
HETATM    8  C   UNL     1     -11.213   6.188  70.797  1.00  0.00    -0.306 C  
HETATM    9  N   UNL     1     -10.207   7.239  70.743  1.00  0.00    -0.197 N  
HETATM   10  C   UNL     1      -9.263   7.162  71.878  1.00  0.00    -0.138 C  
HETATM   11  C   UNL     1      -9.575   7.023  69.468  1.00  0.00    -0.153 C  
HETATM   12  O   UNL     1      -9.118   7.914  68.768  1.00  0.00    -0.141 OA 
HETATM   13  C   UNL     1      -8.538   5.797  71.894  1.00  0.00    -0.134 C  
HETATM   14  C   UNL     1      -9.450   4.637  71.460  1.00  0.00    -0.214 C  
BRANCH  10  15
HETATM   15  C   UNL     1      -8.217   8.287  72.052  1.00  0.00    -0.160 C  
HETATM   16  O   UNL     1      -8.090   8.890  73.117  1.00  0.00    -0.373 OA 
HETATM   17  N   UNL     1      -7.506   8.614  70.928  1.00  0.00    -0.073 N  
HETATM   18  H   UNL     1      -7.726   8.143  70.052  1.00  0.00     0.000 HD 
BRANCH  17  19
HETATM   19  C   UNL     1      -6.440   9.616  70.941  1.00  0.00    -0.083 C  
HETATM   20  C   UNL     1      -5.134   9.105  70.322  1.00  0.00    -0.027 C  
HETATM   21  C   UNL     1      -5.276   8.901  68.817  1.00  0.00    -0.033 C  
HETATM   22  N   UNL     1      -5.724  10.124  68.145  1.00  0.00    -0.038 NA 
HETATM   23  H   UNL     1      -5.793   9.986  67.136  1.00  0.00     0.000 HD 
HETATM   24  C   UNL     1      -6.981  10.632  68.697  1.00  0.00    -0.072 C  
HETATM   25  C   UNL     1      -6.898  10.872  70.205  1.00  0.00    -0.014 C  
ENDBRANCH  17  19
ENDBRANCH  10  15
ENDBRANCH   3   6
TORSDOF 3
ENDMDL
MODEL      186
REMARK 921   NORMALIZED FREE ENERGY PREDICTED BY IDOCK:   -2.30 KCAL/MOL
REMARK 922        TOTAL FREE ENERGY PREDICTED BY IDOCK:   -3.57 KCAL/MOL
REMARK 923 INTER-LIGAND FREE ENERGY PREDICTED BY IDOCK:   -3.12 KCAL/MOL
REMARK 924 INTRA-LIGAND FREE ENERGY PREDICTED BY IDOCK:   -0.45 KCAL/MOL
REMARK 927      BINDING AFFINITY PREDICTED BY RF-SCORE:    0.00 PKD
ROOT
HETATM    1  O   UNL     1      -8.402   4.096  67.590  1.00  0.00    -0.097 OA 
HETATM    2  S   UNL     1      -8.951   3.681  69.049  1.00  0.00    -0.135 S  
HETATM    3  O   UNL     1      -9.843   4.959  69.532  1.00  0.00    -0.180 OA 
HETATM    4  O   UNL     1      -7.798   3.542  69.917  1.00  0.00    -0.047 OA 
HETATM    5  O   UNL     1      -9.842   2.566  68.825  1.00  0.00     0.047 OA 
ENDROOT
BRANCH   3   6
HETATM    6  N   UNL     1      -9.111   6.114  70.017  1.00  0.00    -0.146 N  
HETATM    7  C   UNL     1      -9.674   6.474  71.319  1.00  0.00    -0.173 C  
HETATM    8  C   UNL     1     -10.928   7.211  70.890  1.00  0.00    -0.251 C  
HETATM    9  N   UNL     1     -10.382   8.052  69.835  1.00  0.00    -0.216 N  
HETATM   10  C   UNL     1      -9.653   9.218  70.377  1.00  0.00    -0.244 C  
HETATM   11  C   UNL     1      -9.533   7.149  69.101  1.00  0.00    -0.147 C  
HETATM   12  O   UNL     1      -9.337   7.217  67.897  1.00  0.00    -0.129 OA 
HETATM   13  C   UNL     1      -8.489   8.763  71.285  1.00  0.00    -0.238 C  
HETATM   14  C   UNL     1      -8.837   7.512  72.111  1.00  0.00    -0.153 C  
BRANCH  10  15
HETATM   15  C   UNL     1      -9.131  10.291  69.393  1.00  0.00    -0.187 C  
HETATM   16  O   UNL     1      -9.847  11.214  69.006  1.00  0.00    -0.189 OA 
HETATM   17  N   UNL     1      -7.857  10.100  68.930  1.00  0.00    -0.093 N  
HETATM   18  H   UNL     1      -7.350   9.263  69.215  1.00  0.00     0.000 HD 
BRANCH  17  19
HETATM   19  C   UNL     1      -7.197  11.055  68.040  1.00  0.00    -0.086 C  
HETATM   20  C   UNL     1      -5.773  10.631  67.661  1.00  0.00    -0.043 C  
HETATM   21  C   UNL     1      -5.782   9.402  66.757  1.00  0.00    -0.051 C  
HETATM   22  N   UNL     1      -6.595   9.619  65.557  1.00  0.00    -0.076 NA 
HETATM   23  H   UNL     1      -6.576   8.801  64.947  1.00  0.00     0.000 HD 
HETATM   24  C   UNL     1      -7.969  10.006  65.879  1.00  0.00    -0.124 C  
HETATM   25  C   UNL     1      -8.028  11.245  66.773  1.00  0.00    -0.159 C  
ENDBRANCH  17  19
ENDBRANCH  10  15
ENDBRANCH   3   6
TORSDOF 3
ENDMDL
MODEL      187
REMARK 921   NORMALIZED FREE ENERGY PREDICTED BY IDOCK:   -2.24 KCAL/MOL
REMARK 922        TOTAL FREE ENERGY PREDICTED BY IDOCK:   -3.50 KCAL/MOL
REMARK 923 INTER-LIGAND FREE ENERGY PREDICTED BY IDOCK:   -2.76 KCAL/MOL
REMARK 924 INTRA-LIGAND FREE ENERGY PREDICTED BY IDOCK:   -0.74 KCAL/MOL
REMARK 927      BINDING AFFINITY PREDICTED BY RF-SCORE:    0.00 PKD
ROOT
HETATM    1  O   UNL     1      -6.515   9.099  64.701  1.00  0.00    -0.073 OA 
HETATM    2  S   UNL     1      -8.064   9.104  64.249  1.00  0.00    -0.157 S  
HETATM    3  O   UNL     1      -8.901   9.108  65.649  1.00  0.00    -0.161 OA 
HETATM    4  O   UNL     1      -8.309   7.861  63.543  1.00  0.00    -0.062 OA 
HETATM    5  O   UNL     1      -8.271  10.375  63.593  1.00  0.00    -0.163 OA 
ENDROOT
BRANCH   3   6
HETATM    6  N   UNL     1      -8.999   7.842  66.349  1.00  0.00    -0.156 N  
HETATM    7  C   UNL     1     -10.392   7.679  66.769  1.00  0.00    -0.273 C  
HETATM    8  C   UNL     1     -10.423   8.575  67.992  1.00  0.00    -0.191 C  
HETATM    9  N   UNL     1      -9.188   8.162  68.644  1.00  0.00    -0.143 N  
HETATM   10  C   UNL     1      -9.339   6.872  69.350  1.00  0.00    -0.146 C  
HETATM   11  C   UNL     1      -8.247   8.101  67.556  1.00  0.00    -0.123 C  
HETATM   12  O   UNL     1      -7.057   8.356  67.663  1.00  0.00    -0.080 OA 
HETATM   13  C   UNL     1      -9.766   5.757  68.369  1.00  0.00    -0.161 C  
HETATM   14  C   UNL     1     -10.740   6.260  67.290  1.00  0.00    -0.424 C  
BRANCH  10  15
HETATM   15  C   UNL     1      -8.164   6.356  70.215  1.00  0.00    -0.125 C  
HETATM   16  O   UNL     1      -7.531   7.107  70.955  1.00  0.00    -0.078 OA 
HETATM   17  N   UNL     1      -7.834   5.039  70.040  1.00  0.00    -0.070 N  
HETATM   18  H   UNL     1      -8.336   4.494  69.339  1.00  0.00     0.000 HD 
BRANCH  17  19
HETATM   19  C   UNL     1      -6.786   4.385  70.823  1.00  0.00    -0.036 C  
HETATM   20  C   UNL     1      -7.288   3.143  71.570  1.00  0.00    -0.040 C  
HETATM   21  C   UNL     1      -7.627   2.014  70.603  1.00  0.00    -0.035 C  
HETATM   22  N   UNL     1      -6.489   1.677  69.743  1.00  0.00    -0.025 NA 
HETATM   23  H   UNL     1      -6.717   0.905  69.116  1.00  0.00     0.000 HD 
HETATM   24  C   UNL     1      -5.995   2.836  68.997  1.00  0.00    -0.024 C  
HETATM   25  C   UNL     1      -5.621   4.000  69.915  1.00  0.00    -0.016 C  
ENDBRANCH  17  19
ENDBRANCH  10  15
ENDBRANCH   3   6
TORSDOF 3
ENDMDL
MODEL      188
REMARK 921   NORMALIZED FREE ENERGY PREDICTED BY IDOCK:   -2.24 KCAL/MOL
REMARK 922        TOTAL FREE ENERGY PREDICTED BY IDOCK:   -3.50 KCAL/MOL
REMARK 923 INTER-LIGAND FREE ENERGY PREDICTED BY IDOCK:   -2.81 KCAL/MOL
REMARK 924 INTRA-LIGAND FREE ENERGY PREDICTED BY IDOCK:   -0.69 KCAL/MOL
REMARK 927      BINDING AFFINITY PREDICTED BY RF-SCORE:    0.00 PKD
ROOT
HETATM    1  O   UNL     1     -10.323   8.937  69.869  1.00  0.00    -0.194 OA 
HETATM    2  S   UNL     1     -10.340   8.096  71.246  1.00  0.00    -0.205 S  
HETATM    3  O   UNL     1      -9.141   7.004  71.076  1.00  0.00    -0.151 OA 
HETATM    4  O   UNL     1     -11.615   7.408  71.312  1.00  0.00    -0.264 OA 
HETATM    5  O   UNL     1      -9.957   9.034  72.276  1.00  0.00    -0.230 OA 
ENDROOT
BRANCH   3   6
HETATM    6  N   UNL     1      -9.427   5.851  70.244  1.00  0.00    -0.159 N  
HETATM    7  C   UNL     1      -9.076   4.656  71.013  1.00  0.00    -0.132 C  
HETATM    8  C   UNL     1      -7.570   4.644  70.841  1.00  0.00    -0.068 C  
HETATM    9  N   UNL     1      -7.473   4.906  69.412  1.00  0.00    -0.056 N  
HETATM   10  C   UNL     1      -7.765   3.702  68.607  1.00  0.00    -0.056 C  
HETATM   11  C   UNL     1      -8.426   5.965  69.208  1.00  0.00    -0.113 C  
HETATM   12  O   UNL     1      -8.301   6.851  68.375  1.00  0.00    -0.119 OA 
HETATM   13  C   UNL     1      -9.186   3.173  68.907  1.00  0.00    -0.226 C  
HETATM   14  C   UNL     1      -9.573   3.326  70.388  1.00  0.00    -0.211 C  
BRANCH  10  15
HETATM   15  C   UNL     1      -7.569   3.768  67.074  1.00  0.00    -0.080 C  
HETATM   16  O   UNL     1      -7.742   2.782  66.359  1.00  0.00    -0.075 OA 
HETATM   17  N   UNL     1      -7.119   4.965  66.585  1.00  0.00    -0.067 N  
HETATM   18  H   UNL     1      -6.901   5.714  67.241  1.00  0.00     0.000 HD 
BRANCH  17  19
HETATM   19  C   UNL     1      -6.938   5.207  65.154  1.00  0.00    -0.061 C  
HETATM   20  C   UNL     1      -8.003   6.143  64.569  1.00  0.00    -0.123 C  
HETATM   21  C   UNL     1      -7.838   7.566  65.093  1.00  0.00    -0.122 C  
HETATM   22  N   UNL     1      -6.493   8.087  64.834  1.00  0.00    -0.048 NA 
HETATM   23  H   UNL     1      -6.399   9.047  65.166  1.00  0.00     0.000 HD 
HETATM   24  C   UNL     1      -5.448   7.228  65.396  1.00  0.00    -0.029 C  
HETATM   25  C   UNL     1      -5.550   5.787  64.895  1.00  0.00    -0.020 C  
ENDBRANCH  17  19
ENDBRANCH  10  15
ENDBRANCH   3   6
TORSDOF 3
ENDMDL
MODEL      189
REMARK 921   NORMALIZED FREE ENERGY PREDICTED BY IDOCK:   -2.13 KCAL/MOL
REMARK 922        TOTAL FREE ENERGY PREDICTED BY IDOCK:   -3.37 KCAL/MOL
REMARK 923 INTER-LIGAND FREE ENERGY PREDICTED BY IDOCK:   -4.03 KCAL/MOL
REMARK 924 INTRA-LIGAND FREE ENERGY PREDICTED BY IDOCK:    0.66 KCAL/MOL
REMARK 927      BINDING AFFINITY PREDICTED BY RF-SCORE:    0.00 PKD
ROOT
HETATM    1  O   UNL     1      -9.010  17.317  67.356  1.00  0.00    -0.219 OA 
HETATM    2  S   UNL     1      -9.890  18.316  68.268  1.00  0.00    -0.368 S  
HETATM    3  O   UNL     1     -10.282  17.435  69.583  1.00  0.00    -0.102 OA 
HETATM    4  O   UNL     1     -11.093  18.630  67.521  1.00  0.00    -0.303 OA 
HETATM    5  O   UNL     1      -8.984  19.364  68.678  1.00  0.00    -0.365 OA 
ENDROOT
BRANCH   3   6
HETATM    6  N   UNL     1     -11.351  16.468  69.421  1.00  0.00    -0.192 N  
HETATM    7  C   UNL     1     -11.832  16.118  70.758  1.00  0.00    -0.250 C  
HETATM    8  C   UNL     1     -10.759  15.140  71.195  1.00  0.00     0.118 C  
HETATM    9  N   UNL     1     -10.646  14.328  69.992  1.00  0.00     0.216 N  
HETATM   10  C   UNL     1     -11.752  13.354  69.875  1.00  0.00    -0.267 C  
HETATM   11  C   UNL     1     -10.642  15.306  68.935  1.00  0.00    -0.242 C  
HETATM   12  O   UNL     1     -10.030  15.181  67.886  1.00  0.00    -0.219 OA 
HETATM   13  C   UNL     1     -13.118  14.077  69.845  1.00  0.00     0.550 C  
HETATM   14  C   UNL     1     -13.156  15.308  70.768  1.00  0.00    -0.468 C  
BRANCH  10  15
HETATM   15  C   UNL     1     -11.710  12.317  68.728  1.00  0.00    -0.340 C  
HETATM   16  O   UNL     1     -12.392  12.450  67.713  1.00  0.00    -0.281 OA 
HETATM   17  N   UNL     1     -10.930  11.215  68.955  1.00  0.00    -0.219 N  
HETATM   18  H   UNL     1     -10.466  11.117  69.858  1.00  0.00     0.000 HD 
BRANCH  17  19
HETATM   19  C   UNL     1     -10.738  10.171  67.948  1.00  0.00    -0.269 C  
HETATM   20  C   UNL     1      -9.803  10.604  66.812  1.00  0.00    -0.240 C  
HETATM   21  C   UNL     1      -8.367  10.753  67.303  1.00  0.00    -0.124 C  
HETATM   22  N   UNL     1      -7.880   9.524  67.935  1.00  0.00    -0.091 NA 
HETATM   23  H   UNL     1      -6.911   9.624  68.239  1.00  0.00     0.000 HD 
HETATM   24  C   UNL     1      -8.738   9.090  69.040  1.00  0.00    -0.138 C  
HETATM   25  C   UNL     1     -10.192   8.907  68.606  1.00  0.00    -0.221 C  
ENDBRANCH  17  19
ENDBRANCH  10  15
ENDBRANCH   3   6
TORSDOF 3
ENDMDL
MODEL      190
REMARK 921   NORMALIZED FREE ENERGY PREDICTED BY IDOCK:   -2.05 KCAL/MOL
REMARK 922        TOTAL FREE ENERGY PREDICTED BY IDOCK:   -3.28 KCAL/MOL
REMARK 923 INTER-LIGAND FREE ENERGY PREDICTED BY IDOCK:   -3.36 KCAL/MOL
REMARK 924 INTRA-LIGAND FREE ENERGY PREDICTED BY IDOCK:    0.08 KCAL/MOL
REMARK 927      BINDING AFFINITY PREDICTED BY RF-SCORE:    0.00 PKD
ROOT
HETATM    1  O   UNL     1     -10.952  12.615  69.502  1.00  0.00    -0.065 OA 
HETATM    2  S   UNL     1     -11.893  11.362  69.885  1.00  0.00    -0.379 S  
HETATM    3  O   UNL     1     -10.893  10.309  70.628  1.00  0.00    -0.291 OA 
HETATM    4  O   UNL     1     -12.365  10.785  68.641  1.00  0.00    -0.430 OA 
HETATM    5  O   UNL     1     -12.829  11.866  70.864  1.00  0.00    -0.248 OA 
ENDROOT
BRANCH   3   6
HETATM    6  N   UNL     1     -10.020   9.529  69.772  1.00  0.00    -0.199 N  
HETATM    7  C   UNL     1     -10.845   8.520  69.106  1.00  0.00    -0.029 C  
HETATM    8  C   UNL     1     -10.986   7.496  70.215  1.00  0.00    -0.250 C  
HETATM    9  N   UNL     1      -9.608   7.429  70.678  1.00  0.00    -0.172 N  
HETATM   10  C   UNL     1      -8.759   6.618  69.779  1.00  0.00    -0.140 C  
HETATM   11  C   UNL     1      -9.211   8.812  70.731  1.00  0.00    -0.198 C  
HETATM   12  O   UNL     1      -8.422   9.270  71.544  1.00  0.00    -0.320 OA 
HETATM   13  C   UNL     1      -8.762   7.204  68.349  1.00  0.00    -0.125 C  
HETATM   14  C   UNL     1     -10.132   7.776  67.947  1.00  0.00    -0.232 C  
BRANCH  10  15
HETATM   15  C   UNL     1      -7.299   6.326  70.198  1.00  0.00    -0.085 C  
HETATM   16  O   UNL     1      -6.424   7.188  70.127  1.00  0.00    -0.040 OA 
HETATM   17  N   UNL     1      -7.038   5.036  70.574  1.00  0.00    -0.051 N  
HETATM   18  H   UNL     1      -7.786   4.346  70.519  1.00  0.00     0.000 HD 
BRANCH  17  19
HETATM   19  C   UNL     1      -5.722   4.613  71.053  1.00  0.00    -0.016 C  
HETATM   20  C   UNL     1      -5.460   5.013  72.510  1.00  0.00    -0.009 C  
HETATM   21  C   UNL     1      -6.348   4.227  73.469  1.00  0.00    -0.044 C  
HETATM   22  N   UNL     1      -6.188   2.781  73.293  1.00  0.00    -0.012 NA 
HETATM   23  H   UNL     1      -6.766   2.263  73.955  1.00  0.00     0.000 HD 
HETATM   24  C   UNL     1      -6.449   2.357  71.916  1.00  0.00    -0.015 C  
HETATM   25  C   UNL     1      -5.577   3.100  70.905  1.00  0.00    -0.013 C  
ENDBRANCH  17  19
ENDBRANCH  10  15
ENDBRANCH   3   6
TORSDOF 3
ENDMDL
MODEL      191
REMARK 921   NORMALIZED FREE ENERGY PREDICTED BY IDOCK:   -2.04 KCAL/MOL
REMARK 922        TOTAL FREE ENERGY PREDICTED BY IDOCK:   -3.26 KCAL/MOL
REMARK 923 INTER-LIGAND FREE ENERGY PREDICTED BY IDOCK:   -2.48 KCAL/MOL
REMARK 924 INTRA-LIGAND FREE ENERGY PREDICTED BY IDOCK:   -0.78 KCAL/MOL
REMARK 927      BINDING AFFINITY PREDICTED BY RF-SCORE:    0.00 PKD
ROOT
HETATM    1  O   UNL     1     -13.093   5.636  72.448  1.00  0.00     0.363 OA 
HETATM    2  S   UNL     1     -13.064   7.117  71.808  1.00  0.00    -0.247 S  
HETATM    3  O   UNL     1     -12.033   7.001  70.551  1.00  0.00    -0.325 OA 
HETATM    4  O   UNL     1     -12.507   8.005  72.810  1.00  0.00    -0.153 OA 
HETATM    5  O   UNL     1     -14.393   7.338  71.286  1.00  0.00    -0.402 OA 
ENDROOT
BRANCH   3   6
HETATM    6  N   UNL     1     -10.618   6.995  70.870  1.00  0.00    -0.215 N  
HETATM    7  C   UNL     1      -9.963   7.957  69.982  1.00  0.00    -0.191 C  
HETATM    8  C   UNL     1      -9.871   7.144  68.706  1.00  0.00    -0.158 C  
HETATM    9  N   UNL     1      -9.391   5.879  69.242  1.00  0.00    -0.127 N  
HETATM   10  C   UNL     1      -7.945   5.919  69.545  1.00  0.00    -0.105 C  
HETATM   11  C   UNL     1     -10.206   5.687  70.413  1.00  0.00    -0.235 C  
HETATM   12  O   UNL     1     -10.563   4.596  70.831  1.00  0.00    -0.051 OA 
HETATM   13  C   UNL     1      -7.630   7.030  70.571  1.00  0.00    -0.090 C  
HETATM   14  C   UNL     1      -8.497   8.286  70.367  1.00  0.00    -0.129 C  
BRANCH  10  15
HETATM   15  C   UNL     1      -7.242   4.614  69.989  1.00  0.00    -0.053 C  
HETATM   16  O   UNL     1      -6.456   4.022  69.250  1.00  0.00    -0.032 OA 
HETATM   17  N   UNL     1      -7.612   4.130  71.215  1.00  0.00    -0.058 N  
HETATM   18  H   UNL     1      -8.341   4.616  71.737  1.00  0.00     0.000 HD 
BRANCH  17  19
HETATM   19  C   UNL     1      -6.998   2.939  71.803  1.00  0.00    -0.031 C  
HETATM   20  C   UNL     1      -6.382   3.205  73.182  1.00  0.00    -0.013 C  
HETATM   21  C   UNL     1      -7.459   3.482  74.226  1.00  0.00    -0.054 C  
HETATM   22  N   UNL     1      -8.436   2.392  74.298  1.00  0.00    -0.066 NA 
HETATM   23  H   UNL     1      -9.138   2.574  75.015  1.00  0.00     0.000 HD 
HETATM   24  C   UNL     1      -9.062   2.122  73.001  1.00  0.00    -0.070 C  
HETATM   25  C   UNL     1      -8.032   1.821  71.912  1.00  0.00    -0.045 C  
ENDBRANCH  17  19
ENDBRANCH  10  15
ENDBRANCH   3   6
TORSDOF 3
ENDMDL
MODEL      192
REMARK 921   NORMALIZED FREE ENERGY PREDICTED BY IDOCK:   -2.01 KCAL/MOL
REMARK 922        TOTAL FREE ENERGY PREDICTED BY IDOCK:   -3.22 KCAL/MOL
REMARK 923 INTER-LIGAND FREE ENERGY PREDICTED BY IDOCK:   -4.84 KCAL/MOL
REMARK 924 INTRA-LIGAND FREE ENERGY PREDICTED BY IDOCK:    1.61 KCAL/MOL
REMARK 927      BINDING AFFINITY PREDICTED BY RF-SCORE:    0.00 PKD
ROOT
HETATM    1  O   UNL     1      -9.077  15.984  68.278  1.00  0.00    -0.185 OA 
HETATM    2  S   UNL     1      -9.963  17.297  68.585  1.00  0.00    -0.343 S  
HETATM    3  O   UNL     1     -10.608  17.023  70.057  1.00  0.00    -0.124 OA 
HETATM    4  O   UNL     1     -11.021  17.341  67.594  1.00  0.00    -0.286 OA 
HETATM    5  O   UNL     1      -9.017  18.384  68.698  1.00  0.00    -0.317 OA 
ENDROOT
BRANCH   3   6
HETATM    6  N   UNL     1     -11.738  16.116  70.112  1.00  0.00    -0.258 N  
HETATM    7  C   UNL     1     -12.296  16.192  71.463  1.00  0.00    -0.240 C  
HETATM    8  C   UNL     1     -11.316  15.317  72.221  1.00  0.00    -0.300 C  
HETATM    9  N   UNL     1     -11.216  14.190  71.304  1.00  0.00     0.700 N  
HETATM   10  C   UNL     1     -12.386  13.292  71.402  1.00  0.00    -0.074 C  
HETATM   11  C   UNL     1     -11.098  14.824  70.017  1.00  0.00    -0.204 C  
HETATM   12  O   UNL     1     -10.456  14.367  69.083  1.00  0.00    -0.238 OA 
HETATM   13  C   UNL     1     -13.692  14.056  71.089  1.00  0.00    -0.144 C  
HETATM   14  C   UNL     1     -13.675  15.499  71.623  1.00  0.00    -0.562 C  
BRANCH  10  15
HETATM   15  C   UNL     1     -12.376  11.969  70.599  1.00  0.00    -0.304 C  
HETATM   16  O   UNL     1     -12.417  11.961  69.370  1.00  0.00    -0.062 OA 
HETATM   17  N   UNL     1     -12.396  10.823  71.347  1.00  0.00    -0.351 N  
HETATM   18  H   UNL     1     -12.459  10.898  72.362  1.00  0.00     0.000 HD 
BRANCH  17  19
HETATM   19  C   UNL     1     -12.331   9.493  70.741  1.00  0.00    -0.162 C  
HETATM   20  C   UNL     1     -11.032   9.255  69.962  1.00  0.00    -0.254 C  
HETATM   21  C   UNL     1      -9.832   9.169  70.899  1.00  0.00    -0.291 C  
HETATM   22  N   UNL     1     -10.017   8.138  71.924  1.00  0.00    -0.194 NA 
HETATM   23  H   UNL     1      -9.199   8.071  72.531  1.00  0.00     0.000 HD 
HETATM   24  C   UNL     1     -11.239   8.343  72.703  1.00  0.00    -0.269 C  
HETATM   25  C   UNL     1     -12.484   8.422  71.819  1.00  0.00    -0.375 C  
ENDBRANCH  17  19
ENDBRANCH  10  15
ENDBRANCH   3   6
TORSDOF 3
ENDMDL
MODEL      193
REMARK 921   NORMALIZED FREE ENERGY PREDICTED BY IDOCK:   -2.00 KCAL/MOL
REMARK 922        TOTAL FREE ENERGY PREDICTED BY IDOCK:   -3.22 KCAL/MOL
REMARK 923 INTER-LIGAND FREE ENERGY PREDICTED BY IDOCK:   -2.53 KCAL/MOL
REMARK 924 INTRA-LIGAND FREE ENERGY PREDICTED BY IDOCK:   -0.68 KCAL/MOL
REMARK 927      BINDING AFFINITY PREDICTED BY RF-SCORE:    0.00 PKD
ROOT
HETATM    1  O   UNL     1     -10.362   5.379  65.606  1.00  0.00     0.055 OA 
HETATM    2  S   UNL     1      -9.331   4.163  65.359  1.00  0.00    -0.175 S  
HETATM    3  O   UNL     1      -8.902   3.676  66.855  1.00  0.00    -0.114 OA 
HETATM    4  O   UNL     1      -8.174   4.715  64.680  1.00  0.00    -0.103 OA 
HETATM    5  O   UNL     1     -10.112   3.113  64.747  1.00  0.00    -0.069 OA 
ENDROOT
BRANCH   3   6
HETATM    6  N   UNL     1      -7.932   4.499  67.552  1.00  0.00    -0.099 N  
HETATM    7  C   UNL     1      -6.903   3.606  68.086  1.00  0.00    -0.047 C  
HETATM    8  C   UNL     1      -7.609   3.066  69.314  1.00  0.00    -0.047 C  
HETATM    9  N   UNL     1      -8.159   4.300  69.857  1.00  0.00    -0.058 N  
HETATM   10  C   UNL     1      -7.136   5.100  70.563  1.00  0.00    -0.060 C  
HETATM   11  C   UNL     1      -8.688   4.963  68.693  1.00  0.00    -0.093 C  
HETATM   12  O   UNL     1      -9.677   5.681  68.702  1.00  0.00    -0.124 OA 
HETATM   13  C   UNL     1      -5.974   5.465  69.613  1.00  0.00    -0.017 C  
HETATM   14  C   UNL     1      -5.642   4.335  68.623  1.00  0.00    -0.013 C  
BRANCH  10  15
HETATM   15  C   UNL     1      -7.581   6.372  71.322  1.00  0.00    -0.094 C  
HETATM   16  O   UNL     1      -7.732   6.375  72.543  1.00  0.00    -0.099 OA 
HETATM   17  N   UNL     1      -7.867   7.459  70.539  1.00  0.00    -0.096 N  
HETATM   18  H   UNL     1      -7.816   7.363  69.525  1.00  0.00     0.000 HD 
BRANCH  17  19
HETATM   19  C   UNL     1      -8.245   8.753  71.106  1.00  0.00    -0.165 C  
HETATM   20  C   UNL     1      -8.086   9.909  70.111  1.00  0.00    -0.169 C  
HETATM   21  C   UNL     1      -9.109   9.815  68.984  1.00  0.00    -0.157 C  
HETATM   22  N   UNL     1     -10.480   9.760  69.500  1.00  0.00    -0.217 NA 
HETATM   23  H   UNL     1     -11.159   9.722  68.739  1.00  0.00     0.000 HD 
HETATM   24  C   UNL     1     -10.675   8.655  70.440  1.00  0.00    -0.224 C  
HETATM   25  C   UNL     1      -9.687   8.702  71.605  1.00  0.00    -0.348 C  
ENDBRANCH  17  19
ENDBRANCH  10  15
ENDBRANCH   3   6
TORSDOF 3
ENDMDL
MODEL      194
REMARK 921   NORMALIZED FREE ENERGY PREDICTED BY IDOCK:   -1.98 KCAL/MOL
REMARK 922        TOTAL FREE ENERGY PREDICTED BY IDOCK:   -3.20 KCAL/MOL
REMARK 923 INTER-LIGAND FREE ENERGY PREDICTED BY IDOCK:   -2.83 KCAL/MOL
REMARK 924 INTRA-LIGAND FREE ENERGY PREDICTED BY IDOCK:   -0.37 KCAL/MOL
REMARK 927      BINDING AFFINITY PREDICTED BY RF-SCORE:    0.00 PKD
ROOT
HETATM    1  O   UNL     1      -9.228  15.467  67.276  1.00  0.00    -0.201 OA 
HETATM    2  S   UNL     1      -8.130  15.874  68.386  1.00  0.00    -0.156 S  
HETATM    3  O   UNL     1      -6.914  14.810  68.171  1.00  0.00    -0.102 OA 
HETATM    4  O   UNL     1      -8.736  15.658  69.687  1.00  0.00    -0.245 OA 
HETATM    5  O   UNL     1      -7.659  17.185  68.003  1.00  0.00    -0.181 OA 
ENDROOT
BRANCH   3   6
HETATM    6  N   UNL     1      -7.116  13.476  68.704  1.00  0.00    -0.102 N  
HETATM    7  C   UNL     1      -5.826  13.006  69.211  1.00  0.00    -0.086 C  
HETATM    8  C   UNL     1      -5.150  12.592  67.919  1.00  0.00    -0.086 C  
HETATM    9  N   UNL     1      -6.236  11.859  67.285  1.00  0.00    -0.125 N  
HETATM   10  C   UNL     1      -6.399  10.505  67.856  1.00  0.00    -0.059 C  
HETATM   11  C   UNL     1      -7.379  12.706  67.510  1.00  0.00    -0.151 C  
HETATM   12  O   UNL     1      -8.318  12.811  66.735  1.00  0.00    -0.113 OA 
HETATM   13  C   UNL     1      -6.686  10.580  69.372  1.00  0.00    -0.076 C  
HETATM   14  C   UNL     1      -5.909  11.713  70.065  1.00  0.00    -0.141 C  
BRANCH  10  15
HETATM   15  C   UNL     1      -7.415   9.540  67.201  1.00  0.00    -0.091 C  
HETATM   16  O   UNL     1      -7.506   8.364  67.553  1.00  0.00    -0.091 OA 
HETATM   17  N   UNL     1      -8.141  10.059  66.163  1.00  0.00    -0.119 N  
HETATM   18  H   UNL     1      -7.949  11.012  65.856  1.00  0.00     0.000 HD 
BRANCH  17  19
HETATM   19  C   UNL     1      -9.182   9.294  65.478  1.00  0.00    -0.231 C  
HETATM   20  C   UNL     1     -10.529   9.330  66.211  1.00  0.00    -0.084 C  
HETATM   21  C   UNL     1     -11.153  10.720  66.156  1.00  0.00     0.136 C  
HETATM   22  N   UNL     1     -11.303  11.193  64.777  1.00  0.00     0.017 NA 
HETATM   23  H   UNL     1     -11.743  12.112  64.748  1.00  0.00     0.000 HD 
HETATM   24  C   UNL     1     -10.032  11.192  64.049  1.00  0.00    -0.323 C  
HETATM   25  C   UNL     1      -9.362   9.818  64.055  1.00  0.00    -0.215 C  
ENDBRANCH  17  19
ENDBRANCH  10  15
ENDBRANCH   3   6
TORSDOF 3
ENDMDL
MODEL      195
REMARK 921   NORMALIZED FREE ENERGY PREDICTED BY IDOCK:   -1.91 KCAL/MOL
REMARK 922        TOTAL FREE ENERGY PREDICTED BY IDOCK:   -3.11 KCAL/MOL
REMARK 923 INTER-LIGAND FREE ENERGY PREDICTED BY IDOCK:   -3.27 KCAL/MOL
REMARK 924 INTRA-LIGAND FREE ENERGY PREDICTED BY IDOCK:    0.16 KCAL/MOL
REMARK 927      BINDING AFFINITY PREDICTED BY RF-SCORE:    0.00 PKD
ROOT
HETATM    1  O   UNL     1      -7.448   9.479  71.744  1.00  0.00    -0.183 OA 
HETATM    2  S   UNL     1      -8.814   8.620  71.742  1.00  0.00    -0.184 S  
HETATM    3  O   UNL     1      -8.516   7.374  70.733  1.00  0.00    -0.128 OA 
HETATM    4  O   UNL     1      -9.849   9.464  71.175  1.00  0.00    -0.282 OA 
HETATM    5  O   UNL     1      -8.944   8.097  73.083  1.00  0.00    -0.234 OA 
ENDROOT
BRANCH   3   6
HETATM    6  N   UNL     1      -8.569   7.663  69.313  1.00  0.00    -0.135 N  
HETATM    7  C   UNL     1      -9.925   8.123  69.009  1.00  0.00    -0.189 C  
HETATM    8  C   UNL     1     -10.666   6.801  68.961  1.00  0.00    -0.246 C  
HETATM    9  N   UNL     1      -9.736   6.015  68.162  1.00  0.00    -0.123 N  
HETATM   10  C   UNL     1      -9.833   6.338  66.722  1.00  0.00    -0.164 C  
HETATM   11  C   UNL     1      -8.455   6.345  68.729  1.00  0.00    -0.121 C  
HETATM   12  O   UNL     1      -7.512   5.571  68.792  1.00  0.00    -0.076 OA 
HETATM   13  C   UNL     1      -9.538   7.835  66.476  1.00  0.00    -0.270 C  
HETATM   14  C   UNL     1     -10.088   8.738  67.594  1.00  0.00    -0.273 C  
BRANCH  10  15
HETATM   15  C   UNL     1      -9.016   5.494  65.715  1.00  0.00    -0.154 C  
HETATM   16  O   UNL     1      -8.650   5.957  64.636  1.00  0.00    -0.084 OA 
HETATM   17  N   UNL     1      -8.800   4.191  66.072  1.00  0.00    -0.118 N  
HETATM   18  H   UNL     1      -9.214   3.842  66.937  1.00  0.00     0.000 HD 
BRANCH  17  19
HETATM   19  C   UNL     1      -7.998   3.279  65.258  1.00  0.00    -0.082 C  
HETATM   20  C   UNL     1      -6.493   3.561  65.353  1.00  0.00    -0.032 C  
HETATM   21  C   UNL     1      -5.951   3.214  66.736  1.00  0.00    -0.024 C  
HETATM   22  N   UNL     1      -6.241   1.824  67.098  1.00  0.00    -0.020 NA 
HETATM   23  H   UNL     1      -5.854   1.593  68.014  1.00  0.00     0.000 HD 
HETATM   24  C   UNL     1      -7.673   1.522  67.038  1.00  0.00    -0.060 C  
HETATM   25  C   UNL     1      -8.274   1.834  65.667  1.00  0.00    -0.084 C  
ENDBRANCH  17  19
ENDBRANCH  10  15
ENDBRANCH   3   6
TORSDOF 3
ENDMDL
MODEL      196
REMARK 921   NORMALIZED FREE ENERGY PREDICTED BY IDOCK:   -1.87 KCAL/MOL
REMARK 922        TOTAL FREE ENERGY PREDICTED BY IDOCK:   -3.07 KCAL/MOL
REMARK 923 INTER-LIGAND FREE ENERGY PREDICTED BY IDOCK:   -2.81 KCAL/MOL
REMARK 924 INTRA-LIGAND FREE ENERGY PREDICTED BY IDOCK:   -0.25 KCAL/MOL
REMARK 927      BINDING AFFINITY PREDICTED BY RF-SCORE:    0.00 PKD
ROOT
HETATM    1  O   UNL     1     -11.278   5.620  70.823  1.00  0.00    -0.205 OA 
HETATM    2  S   UNL     1     -10.184   5.216  71.938  1.00  0.00    -0.213 S  
HETATM    3  O   UNL     1      -9.213   6.521  72.054  1.00  0.00    -0.148 OA 
HETATM    4  O   UNL     1      -9.428   4.097  71.410  1.00  0.00    -0.138 OA 
HETATM    5  O   UNL     1     -10.921   5.087  73.174  1.00  0.00    -0.257 OA 
ENDROOT
BRANCH   3   6
HETATM    6  N   UNL     1      -8.232   6.696  71.001  1.00  0.00    -0.119 N  
HETATM    7  C   UNL     1      -6.919   6.805  71.638  1.00  0.00    -0.070 C  
HETATM    8  C   UNL     1      -6.953   8.247  72.105  1.00  0.00    -0.088 C  
HETATM    9  N   UNL     1      -7.476   8.892  70.910  1.00  0.00    -0.090 N  
HETATM   10  C   UNL     1      -6.439   9.055  69.869  1.00  0.00    -0.038 C  
HETATM   11  C   UNL     1      -8.546   8.017  70.506  1.00  0.00    -0.134 C  
HETATM   12  O   UNL     1      -9.572   8.393  69.959  1.00  0.00    -0.166 OA 
HETATM   13  C   UNL     1      -5.851   7.685  69.462  1.00  0.00    -0.023 C  
HETATM   14  C   UNL     1      -5.723   6.720  70.654  1.00  0.00    -0.024 C  
BRANCH  10  15
HETATM   15  C   UNL     1      -6.790   9.849  68.588  1.00  0.00    -0.051 C  
HETATM   16  O   UNL     1      -6.477  11.032  68.458  1.00  0.00    -0.053 OA 
HETATM   17  N   UNL     1      -7.531   9.174  67.657  1.00  0.00    -0.084 N  
HETATM   18  H   UNL     1      -7.841   8.225  67.868  1.00  0.00     0.000 HD 
BRANCH  17  19
HETATM   19  C   UNL     1      -7.895   9.764  66.369  1.00  0.00    -0.106 C  
HETATM   20  C   UNL     1      -8.890   8.905  65.579  1.00  0.00    -0.238 C  
HETATM   21  C   UNL     1     -10.259   8.887  66.248  1.00  0.00    -0.133 C  
HETATM   22  N   UNL     1     -10.786  10.241  66.444  1.00  0.00    -0.094 NA 
HETATM   23  H   UNL     1     -11.712  10.218  66.870  1.00  0.00     0.000 HD 
HETATM   24  C   UNL     1      -9.870  11.086  67.212  1.00  0.00    -0.178 C  
HETATM   25  C   UNL     1      -8.479  11.158  66.582  1.00  0.00    -0.164 C  
ENDBRANCH  17  19
ENDBRANCH  10  15
ENDBRANCH   3   6
TORSDOF 3
ENDMDL
MODEL      197
REMARK 921   NORMALIZED FREE ENERGY PREDICTED BY IDOCK:   -1.73 KCAL/MOL
REMARK 922        TOTAL FREE ENERGY PREDICTED BY IDOCK:   -2.90 KCAL/MOL
REMARK 923 INTER-LIGAND FREE ENERGY PREDICTED BY IDOCK:   -2.87 KCAL/MOL
REMARK 924 INTRA-LIGAND FREE ENERGY PREDICTED BY IDOCK:   -0.03 KCAL/MOL
REMARK 927      BINDING AFFINITY PREDICTED BY RF-SCORE:    0.00 PKD
ROOT
HETATM    1  O   UNL     1     -13.093   5.636  72.448  1.00  0.00     0.363 OA 
HETATM    2  S   UNL     1     -13.055   7.122  71.822  1.00  0.00    -0.247 S  
HETATM    3  O   UNL     1     -12.020   7.013  70.566  1.00  0.00    -0.325 OA 
HETATM    4  O   UNL     1     -12.497   7.999  72.833  1.00  0.00    -0.074 OA 
HETATM    5  O   UNL     1     -14.381   7.355  71.297  1.00  0.00    -0.421 OA 
ENDROOT
BRANCH   3   6
HETATM    6  N   UNL     1     -10.606   6.997  70.891  1.00  0.00    -0.215 N  
HETATM    7  C   UNL     1     -10.259   8.323  71.405  1.00  0.00    -0.207 C  
HETATM    8  C   UNL     1     -10.147   9.106  70.112  1.00  0.00    -0.202 C  
HETATM    9  N   UNL     1      -9.366   8.171  69.313  1.00  0.00    -0.152 N  
HETATM   10  C   UNL     1      -7.933   8.197  69.674  1.00  0.00    -0.115 C  
HETATM   11  C   UNL     1      -9.993   6.904  69.585  1.00  0.00    -0.171 C  
HETATM   12  O   UNL     1     -10.075   5.991  68.777  1.00  0.00    -0.146 OA 
HETATM   13  C   UNL     1      -7.737   7.841  71.165  1.00  0.00    -0.084 C  
HETATM   14  C   UNL     1      -8.855   8.406  72.060  1.00  0.00    -0.277 C  
BRANCH  10  15
HETATM   15  C   UNL     1      -6.939   7.368  68.827  1.00  0.00    -0.078 C  
HETATM   16  O   UNL     1      -5.954   6.831  69.332  1.00  0.00    -0.021 OA 
HETATM   17  N   UNL     1      -7.187   7.341  67.481  1.00  0.00    -0.088 N  
HETATM   18  H   UNL     1      -7.966   7.887  67.113  1.00  0.00     0.000 HD 
BRANCH  17  19
HETATM   19  C   UNL     1      -6.375   6.556  66.552  1.00  0.00    -0.042 C  
HETATM   20  C   UNL     1      -7.202   5.556  65.734  1.00  0.00    -0.068 C  
HETATM   21  C   UNL     1      -8.110   6.272  64.740  1.00  0.00    -0.127 C  
HETATM   22  N   UNL     1      -7.352   7.161  63.856  1.00  0.00    -0.081 NA 
HETATM   23  H   UNL     1      -7.964   7.617  63.178  1.00  0.00     0.000 HD 
HETATM   24  C   UNL     1      -6.564   8.144  64.602  1.00  0.00    -0.064 C  
HETATM   25  C   UNL     1      -5.619   7.487  65.607  1.00  0.00    -0.033 C  
ENDBRANCH  17  19
ENDBRANCH  10  15
ENDBRANCH   3   6
TORSDOF 3
ENDMDL
MODEL      198
REMARK 921   NORMALIZED FREE ENERGY PREDICTED BY IDOCK:   -1.71 KCAL/MOL
REMARK 922        TOTAL FREE ENERGY PREDICTED BY IDOCK:   -2.88 KCAL/MOL
REMARK 923 INTER-LIGAND FREE ENERGY PREDICTED BY IDOCK:   -2.80 KCAL/MOL
REMARK 924 INTRA-LIGAND FREE ENERGY PREDICTED BY IDOCK:   -0.08 KCAL/MOL
REMARK 927      BINDING AFFINITY PREDICTED BY RF-SCORE:    0.00 PKD
ROOT
HETATM    1  O   UNL     1      -8.477   9.927  66.480  1.00  0.00    -0.124 OA 
HETATM    2  S   UNL     1      -8.955  10.339  67.965  1.00  0.00    -0.133 S  
HETATM    3  O   UNL     1      -8.468   9.104  68.911  1.00  0.00    -0.125 OA 
HETATM    4  O   UNL     1     -10.405  10.393  67.948  1.00  0.00    -0.170 OA 
HETATM    5  O   UNL     1      -8.180  11.508  68.310  1.00  0.00    -0.137 OA 
ENDROOT
BRANCH   3   6
HETATM    6  N   UNL     1      -9.274   7.898  68.870  1.00  0.00    -0.144 N  
HETATM    7  C   UNL     1     -10.445   8.124  69.718  1.00  0.00    -0.227 C  
HETATM    8  C   UNL     1      -9.845   7.902  71.092  1.00  0.00    -0.165 C  
HETATM    9  N   UNL     1      -9.081   6.688  70.845  1.00  0.00    -0.154 N  
HETATM   10  C   UNL     1      -9.943   5.487  70.820  1.00  0.00    -0.201 C  
HETATM   11  C   UNL     1      -8.445   6.952  69.581  1.00  0.00    -0.133 C  
HETATM   12  O   UNL     1      -7.343   6.528  69.265  1.00  0.00    -0.087 OA 
HETATM   13  C   UNL     1     -11.023   5.611  69.722  1.00  0.00    -0.301 C  
HETATM   14  C   UNL     1     -11.554   7.048  69.575  1.00  0.00    -0.002 C  
BRANCH  10  15
HETATM   15  C   UNL     1      -9.275   4.096  70.710  1.00  0.00    -0.127 C  
HETATM   16  O   UNL     1      -9.508   3.204  71.525  1.00  0.00    -0.121 OA 
HETATM   17  N   UNL     1      -8.360   3.956  69.702  1.00  0.00    -0.056 N  
HETATM   18  H   UNL     1      -8.140   4.764  69.120  1.00  0.00     0.000 HD 
BRANCH  17  19
HETATM   19  C   UNL     1      -7.685   2.687  69.429  1.00  0.00    -0.043 C  
HETATM   20  C   UNL     1      -8.549   1.714  68.618  1.00  0.00    -0.092 C  
HETATM   21  C   UNL     1      -8.749   2.211  67.190  1.00  0.00    -0.119 C  
HETATM   22  N   UNL     1      -7.471   2.453  66.515  1.00  0.00    -0.069 NA 
HETATM   23  H   UNL     1      -7.614   2.761  65.553  1.00  0.00     0.000 HD 
HETATM   24  C   UNL     1      -6.625   3.394  67.252  1.00  0.00    -0.038 C  
HETATM   25  C   UNL     1      -6.373   2.944  68.691  1.00  0.00    -0.029 C  
ENDBRANCH  17  19
ENDBRANCH  10  15
ENDBRANCH   3   6
TORSDOF 3
ENDMDL
MODEL      199
REMARK 921   NORMALIZED FREE ENERGY PREDICTED BY IDOCK:   -1.58 KCAL/MOL
REMARK 922        TOTAL FREE ENERGY PREDICTED BY IDOCK:   -2.73 KCAL/MOL
REMARK 923 INTER-LIGAND FREE ENERGY PREDICTED BY IDOCK:   -2.71 KCAL/MOL
REMARK 924 INTRA-LIGAND FREE ENERGY PREDICTED BY IDOCK:   -0.02 KCAL/MOL
REMARK 927      BINDING AFFINITY PREDICTED BY RF-SCORE:    0.00 PKD
ROOT
HETATM    1  O   UNL     1     -12.008  16.073  69.776  1.00  0.00    -0.297 OA 
HETATM    2  S   UNL     1     -11.758  14.749  70.664  1.00  0.00    -0.293 S  
HETATM    3  O   UNL     1     -10.523  13.984  69.923  1.00  0.00     0.256 OA 
HETATM    4  O   UNL     1     -12.956  13.938  70.569  1.00  0.00    -0.240 OA 
HETATM    5  O   UNL     1     -11.293  15.226  71.946  1.00  0.00    -0.426 OA 
ENDROOT
BRANCH   3   6
HETATM    6  N   UNL     1     -10.847  13.245  68.718  1.00  0.00    -0.249 N  
HETATM    7  C   UNL     1     -11.586  12.048  69.123  1.00  0.00    -0.312 C  
HETATM    8  C   UNL     1     -10.449  11.160  69.589  1.00  0.00     0.050 C  
HETATM    9  N   UNL     1      -9.505  11.360  68.500  1.00  0.00    -0.187 N  
HETATM   10  C   UNL     1      -9.872  10.582  67.298  1.00  0.00    -0.177 C  
HETATM   11  C   UNL     1      -9.548  12.783  68.284  1.00  0.00    -0.211 C  
HETATM   12  O   UNL     1      -8.593  13.452  67.919  1.00  0.00    -0.161 OA 
HETATM   13  C   UNL     1     -11.279  10.978  66.797  1.00  0.00    -0.163 C  
HETATM   14  C   UNL     1     -12.253  11.283  67.950  1.00  0.00     0.457 C  
BRANCH  10  15
HETATM   15  C   UNL     1      -8.899  10.568  66.095  1.00  0.00    -0.159 C  
HETATM   16  O   UNL     1      -8.928  11.444  65.233  1.00  0.00    -0.137 OA 
HETATM   17  N   UNL     1      -8.067   9.483  66.019  1.00  0.00    -0.110 N  
HETATM   18  H   UNL     1      -8.159   8.742  66.714  1.00  0.00     0.000 HD 
BRANCH  17  19
HETATM   19  C   UNL     1      -7.050   9.349  64.977  1.00  0.00    -0.101 C  
HETATM   20  C   UNL     1      -5.621   9.341  65.534  1.00  0.00    -0.048 C  
HETATM   21  C   UNL     1      -5.344   8.068  66.328  1.00  0.00    -0.025 C  
HETATM   22  N   UNL     1      -5.595   6.865  65.529  1.00  0.00    -0.030 NA 
HETATM   23  H   UNL     1      -5.384   6.020  66.059  1.00  0.00     0.000 HD 
HETATM   24  C   UNL     1      -6.958   6.829  64.995  1.00  0.00    -0.051 C  
HETATM   25  C   UNL     1      -7.293   8.074  64.174  1.00  0.00    -0.096 C  
ENDBRANCH  17  19
ENDBRANCH  10  15
ENDBRANCH   3   6
TORSDOF 3
ENDMDL
MODEL      200
REMARK 921   NORMALIZED FREE ENERGY PREDICTED BY IDOCK:   -1.52 KCAL/MOL
REMARK 922        TOTAL FREE ENERGY PREDICTED BY IDOCK:   -2.66 KCAL/MOL
REMARK 923 INTER-LIGAND FREE ENERGY PREDICTED BY IDOCK:   -3.84 KCAL/MOL
REMARK 924 INTRA-LIGAND FREE ENERGY PREDICTED BY IDOCK:    1.19 KCAL/MOL
REMARK 927      BINDING AFFINITY PREDICTED BY RF-SCORE:    0.00 PKD
ROOT
HETATM    1  O   UNL     1     -11.456  17.165  67.763  1.00  0.00     0.093 OA 
HETATM    2  S   UNL     1      -9.919  16.683  67.669  1.00  0.00    -0.271 S  
HETATM    3  O   UNL     1      -9.956  15.376  66.694  1.00  0.00    -0.246 OA 
HETATM    4  O   UNL     1      -9.514  16.280  69.002  1.00  0.00    -0.239 OA 
HETATM    5  O   UNL     1      -9.223  17.744  66.978  1.00  0.00    -0.244 OA 
ENDROOT
BRANCH   3   6
HETATM    6  N   UNL     1     -10.421  14.137  67.287  1.00  0.00    -0.271 N  
HETATM    7  C   UNL     1      -9.704  13.960  68.551  1.00  0.00    -0.202 C  
HETATM    8  C   UNL     1      -8.371  13.441  68.048  1.00  0.00    -0.165 C  
HETATM    9  N   UNL     1      -8.830  12.455  67.079  1.00  0.00    -0.205 N  
HETATM   10  C   UNL     1      -9.285  11.209  67.730  1.00  0.00    -0.153 C  
HETATM   11  C   UNL     1      -9.884  13.145  66.383  1.00  0.00    -0.279 C  
HETATM   12  O   UNL     1     -10.155  12.975  65.204  1.00  0.00    -0.279 OA 
HETATM   13  C   UNL     1     -10.441  11.495  68.714  1.00  0.00    -0.227 C  
HETATM   14  C   UNL     1     -10.270  12.833  69.454  1.00  0.00     0.570 C  
BRANCH  10  15
HETATM   15  C   UNL     1      -9.671  10.004  66.839  1.00  0.00    -0.189 C  
HETATM   16  O   UNL     1      -9.793  10.117  65.620  1.00  0.00    -0.242 OA 
HETATM   17  N   UNL     1      -9.941   8.838  67.505  1.00  0.00    -0.183 N  
HETATM   18  H   UNL     1      -9.916   8.836  68.524  1.00  0.00     0.000 HD 
BRANCH  17  19
HETATM   19  C   UNL     1     -10.264   7.595  66.805  1.00  0.00    -0.263 C  
HETATM   20  C   UNL     1      -9.022   6.765  66.460  1.00  0.00    -0.162 C  
HETATM   21  C   UNL     1      -8.374   6.191  67.716  1.00  0.00    -0.116 C  
HETATM   22  N   UNL     1      -9.323   5.400  68.503  1.00  0.00    -0.114 NA 
HETATM   23  H   UNL     1      -8.875   5.000  69.328  1.00  0.00     0.000 HD 
HETATM   24  C   UNL     1     -10.516   6.167  68.868  1.00  0.00    -0.238 C  
HETATM   25  C   UNL     1     -11.222   6.757  67.648  1.00  0.00    -0.220 C  
ENDBRANCH  17  19
ENDBRANCH  10  15
ENDBRANCH   3   6
TORSDOF 3
ENDMDL
MODEL      201
REMARK 921   NORMALIZED FREE ENERGY PREDICTED BY IDOCK:   -1.46 KCAL/MOL
REMARK 922        TOTAL FREE ENERGY PREDICTED BY IDOCK:   -2.58 KCAL/MOL
REMARK 923 INTER-LIGAND FREE ENERGY PREDICTED BY IDOCK:   -2.52 KCAL/MOL
REMARK 924 INTRA-LIGAND FREE ENERGY PREDICTED BY IDOCK:   -0.06 KCAL/MOL
REMARK 927      BINDING AFFINITY PREDICTED BY RF-SCORE:    0.00 PKD
ROOT
HETATM    1  O   UNL     1      -6.787  10.370  70.697  1.00  0.00    -0.328 OA 
HETATM    2  S   UNL     1      -8.084   9.411  70.693  1.00  0.00    -0.106 S  
HETATM    3  O   UNL     1      -7.688   8.187  69.691  1.00  0.00    -0.096 OA 
HETATM    4  O   UNL     1      -9.178  10.171  70.120  1.00  0.00    -0.117 OA 
HETATM    5  O   UNL     1      -8.179   8.885  72.036  1.00  0.00    -0.362 OA 
ENDROOT
BRANCH   3   6
HETATM    6  N   UNL     1      -7.758   8.465  68.269  1.00  0.00    -0.104 N  
HETATM    7  C   UNL     1      -9.173   8.493  67.896  1.00  0.00    -0.139 C  
HETATM    8  C   UNL     1      -9.470   7.008  67.812  1.00  0.00    -0.124 C  
HETATM    9  N   UNL     1      -8.307   6.555  67.063  1.00  0.00    -0.112 N  
HETATM   10  C   UNL     1      -8.427   6.853  65.620  1.00  0.00    -0.136 C  
HETATM   11  C   UNL     1      -7.218   7.254  67.694  1.00  0.00    -0.091 C  
HETATM   12  O   UNL     1      -6.087   6.805  67.806  1.00  0.00    -0.026 OA 
HETATM   13  C   UNL     1      -8.593   8.372  65.386  1.00  0.00    -0.193 C  
HETATM   14  C   UNL     1      -9.447   9.048  66.473  1.00  0.00    -0.266 C  
BRANCH  10  15
HETATM   15  C   UNL     1      -7.343   6.314  64.657  1.00  0.00    -0.073 C  
HETATM   16  O   UNL     1      -6.856   7.020  63.775  1.00  0.00    -0.048 OA 
HETATM   17  N   UNL     1      -7.026   4.991  64.804  1.00  0.00    -0.049 N  
HETATM   18  H   UNL     1      -7.536   4.435  65.491  1.00  0.00     0.000 HD 
BRANCH  17  19
HETATM   19  C   UNL     1      -5.981   4.344  64.011  1.00  0.00    -0.018 C  
HETATM   20  C   UNL     1      -5.385   3.111  64.701  1.00  0.00    -0.009 C  
HETATM   21  C   UNL     1      -6.397   1.972  64.769  1.00  0.00    -0.019 C  
HETATM   22  N   UNL     1      -6.912   1.624  63.442  1.00  0.00    -0.030 NA 
HETATM   23  H   UNL     1      -7.569   0.845  63.494  1.00  0.00     0.000 HD 
HETATM   24  C   UNL     1      -7.507   2.774  62.759  1.00  0.00    -0.053 C  
HETATM   25  C   UNL     1      -6.534   3.948  62.645  1.00  0.00    -0.022 C  
ENDBRANCH  17  19
ENDBRANCH  10  15
ENDBRANCH   3   6
TORSDOF 3
ENDMDL
MODEL      202
REMARK 921   NORMALIZED FREE ENERGY PREDICTED BY IDOCK:   -1.03 KCAL/MOL
REMARK 922        TOTAL FREE ENERGY PREDICTED BY IDOCK:   -2.07 KCAL/MOL
REMARK 923 INTER-LIGAND FREE ENERGY PREDICTED BY IDOCK:   -2.19 KCAL/MOL
REMARK 924 INTRA-LIGAND FREE ENERGY PREDICTED BY IDOCK:    0.12 KCAL/MOL
REMARK 927      BINDING AFFINITY PREDICTED BY RF-SCORE:    0.00 PKD
ROOT
HETATM    1  O   UNL     1     -10.084  19.959  66.473  1.00  0.00    -0.417 OA 
HETATM    2  S   UNL     1      -8.496  19.762  66.273  1.00  0.00    -0.333 S  
HETATM    3  O   UNL     1      -8.290  18.147  66.182  1.00  0.00    -0.440 OA 
HETATM    4  O   UNL     1      -7.848  20.264  67.469  1.00  0.00    -0.295 OA 
HETATM    5  O   UNL     1      -8.195  20.331  64.980  1.00  0.00     0.214 OA 
ENDROOT
BRANCH   3   6
HETATM    6  N   UNL     1      -8.331  17.416  67.434  1.00  0.00    -0.203 N  
HETATM    7  C   UNL     1      -7.120  17.757  68.182  1.00  0.00    -0.219 C  
HETATM    8  C   UNL     1      -6.102  16.877  67.483  1.00  0.00    -0.147 C  
HETATM    9  N   UNL     1      -6.846  15.628  67.415  1.00  0.00    -0.191 N  
HETATM   10  C   UNL     1      -6.853  14.916  68.711  1.00  0.00    -0.102 C  
HETATM   11  C   UNL     1      -8.157  16.049  66.996  1.00  0.00    -0.222 C  
HETATM   12  O   UNL     1      -8.900  15.382  66.292  1.00  0.00    -0.304 OA 
HETATM   13  C   UNL     1      -7.483  15.795  69.815  1.00  0.00     0.008 C  
HETATM   14  C   UNL     1      -7.128  17.284  69.659  1.00  0.00     0.207 C  
BRANCH  10  15
HETATM   15  C   UNL     1      -7.479  13.503  68.778  1.00  0.00    -0.071 C  
HETATM   16  O   UNL     1      -8.319  13.211  69.628  1.00  0.00     1.128 OA 
HETATM   17  N   UNL     1      -6.980  12.591  67.888  1.00  0.00    -0.091 N  
HETATM   18  H   UNL     1      -6.215  12.870  67.274  1.00  0.00     0.000 HD 
BRANCH  17  19
HETATM   19  C   UNL     1      -7.505  11.230  67.785  1.00  0.00    -0.095 C  
HETATM   20  C   UNL     1      -8.985  11.190  67.384  1.00  0.00    -0.139 C  
HETATM   21  C   UNL     1      -9.180  11.650  65.943  1.00  0.00    -0.196 C  
HETATM   22  N   UNL     1      -8.370  10.865  65.008  1.00  0.00    -0.369 NA 
HETATM   23  H   UNL     1      -8.525  11.163  64.045  1.00  0.00     0.000 HD 
HETATM   24  C   UNL     1      -6.946  10.895  65.348  1.00  0.00     0.171 C  
HETATM   25  C   UNL     1      -6.682  10.428  66.780  1.00  0.00    -0.086 C  
ENDBRANCH  17  19
ENDBRANCH  10  15
ENDBRANCH   3   6
TORSDOF 3
ENDMDL
MODEL      203
REMARK 921   NORMALIZED FREE ENERGY PREDICTED BY IDOCK:   -0.83 KCAL/MOL
REMARK 922        TOTAL FREE ENERGY PREDICTED BY IDOCK:   -1.84 KCAL/MOL
REMARK 923 INTER-LIGAND FREE ENERGY PREDICTED BY IDOCK:   -1.62 KCAL/MOL
REMARK 924 INTRA-LIGAND FREE ENERGY PREDICTED BY IDOCK:   -0.23 KCAL/MOL
REMARK 927      BINDING AFFINITY PREDICTED BY RF-SCORE:    0.00 PKD
ROOT
HETATM    1  O   UNL     1      -9.851  14.545  65.945  1.00  0.00    -0.305 OA 
HETATM    2  S   UNL     1     -11.079  13.607  65.480  1.00  0.00    -0.301 S  
HETATM    3  O   UNL     1     -11.413  12.689  66.786  1.00  0.00    -0.310 OA 
HETATM    4  O   UNL     1     -10.590  12.763  64.407  1.00  0.00    -0.333 OA 
HETATM    5  O   UNL     1     -12.190  14.505  65.261  1.00  0.00    -0.374 OA 
ENDROOT
BRANCH   3   6
HETATM    6  N   UNL     1     -10.519  11.576  67.041  1.00  0.00    -0.219 N  
HETATM    7  C   UNL     1     -11.338  10.365  67.122  1.00  0.00     0.192 C  
HETATM    8  C   UNL     1     -11.890  10.492  68.529  1.00  0.00     0.083 C  
HETATM    9  N   UNL     1     -10.678  10.858  69.247  1.00  0.00    -0.224 N  
HETATM   10  C   UNL     1      -9.804   9.691  69.491  1.00  0.00    -0.206 C  
HETATM   11  C   UNL     1     -10.074  11.845  68.390  1.00  0.00    -0.206 C  
HETATM   12  O   UNL     1      -9.415  12.793  68.791  1.00  0.00    -0.047 OA 
HETATM   13  C   UNL     1      -9.394   9.025  68.158  1.00  0.00    -0.151 C  
HETATM   14  C   UNL     1     -10.526   9.043  67.115  1.00  0.00    -0.333 C  
BRANCH  10  15
HETATM   15  C   UNL     1      -8.541   9.878  70.365  1.00  0.00     0.086 C  
HETATM   16  O   UNL     1      -8.076  10.994  70.595  1.00  0.00     1.515 OA 
HETATM   17  N   UNL     1      -7.942   8.725  70.795  1.00  0.00    -0.112 N  
HETATM   18  H   UNL     1      -8.322   7.829  70.489  1.00  0.00     0.000 HD 
BRANCH  17  19
HETATM   19  C   UNL     1      -6.776   8.731  71.677  1.00  0.00    -0.076 C  
HETATM   20  C   UNL     1      -7.031   8.014  73.008  1.00  0.00    -0.115 C  
HETATM   21  C   UNL     1      -7.191   6.511  72.806  1.00  0.00    -0.081 C  
HETATM   22  N   UNL     1      -6.035   5.930  72.119  1.00  0.00    -0.038 NA 
HETATM   23  H   UNL     1      -6.139   4.921  72.009  1.00  0.00     0.000 HD 
HETATM   24  C   UNL     1      -5.772   6.577  70.832  1.00  0.00    -0.027 C  
HETATM   25  C   UNL     1      -5.585   8.088  70.970  1.00  0.00    -0.033 C  
ENDBRANCH  17  19
ENDBRANCH  10  15
ENDBRANCH   3   6
TORSDOF 3
ENDMDL
MODEL      204
REMARK 921   NORMALIZED FREE ENERGY PREDICTED BY IDOCK:   -0.66 KCAL/MOL
REMARK 922        TOTAL FREE ENERGY PREDICTED BY IDOCK:   -1.65 KCAL/MOL
REMARK 923 INTER-LIGAND FREE ENERGY PREDICTED BY IDOCK:   -1.96 KCAL/MOL
REMARK 924 INTRA-LIGAND FREE ENERGY PREDICTED BY IDOCK:    0.32 KCAL/MOL
REMARK 927      BINDING AFFINITY PREDICTED BY RF-SCORE:    0.00 PKD
ROOT
HETATM    1  O   UNL     1      -9.979  14.395  65.873  1.00  0.00    -0.302 OA 
HETATM    2  S   UNL     1     -10.708  13.256  64.992  1.00  0.00    -0.353 S  
HETATM    3  O   UNL     1     -10.944  12.021  66.030  1.00  0.00    -0.281 OA 
HETATM    4  O   UNL     1      -9.773  12.849  63.961  1.00  0.00    -0.145 OA 
HETATM    5  O   UNL     1     -11.997  13.806  64.641  1.00  0.00    -0.379 OA 
ENDROOT
BRANCH   3   6
HETATM    6  N   UNL     1      -9.788  11.199  66.333  1.00  0.00    -0.205 N  
HETATM    7  C   UNL     1      -9.568  10.313  65.189  1.00  0.00    -0.277 C  
HETATM    8  C   UNL     1     -10.624   9.256  65.443  1.00  0.00     1.665 C  
HETATM    9  N   UNL     1     -10.418   9.025  66.866  1.00  0.00    -0.250 N  
HETATM   10  C   UNL     1      -9.235   8.177  67.124  1.00  0.00    -0.145 C  
HETATM   11  C   UNL     1     -10.283  10.356  67.398  1.00  0.00    -0.214 C  
HETATM   12  O   UNL     1     -10.652  10.690  68.514  1.00  0.00    -0.178 OA 
HETATM   13  C   UNL     1      -7.957   8.828  66.549  1.00  0.00    -0.103 C  
HETATM   14  C   UNL     1      -8.213   9.558  65.218  1.00  0.00    -0.131 C  
BRANCH  10  15
HETATM   15  C   UNL     1      -8.953   7.716  68.573  1.00  0.00    -0.129 C  
HETATM   16  O   UNL     1      -9.480   8.268  69.539  1.00  0.00    -0.161 OA 
HETATM   17  N   UNL     1      -8.028   6.716  68.708  1.00  0.00    -0.117 N  
HETATM   18  H   UNL     1      -7.556   6.367  67.874  1.00  0.00     0.000 HD 
BRANCH  17  19
HETATM   19  C   UNL     1      -7.693   6.129  70.005  1.00  0.00    -0.097 C  
HETATM   20  C   UNL     1      -7.984   4.625  70.072  1.00  0.00    -0.064 C  
HETATM   21  C   UNL     1      -7.031   3.836  69.181  1.00  0.00    -0.046 C  
HETATM   22  N   UNL     1      -5.629   4.107  69.511  1.00  0.00    -0.016 NA 
HETATM   23  H   UNL     1      -4.999   3.558  68.927  1.00  0.00     0.000 HD 
HETATM   24  C   UNL     1      -5.309   5.534  69.438  1.00  0.00    -0.004 C  
HETATM   25  C   UNL     1      -6.222   6.380  70.326  1.00  0.00    -0.035 C  
ENDBRANCH  17  19
ENDBRANCH  10  15
ENDBRANCH   3   6
TORSDOF 3
ENDMDL
MODEL      205
REMARK 921   NORMALIZED FREE ENERGY PREDICTED BY IDOCK:   -0.66 KCAL/MOL
REMARK 922        TOTAL FREE ENERGY PREDICTED BY IDOCK:   -1.64 KCAL/MOL
REMARK 923 INTER-LIGAND FREE ENERGY PREDICTED BY IDOCK:   -1.65 KCAL/MOL
REMARK 924 INTRA-LIGAND FREE ENERGY PREDICTED BY IDOCK:    0.01 KCAL/MOL
REMARK 927      BINDING AFFINITY PREDICTED BY RF-SCORE:    0.00 PKD
ROOT
HETATM    1  O   UNL     1      -6.108  11.381  70.597  1.00  0.00    -0.316 OA 
HETATM    2  S   UNL     1      -6.481   9.848  70.933  1.00  0.00     0.021 S  
HETATM    3  O   UNL     1      -6.339   9.067  69.508  1.00  0.00    -0.042 OA 
HETATM    4  O   UNL     1      -7.868   9.828  71.358  1.00  0.00    -0.048 OA 
HETATM    5  O   UNL     1      -5.436   9.379  71.813  1.00  0.00    -0.066 OA 
ENDROOT
BRANCH   3   6
HETATM    6  N   UNL     1      -7.427   9.237  68.564  1.00  0.00    -0.080 N  
HETATM    7  C   UNL     1      -8.603   8.569  69.124  1.00  0.00    -0.133 C  
HETATM    8  C   UNL     1      -8.290   7.123  68.793  1.00  0.00    -0.126 C  
HETATM    9  N   UNL     1      -7.857   7.266  67.410  1.00  0.00    -0.110 N  
HETATM   10  C   UNL     1      -8.999   7.428  66.486  1.00  0.00    -0.159 C  
HETATM   11  C   UNL     1      -6.997   8.420  67.452  1.00  0.00    -0.071 C  
HETATM   12  O   UNL     1      -6.018   8.574  66.737  1.00  0.00    -0.050 OA 
HETATM   13  C   UNL     1      -9.835   8.672  66.862  1.00  0.00    -0.305 C  
HETATM   14  C   UNL     1      -9.929   8.884  68.383  1.00  0.00    -0.198 C  
BRANCH  10  15
HETATM   15  C   UNL     1      -8.725   7.450  64.963  1.00  0.00     0.215 C  
HETATM   16  O   UNL     1      -9.154   8.352  64.245  1.00  0.00     0.355 OA 
HETATM   17  N   UNL     1      -8.048   6.369  64.467  1.00  0.00    -0.196 N  
HETATM   18  H   UNL     1      -7.805   5.608  65.101  1.00  0.00     0.000 HD 
BRANCH  17  19
HETATM   19  C   UNL     1      -7.661   6.266  63.061  1.00  0.00    -0.080 C  
HETATM   20  C   UNL     1      -6.165   5.988  62.873  1.00  0.00    -0.025 C  
HETATM   21  C   UNL     1      -5.800   4.583  63.342  1.00  0.00    -0.017 C  
HETATM   22  N   UNL     1      -6.605   3.560  62.670  1.00  0.00    -0.025 NA 
HETATM   23  H   UNL     1      -6.337   2.623  62.971  1.00  0.00     0.000 HD 
HETATM   24  C   UNL     1      -8.042   3.782  62.844  1.00  0.00    -0.076 C  
HETATM   25  C   UNL     1      -8.475   5.171  62.375  1.00  0.00    -0.114 C  
ENDBRANCH  17  19
ENDBRANCH  10  15
ENDBRANCH   3   6
TORSDOF 3
ENDMDL
MODEL      206
REMARK 921   NORMALIZED FREE ENERGY PREDICTED BY IDOCK:   -0.43 KCAL/MOL
REMARK 922        TOTAL FREE ENERGY PREDICTED BY IDOCK:   -1.37 KCAL/MOL
REMARK 923 INTER-LIGAND FREE ENERGY PREDICTED BY IDOCK:   -4.42 KCAL/MOL
REMARK 924 INTRA-LIGAND FREE ENERGY PREDICTED BY IDOCK:    3.05 KCAL/MOL
REMARK 927      BINDING AFFINITY PREDICTED BY RF-SCORE:    0.00 PKD
ROOT
HETATM    1  O   UNL     1      -5.684   9.518  66.720  1.00  0.00    -0.049 OA 
HETATM    2  S   UNL     1      -6.218   8.415  67.770  1.00  0.00    -0.053 S  
HETATM    3  O   UNL     1      -7.837   8.412  67.576  1.00  0.00    -0.097 OA 
HETATM    4  O   UNL     1      -5.891   8.896  69.099  1.00  0.00    -0.038 OA 
HETATM    5  O   UNL     1      -5.702   7.151  67.298  1.00  0.00    -0.023 OA 
ENDROOT
BRANCH   3   6
HETATM    6  N   UNL     1      -8.566   9.506  68.189  1.00  0.00    -0.120 N  
HETATM    7  C   UNL     1      -9.569   8.919  69.080  1.00  0.00    -0.158 C  
HETATM    8  C   UNL     1     -10.635   8.520  68.078  1.00  0.00    -0.137 C  
HETATM    9  N   UNL     1     -10.687   9.727  67.265  1.00  0.00    -0.255 N  
HETATM   10  C   UNL     1     -11.446  10.809  67.928  1.00  0.00    -0.227 C  
HETATM   11  C   UNL     1      -9.298  10.051  67.069  1.00  0.00    -0.154 C  
HETATM   12  O   UNL     1      -8.852  10.581  66.063  1.00  0.00    -0.155 OA 
HETATM   13  C   UNL     1     -10.810  11.169  69.290  1.00  0.00    -0.277 C  
HETATM   14  C   UNL     1     -10.255   9.938  70.027  1.00  0.00    -0.319 C  
BRANCH  10  15
HETATM   15  C   UNL     1     -11.720  12.113  67.143  1.00  0.00    -0.302 C  
HETATM   16  O   UNL     1     -12.686  12.220  66.389  1.00  0.00     0.232 OA 
HETATM   17  N   UNL     1     -10.780  13.098  67.284  1.00  0.00    -0.253 N  
HETATM   18  H   UNL     1      -9.951  12.911  67.848  1.00  0.00     0.000 HD 
BRANCH  17  19
HETATM   19  C   UNL     1     -10.922  14.411  66.654  1.00  0.00    -0.318 C  
HETATM   20  C   UNL     1     -10.093  14.549  65.371  1.00  0.00    -0.394 C  
HETATM   21  C   UNL     1     -10.646  13.669  64.256  1.00  0.00    -0.225 C  
HETATM   22  N   UNL     1     -12.060  13.952  63.992  1.00  0.00    -0.691 NA 
HETATM   23  H   UNL     1     -12.415  13.376  63.229  1.00  0.00     0.000 HD 
HETATM   24  C   UNL     1     -12.887  13.810  65.192  1.00  0.00    -0.340 C  
HETATM   25  C   UNL     1     -12.392  14.683  66.345  1.00  0.00    -0.069 C  
ENDBRANCH  17  19
ENDBRANCH  10  15
ENDBRANCH   3   6
TORSDOF 3
ENDMDL
MODEL      207
REMARK 921   NORMALIZED FREE ENERGY PREDICTED BY IDOCK:   -0.09 KCAL/MOL
REMARK 922        TOTAL FREE ENERGY PREDICTED BY IDOCK:   -0.98 KCAL/MOL
REMARK 923 INTER-LIGAND FREE ENERGY PREDICTED BY IDOCK:   -3.95 KCAL/MOL
REMARK 924 INTRA-LIGAND FREE ENERGY PREDICTED BY IDOCK:    2.98 KCAL/MOL
REMARK 927      BINDING AFFINITY PREDICTED BY RF-SCORE:    0.00 PKD
ROOT
HETATM    1  O   UNL     1      -6.142   9.966  65.676  1.00  0.00    -0.065 OA 
HETATM    2  S   UNL     1      -7.214   8.761  65.695  1.00  0.00    -0.085 S  
HETATM    3  O   UNL     1      -8.633   9.467  65.314  1.00  0.00    -0.142 OA 
HETATM    4  O   UNL     1      -7.272   8.260  67.055  1.00  0.00    -0.081 OA 
HETATM    5  O   UNL     1      -6.834   7.889  64.606  1.00  0.00    -0.060 OA 
ENDROOT
BRANCH   3   6
HETATM    6  N   UNL     1      -9.291  10.211  66.371  1.00  0.00    -0.164 N  
HETATM    7  C   UNL     1     -10.704  10.334  66.007  1.00  0.00     0.053 C  
HETATM    8  C   UNL     1     -10.636  11.462  64.996  1.00  0.00    -0.299 C  
HETATM    9  N   UNL     1      -9.762  12.387  65.702  1.00  0.00    -0.215 N  
HETATM   10  C   UNL     1     -10.478  13.127  66.763  1.00  0.00    -0.261 C  
HETATM   11  C   UNL     1      -8.724  11.531  66.215  1.00  0.00    -0.159 C  
HETATM   12  O   UNL     1      -7.559  11.872  66.356  1.00  0.00     0.044 OA 
HETATM   13  C   UNL     1     -11.086  12.151  67.796  1.00  0.00    -0.302 C  
HETATM   14  C   UNL     1     -11.614  10.859  67.149  1.00  0.00     0.152 C  
BRANCH  10  15
HETATM   15  C   UNL     1      -9.732  14.253  67.517  1.00  0.00    -0.223 C  
HETATM   16  O   UNL     1      -9.868  14.417  68.728  1.00  0.00    -0.232 OA 
HETATM   17  N   UNL     1      -8.981  15.091  66.737  1.00  0.00    -0.249 N  
HETATM   18  H   UNL     1      -8.987  14.960  65.726  1.00  0.00     0.000 HD 
BRANCH  17  19
HETATM   19  C   UNL     1      -8.170  16.169  67.303  1.00  0.00    -0.177 C  
HETATM   20  C   UNL     1      -8.340  17.498  66.557  1.00  0.00    -0.304 C  
HETATM   21  C   UNL     1      -9.732  18.082  66.776  1.00  0.00    -0.323 C  
HETATM   22  N   UNL     1     -10.033  18.246  68.201  1.00  0.00    -0.340 NA 
HETATM   23  H   UNL     1     -10.956  18.659  68.338  1.00  0.00     0.000 HD 
HETATM   24  C   UNL     1      -9.900  16.991  68.944  1.00  0.00    -0.272 C  
HETATM   25  C   UNL     1      -8.517  16.362  68.778  1.00  0.00    -0.249 C  
ENDBRANCH  17  19
ENDBRANCH  10  15
ENDBRANCH   3   6
TORSDOF 3
ENDMDL
MODEL      208
REMARK 921   NORMALIZED FREE ENERGY PREDICTED BY IDOCK:    0.47 KCAL/MOL
REMARK 922        TOTAL FREE ENERGY PREDICTED BY IDOCK:   -0.31 KCAL/MOL
REMARK 923 INTER-LIGAND FREE ENERGY PREDICTED BY IDOCK:   -3.64 KCAL/MOL
REMARK 924 INTRA-LIGAND FREE ENERGY PREDICTED BY IDOCK:    3.32 KCAL/MOL
REMARK 927      BINDING AFFINITY PREDICTED BY RF-SCORE:    0.00 PKD
ROOT
HETATM    1  O   UNL     1      -6.731  12.391  68.779  1.00  0.00    -0.081 OA 
HETATM    2  S   UNL     1      -6.550  12.854  67.244  1.00  0.00     0.103 S  
HETATM    3  O   UNL     1      -7.058  14.404  67.219  1.00  0.00    -0.163 OA 
HETATM    4  O   UNL     1      -7.444  12.040  66.443  1.00  0.00     0.132 OA 
HETATM    5  O   UNL     1      -5.126  12.840  67.000  1.00  0.00    -0.333 OA 
ENDROOT
BRANCH   3   6
HETATM    6  N   UNL     1      -8.493  14.616  67.227  1.00  0.00    -0.203 N  
HETATM    7  C   UNL     1      -8.727  16.022  67.558  1.00  0.00    -0.182 C  
HETATM    8  C   UNL     1      -8.532  15.993  69.061  1.00  0.00    -0.244 C  
HETATM    9  N   UNL     1      -9.305  14.806  69.397  1.00  0.00    -0.046 N  
HETATM   10  C   UNL     1     -10.759  15.073  69.400  1.00  0.00    -0.261 C  
HETATM   11  C   UNL     1      -8.908  13.860  68.387  1.00  0.00    -0.177 C  
HETATM   12  O   UNL     1      -8.832  12.654  68.567  1.00  0.00    -0.146 OA 
HETATM   13  C   UNL     1     -11.225  15.580  68.016  1.00  0.00    -0.332 C  
HETATM   14  C   UNL     1     -10.189  16.495  67.341  1.00  0.00    -0.287 C  
BRANCH  10  15
HETATM   15  C   UNL     1     -11.719  13.957  69.874  1.00  0.00    -0.291 C  
HETATM   16  O   UNL     1     -12.852  14.211  70.279  1.00  0.00    -0.297 OA 
HETATM   17  N   UNL     1     -11.196  12.691  69.884  1.00  0.00    -0.477 N  
HETATM   18  H   UNL     1     -10.218  12.560  69.628  1.00  0.00     0.000 HD 
BRANCH  17  19
HETATM   19  C   UNL     1     -11.992  11.520  70.250  1.00  0.00    -0.368 C  
HETATM   20  C   UNL     1     -12.524  10.756  69.031  1.00  0.00     0.339 C  
HETATM   21  C   UNL     1     -11.395  10.072  68.270  1.00  0.00    -0.049 C  
HETATM   22  N   UNL     1     -10.616   9.183  69.137  1.00  0.00    -0.253 NA 
HETATM   23  H   UNL     1      -9.878   8.711  68.614  1.00  0.00     0.000 HD 
HETATM   24  C   UNL     1     -10.074   9.883  70.304  1.00  0.00    -0.237 C  
HETATM   25  C   UNL     1     -11.162  10.579  71.120  1.00  0.00     0.217 C  
ENDBRANCH  17  19
ENDBRANCH  10  15
ENDBRANCH   3   6
TORSDOF 3
ENDMDL
MODEL      209
REMARK 921   NORMALIZED FREE ENERGY PREDICTED BY IDOCK:    1.64 KCAL/MOL
REMARK 922        TOTAL FREE ENERGY PREDICTED BY IDOCK:    1.06 KCAL/MOL
REMARK 923 INTER-LIGAND FREE ENERGY PREDICTED BY IDOCK:    1.16 KCAL/MOL
REMARK 924 INTRA-LIGAND FREE ENERGY PREDICTED BY IDOCK:   -0.10 KCAL/MOL
REMARK 927      BINDING AFFINITY PREDICTED BY RF-SCORE:    0.00 PKD
ROOT
HETATM    1  O   UNL     1     -12.736  14.474  66.295  1.00  0.00    -0.192 OA 
HETATM    2  S   UNL     1     -11.312  15.100  65.870  1.00  0.00    -0.155 S  
HETATM    3  O   UNL     1     -10.474  13.841  65.260  1.00  0.00    -0.325 OA 
HETATM    4  O   UNL     1     -10.669  15.565  67.084  1.00  0.00    -0.306 OA 
HETATM    5  O   UNL     1     -11.599  16.018  64.792  1.00  0.00    -0.233 OA 
ENDROOT
BRANCH   3   6
HETATM    6  N   UNL     1      -9.902  12.916  66.220  1.00  0.00    -0.270 N  
HETATM    7  C   UNL     1      -8.490  13.266  66.377  1.00  0.00     0.465 C  
HETATM    8  C   UNL     1      -7.902  12.632  65.132  1.00  0.00     4.140 C  
HETATM    9  N   UNL     1      -8.561  11.334  65.170  1.00  0.00     0.066 N  
HETATM   10  C   UNL     1      -7.939  10.425  66.156  1.00  0.00    -0.138 C  
HETATM   11  C   UNL     1      -9.924  11.667  65.493  1.00  0.00    -0.242 C  
HETATM   12  O   UNL     1     -10.897  11.044  65.094  1.00  0.00    -0.221 OA 
HETATM   13  C   UNL     1      -7.992  11.037  67.574  1.00  0.00    -0.116 C  
HETATM   14  C   UNL     1      -7.787  12.562  67.568  1.00  0.00    -0.168 C  
BRANCH  10  15
HETATM   15  C   UNL     1      -8.426   8.959  66.225  1.00  0.00    -0.123 C  
HETATM   16  O   UNL     1      -9.229   8.507  65.409  1.00  0.00    -0.117 OA 
HETATM   17  N   UNL     1      -7.966   8.231  67.290  1.00  0.00    -0.105 N  
HETATM   18  H   UNL     1      -7.380   8.693  67.985  1.00  0.00     0.000 HD 
BRANCH  17  19
HETATM   19  C   UNL     1      -8.287   6.815  67.467  1.00  0.00    -0.122 C  
HETATM   20  C   UNL     1      -7.480   6.157  68.593  1.00  0.00    -0.087 C  
HETATM   21  C   UNL     1      -7.901   6.688  69.959  1.00  0.00    -0.111 C  
HETATM   22  N   UNL     1      -9.339   6.520  70.186  1.00  0.00    -0.158 NA 
HETATM   23  H   UNL     1      -9.608   6.855  71.112  1.00  0.00     0.000 HD 
HETATM   24  C   UNL     1     -10.144   7.154  69.140  1.00  0.00    -0.183 C  
HETATM   25  C   UNL     1      -9.779   6.650  67.743  1.00  0.00    -0.136 C  
ENDBRANCH  17  19
ENDBRANCH  10  15
ENDBRANCH   3   6
TORSDOF 3
ENDMDL
MODEL      210
REMARK 921   NORMALIZED FREE ENERGY PREDICTED BY IDOCK:    1.89 KCAL/MOL
REMARK 922        TOTAL FREE ENERGY PREDICTED BY IDOCK:    1.35 KCAL/MOL
REMARK 923 INTER-LIGAND FREE ENERGY PREDICTED BY IDOCK:   -2.81 KCAL/MOL
REMARK 924 INTRA-LIGAND FREE ENERGY PREDICTED BY IDOCK:    4.16 KCAL/MOL
REMARK 927      BINDING AFFINITY PREDICTED BY RF-SCORE:    0.00 PKD
ROOT
HETATM    1  O   UNL     1     -10.088   9.429  71.616  1.00  0.00    -0.256 OA 
HETATM    2  S   UNL     1      -8.953   8.282  71.592  1.00  0.00    -0.200 S  
HETATM    3  O   UNL     1      -8.152   8.525  70.193  1.00  0.00    -0.103 OA 
HETATM    4  O   UNL     1      -9.638   7.004  71.541  1.00  0.00    -0.159 OA 
HETATM    5  O   UNL     1      -8.063   8.596  72.686  1.00  0.00    -0.367 OA 
ENDROOT
BRANCH   3   6
HETATM    6  N   UNL     1      -8.801   8.058  68.983  1.00  0.00    -0.144 N  
HETATM    7  C   UNL     1      -9.773   7.036  69.374  1.00  0.00    -0.159 C  
HETATM    8  C   UNL     1      -8.861   5.841  69.571  1.00  0.00    -0.117 C  
HETATM    9  N   UNL     1      -8.036   5.949  68.376  1.00  0.00    -0.104 N  
HETATM   10  C   UNL     1      -8.737   5.455  67.173  1.00  0.00    -0.107 C  
HETATM   11  C   UNL     1      -7.731   7.355  68.313  1.00  0.00    -0.120 C  
HETATM   12  O   UNL     1      -6.686   7.812  67.876  1.00  0.00    -0.063 OA 
HETATM   13  C   UNL     1     -10.041   6.248  66.934  1.00  0.00    -0.236 C  
HETATM   14  C   UNL     1     -10.754   6.623  68.245  1.00  0.00    -0.317 C  
BRANCH  10  15
HETATM   15  C   UNL     1      -7.954   5.365  65.841  1.00  0.00    -0.106 C  
HETATM   16  O   UNL     1      -6.737   5.188  65.820  1.00  0.00    -0.050 OA 
HETATM   17  N   UNL     1      -8.691   5.573  64.706  1.00  0.00    -0.301 N  
HETATM   18  H   UNL     1      -9.678   5.812  64.796  1.00  0.00     0.000 HD 
BRANCH  17  19
HETATM   19  C   UNL     1      -8.111   5.465  63.367  1.00  0.00    -0.106 C  
HETATM   20  C   UNL     1      -8.799   6.378  62.345  1.00  0.00     0.341 C  
HETATM   21  C   UNL     1      -8.510   7.847  62.631  1.00  0.00     0.035 C  
HETATM   22  N   UNL     1      -7.070   8.117  62.680  1.00  0.00    -0.089 NA 
HETATM   23  H   UNL     1      -6.886   9.107  62.848  1.00  0.00     0.000 HD 
HETATM   24  C   UNL     1      -6.381   7.277  63.662  1.00  0.00    -0.048 C  
HETATM   25  C   UNL     1      -6.620   5.787  63.418  1.00  0.00    -0.033 C  
ENDBRANCH  17  19
ENDBRANCH  10  15
ENDBRANCH   3   6
TORSDOF 3
ENDMDL
MODEL      211
REMARK 921   NORMALIZED FREE ENERGY PREDICTED BY IDOCK:    1.96 KCAL/MOL
REMARK 922        TOTAL FREE ENERGY PREDICTED BY IDOCK:    1.44 KCAL/MOL
REMARK 923 INTER-LIGAND FREE ENERGY PREDICTED BY IDOCK:   -1.22 KCAL/MOL
REMARK 924 INTRA-LIGAND FREE ENERGY PREDICTED BY IDOCK:    2.66 KCAL/MOL
REMARK 927      BINDING AFFINITY PREDICTED BY RF-SCORE:    0.00 PKD
ROOT
HETATM    1  O   UNL     1      -7.055   9.727  70.676  1.00  0.00    -0.189 OA 
HETATM    2  S   UNL     1      -7.144   9.151  72.180  1.00  0.00     0.489 S  
HETATM    3  O   UNL     1      -6.521   7.647  72.083  1.00  0.00    -0.049 OA 
HETATM    4  O   UNL     1      -8.550   9.071  72.526  1.00  0.00    -0.328 OA 
HETATM    5  O   UNL     1      -6.240   9.966  72.960  1.00  0.00     0.123 OA 
ENDROOT
BRANCH   3   6
HETATM    6  N   UNL     1      -7.384   6.623  71.526  1.00  0.00    -0.085 N  
HETATM    7  C   UNL     1      -6.706   5.337  71.697  1.00  0.00    -0.048 C  
HETATM    8  C   UNL     1      -5.712   5.389  70.553  1.00  0.00    -0.020 C  
HETATM    9  N   UNL     1      -6.578   5.862  69.483  1.00  0.00    -0.042 N  
HETATM   10  C   UNL     1      -7.431   4.783  68.942  1.00  0.00    -0.061 C  
HETATM   11  C   UNL     1      -7.332   6.915  70.111  1.00  0.00    -0.081 C  
HETATM   12  O   UNL     1      -7.726   7.917  69.533  1.00  0.00    -0.099 OA 
HETATM   13  C   UNL     1      -8.320   4.180  70.053  1.00  0.00    -0.079 C  
HETATM   14  C   UNL     1      -7.600   4.102  71.410  1.00  0.00    -0.064 C  
BRANCH  10  15
HETATM   15  C   UNL     1      -8.309   5.080  67.704  1.00  0.00    -0.105 C  
HETATM   16  O   UNL     1      -8.601   4.200  66.895  1.00  0.00    -0.106 OA 
HETATM   17  N   UNL     1      -8.669   6.390  67.533  1.00  0.00    -0.114 N  
HETATM   18  H   UNL     1      -8.314   7.087  68.187  1.00  0.00     0.000 HD 
BRANCH  17  19
HETATM   19  C   UNL     1      -9.545   6.825  66.445  1.00  0.00    -0.095 C  
HETATM   20  C   UNL     1      -9.450   8.330  66.169  1.00  0.00    -0.241 C  
HETATM   21  C   UNL     1      -8.096   8.699  65.572  1.00  0.00    -0.114 C  
HETATM   22  N   UNL     1      -7.812   7.931  64.356  1.00  0.00    -0.133 NA 
HETATM   23  H   UNL     1      -6.916   8.202  63.950  1.00  0.00     0.000 HD 
HETATM   24  C   UNL     1      -7.874   6.487  64.586  1.00  0.00    -0.112 C  
HETATM   25  C   UNL     1      -9.217   6.050  65.171  1.00  0.00     0.334 C  
ENDBRANCH  17  19
ENDBRANCH  10  15
ENDBRANCH   3   6
TORSDOF 3
ENDMDL
MODEL      212
REMARK 921   NORMALIZED FREE ENERGY PREDICTED BY IDOCK:    2.08 KCAL/MOL
REMARK 922        TOTAL FREE ENERGY PREDICTED BY IDOCK:    1.58 KCAL/MOL
REMARK 923 INTER-LIGAND FREE ENERGY PREDICTED BY IDOCK:   -4.51 KCAL/MOL
REMARK 924 INTRA-LIGAND FREE ENERGY PREDICTED BY IDOCK:    6.09 KCAL/MOL
REMARK 927      BINDING AFFINITY PREDICTED BY RF-SCORE:    0.00 PKD
ROOT
HETATM    1  O   UNL     1      -5.459  17.359  65.121  1.00  0.00     0.158 OA 
HETATM    2  S   UNL     1      -6.039  18.712  65.782  1.00  0.00    -0.236 S  
HETATM    3  O   UNL     1      -5.848  18.501  67.387  1.00  0.00    -0.154 OA 
HETATM    4  O   UNL     1      -7.453  18.770  65.467  1.00  0.00    -0.493 OA 
HETATM    5  O   UNL     1      -5.146  19.764  65.354  1.00  0.00    -0.157 OA 
ENDROOT
BRANCH   3   6
HETATM    6  N   UNL     1      -6.811  17.639  68.047  1.00  0.00    -0.188 N  
HETATM    7  C   UNL     1      -6.094  16.893  69.083  1.00  0.00    -0.184 C  
HETATM    8  C   UNL     1      -5.425  15.821  68.245  1.00  0.00    -0.112 C  
HETATM    9  N   UNL     1      -6.541  15.423  67.399  1.00  0.00    -0.165 N  
HETATM   10  C   UNL     1      -7.489  14.541  68.111  1.00  0.00    -0.126 C  
HETATM   11  C   UNL     1      -7.124  16.681  67.011  1.00  0.00    -0.203 C  
HETATM   12  O   UNL     1      -7.666  16.884  65.935  1.00  0.00    -0.343 OA 
HETATM   13  C   UNL     1      -8.058  15.245  69.363  1.00  0.00    -0.230 C  
HETATM   14  C   UNL     1      -7.014  16.128  70.070  1.00  0.00     0.306 C  
BRANCH  10  15
HETATM   15  C   UNL     1      -8.657  13.910  67.317  1.00  0.00    -0.211 C  
HETATM   16  O   UNL     1      -9.345  14.577  66.545  1.00  0.00    -0.269 OA 
HETATM   17  N   UNL     1      -8.917  12.594  67.590  1.00  0.00    -0.176 N  
HETATM   18  H   UNL     1      -8.372  12.124  68.312  1.00  0.00     0.000 HD 
BRANCH  17  19
HETATM   19  C   UNL     1      -9.950  11.838  66.883  1.00  0.00    -0.199 C  
HETATM   20  C   UNL     1     -10.263  10.492  67.547  1.00  0.00    -0.245 C  
HETATM   21  C   UNL     1     -10.961  10.684  68.889  1.00  0.00    -0.249 C  
HETATM   22  N   UNL     1     -12.177  11.491  68.757  1.00  0.00    -0.443 NA 
HETATM   23  H   UNL     1     -12.650  11.595  69.655  1.00  0.00     0.000 HD 
HETATM   24  C   UNL     1     -11.914  12.795  68.144  1.00  0.00    -0.246 C  
HETATM   25  C   UNL     1     -11.228  12.669  66.784  1.00  0.00    -0.347 C  
ENDBRANCH  17  19
ENDBRANCH  10  15
ENDBRANCH   3   6
TORSDOF 3
ENDMDL
MODEL      213
REMARK 921   NORMALIZED FREE ENERGY PREDICTED BY IDOCK:    2.40 KCAL/MOL
REMARK 922        TOTAL FREE ENERGY PREDICTED BY IDOCK:    1.95 KCAL/MOL
REMARK 923 INTER-LIGAND FREE ENERGY PREDICTED BY IDOCK:   -4.65 KCAL/MOL
REMARK 924 INTRA-LIGAND FREE ENERGY PREDICTED BY IDOCK:    6.61 KCAL/MOL
REMARK 927      BINDING AFFINITY PREDICTED BY RF-SCORE:    0.00 PKD
ROOT
HETATM    1  O   UNL     1     -11.032  16.968  68.007  1.00  0.00    -0.360 OA 
HETATM    2  S   UNL     1     -10.169  16.722  66.667  1.00  0.00    -0.307 S  
HETATM    3  O   UNL     1     -11.225  16.068  65.611  1.00  0.00    -0.116 OA 
HETATM    4  O   UNL     1      -9.143  15.749  66.990  1.00  0.00    -0.202 OA 
HETATM    5  O   UNL     1      -9.810  18.039  66.192  1.00  0.00    -0.443 OA 
ENDROOT
BRANCH   3   6
HETATM    6  N   UNL     1     -11.539  14.663  65.794  1.00  0.00    -0.348 N  
HETATM    7  C   UNL     1     -11.249  14.327  67.189  1.00  0.00    -0.322 C  
HETATM    8  C   UNL     1      -9.741  14.178  67.134  1.00  0.00    -0.248 C  
HETATM    9  N   UNL     1      -9.606  13.378  65.925  1.00  0.00    -0.172 N  
HETATM   10  C   UNL     1      -9.929  11.955  66.163  1.00  0.00    -0.228 C  
HETATM   11  C   UNL     1     -10.514  14.016  65.007  1.00  0.00    -0.420 C  
HETATM   12  O   UNL     1     -10.338  14.078  63.799  1.00  0.00     0.579 OA 
HETATM   13  C   UNL     1     -11.374  11.801  66.687  1.00  0.00    -0.381 C  
HETATM   14  C   UNL     1     -11.784  12.941  67.635  1.00  0.00    -0.422 C  
BRANCH  10  15
HETATM   15  C   UNL     1      -9.700  10.940  65.018  1.00  0.00    -0.267 C  
HETATM   16  O   UNL     1     -10.569  10.134  64.689  1.00  0.00     0.076 OA 
HETATM   17  N   UNL     1      -8.451  10.950  64.458  1.00  0.00    -0.372 N  
HETATM   18  H   UNL     1      -7.744  11.577  64.842  1.00  0.00     0.000 HD 
BRANCH  17  19
HETATM   19  C   UNL     1      -8.094  10.094  63.328  1.00  0.00    -0.160 C  
HETATM   20  C   UNL     1      -6.721  10.431  62.734  1.00  0.00    -0.123 C  
HETATM   21  C   UNL     1      -5.596  10.068  63.697  1.00  0.00    -0.115 C  
HETATM   22  N   UNL     1      -5.656   8.658  64.093  1.00  0.00    -0.063 NA 
HETATM   23  H   UNL     1      -4.886   8.418  64.717  1.00  0.00     0.000 HD 
HETATM   24  C   UNL     1      -6.947   8.302  64.684  1.00  0.00    -0.075 C  
HETATM   25  C   UNL     1      -8.119   8.628  63.757  1.00  0.00    -0.163 C  
ENDBRANCH  17  19
ENDBRANCH  10  15
ENDBRANCH   3   6
TORSDOF 3
ENDMDL
MODEL      214
REMARK 921   NORMALIZED FREE ENERGY PREDICTED BY IDOCK:    2.54 KCAL/MOL
REMARK 922        TOTAL FREE ENERGY PREDICTED BY IDOCK:    2.12 KCAL/MOL
REMARK 923 INTER-LIGAND FREE ENERGY PREDICTED BY IDOCK:   -2.43 KCAL/MOL
REMARK 924 INTRA-LIGAND FREE ENERGY PREDICTED BY IDOCK:    4.55 KCAL/MOL
REMARK 927      BINDING AFFINITY PREDICTED BY RF-SCORE:    0.00 PKD
ROOT
HETATM    1  O   UNL     1      -8.249  16.940  66.808  1.00  0.00    -0.197 OA 
HETATM    2  S   UNL     1      -8.720  16.307  68.215  1.00  0.00    -0.197 S  
HETATM    3  O   UNL     1      -7.795  14.977  68.398  1.00  0.00    -0.116 OA 
HETATM    4  O   UNL     1     -10.108  15.914  68.065  1.00  0.00    -0.226 OA 
HETATM    5  O   UNL     1      -8.333  17.270  69.221  1.00  0.00    -0.044 OA 
ENDROOT
BRANCH   3   6
HETATM    6  N   UNL     1      -8.176  13.811  67.624  1.00  0.00    -0.163 N  
HETATM    7  C   UNL     1      -9.361  14.170  66.844  1.00  0.00    -0.264 C  
HETATM    8  C   UNL     1     -10.440  14.053  67.903  1.00  0.00    -0.241 C  
HETATM    9  N   UNL     1     -10.063  12.787  68.515  1.00  0.00    -0.216 N  
HETATM   10  C   UNL     1     -10.478  11.630  67.694  1.00  0.00    -0.191 C  
HETATM   11  C   UNL     1      -8.634  12.900  68.648  1.00  0.00     0.053 C  
HETATM   12  O   UNL     1      -7.987  12.398  69.555  1.00  0.00     0.634 OA 
HETATM   13  C   UNL     1      -9.840  11.698  66.289  1.00  0.00    -0.245 C  
HETATM   14  C   UNL     1      -9.744  13.137  65.752  1.00  0.00    -0.151 C  
BRANCH  10  15
HETATM   15  C   UNL     1     -10.282  10.206  68.265  1.00  0.00    -0.166 C  
HETATM   16  O   UNL     1     -10.982   9.777  69.182  1.00  0.00    -0.222 OA 
HETATM   17  N   UNL     1      -9.237   9.495  67.738  1.00  0.00    -0.125 N  
HETATM   18  H   UNL     1      -8.634   9.944  67.049  1.00  0.00     0.000 HD 
BRANCH  17  19
HETATM   19  C   UNL     1      -8.954   8.114  68.129  1.00  0.00    -0.135 C  
HETATM   20  C   UNL     1      -9.987   7.118  67.588  1.00  0.00    -0.201 C  
HETATM   21  C   UNL     1      -9.885   6.982  66.073  1.00  0.00     0.327 C  
HETATM   22  N   UNL     1      -8.532   6.605  65.652  1.00  0.00    -0.150 NA 
HETATM   23  H   UNL     1      -8.479   6.492  64.639  1.00  0.00     0.000 HD 
HETATM   24  C   UNL     1      -7.519   7.545  66.134  1.00  0.00    -0.083 C  
HETATM   25  C   UNL     1      -7.560   7.714  67.653  1.00  0.00    -0.109 C  
ENDBRANCH  17  19
ENDBRANCH  10  15
ENDBRANCH   3   6
TORSDOF 3
ENDMDL
MODEL      215
REMARK 921   NORMALIZED FREE ENERGY PREDICTED BY IDOCK:    2.58 KCAL/MOL
REMARK 922        TOTAL FREE ENERGY PREDICTED BY IDOCK:    2.17 KCAL/MOL
REMARK 923 INTER-LIGAND FREE ENERGY PREDICTED BY IDOCK:   -5.18 KCAL/MOL
REMARK 924 INTRA-LIGAND FREE ENERGY PREDICTED BY IDOCK:    7.34 KCAL/MOL
REMARK 927      BINDING AFFINITY PREDICTED BY RF-SCORE:    0.00 PKD
ROOT
HETATM    1  O   UNL     1      -6.889  12.033  67.833  1.00  0.00    -0.074 OA 
HETATM    2  S   UNL     1      -8.404  11.583  67.510  1.00  0.00    -0.150 S  
HETATM    3  O   UNL     1      -8.833  12.478  66.216  1.00  0.00    -0.091 OA 
HETATM    4  O   UNL     1      -9.216  11.963  68.651  1.00  0.00    -0.160 OA 
HETATM    5  O   UNL     1      -8.318  10.201  67.098  1.00  0.00    -0.124 OA 
ENDROOT
BRANCH   3   6
HETATM    6  N   UNL     1      -9.185  13.861  66.472  1.00  0.00    -0.239 N  
HETATM    7  C   UNL     1      -7.993  14.527  67.000  1.00  0.00    -0.041 C  
HETATM    8  C   UNL     1      -8.023  14.055  68.441  1.00  0.00    -0.143 C  
HETATM    9  N   UNL     1      -9.431  14.261  68.749  1.00  0.00    -0.173 N  
HETATM   10  C   UNL     1      -9.739  15.683  69.009  1.00  0.00    -0.241 C  
HETATM   11  C   UNL     1     -10.101  13.744  67.584  1.00  0.00    -0.242 C  
HETATM   12  O   UNL     1     -11.194  13.199  67.606  1.00  0.00    -0.259 OA 
HETATM   13  C   UNL     1      -9.378  16.555  67.785  1.00  0.00    -0.210 C  
HETATM   14  C   UNL     1      -8.104  16.073  67.071  1.00  0.00    -0.257 C  
BRANCH  10  15
HETATM   15  C   UNL     1     -11.160  16.060  69.491  1.00  0.00    -0.333 C  
HETATM   16  O   UNL     1     -11.959  16.633  68.752  1.00  0.00     0.125 OA 
HETATM   17  N   UNL     1     -11.434  15.782  70.803  1.00  0.00    -0.360 N  
HETATM   18  H   UNL     1     -10.695  15.394  71.389  1.00  0.00     0.000 HD 
BRANCH  17  19
HETATM   19  C   UNL     1     -12.749  16.024  71.395  1.00  0.00    -0.156 C  
HETATM   20  C   UNL     1     -13.786  14.968  70.995  1.00  0.00    -0.379 C  
HETATM   21  C   UNL     1     -13.468  13.614  71.619  1.00  0.00    -0.322 C  
HETATM   22  N   UNL     1     -13.357  13.702  73.078  1.00  0.00    -0.514 NA 
HETATM   23  H   UNL     1     -13.168  12.788  73.489  1.00  0.00     0.000 HD 
HETATM   24  C   UNL     1     -12.360  14.688  73.499  1.00  0.00    -0.258 C  
HETATM   25  C   UNL     1     -12.633  16.074  72.917  1.00  0.00    -0.577 C  
ENDBRANCH  17  19
ENDBRANCH  10  15
ENDBRANCH   3   6
TORSDOF 3
ENDMDL
MODEL      216
REMARK 921   NORMALIZED FREE ENERGY PREDICTED BY IDOCK:    2.72 KCAL/MOL
REMARK 922        TOTAL FREE ENERGY PREDICTED BY IDOCK:    2.33 KCAL/MOL
REMARK 923 INTER-LIGAND FREE ENERGY PREDICTED BY IDOCK:    2.34 KCAL/MOL
REMARK 924 INTRA-LIGAND FREE ENERGY PREDICTED BY IDOCK:   -0.01 KCAL/MOL
REMARK 927      BINDING AFFINITY PREDICTED BY RF-SCORE:    0.00 PKD
ROOT
HETATM    1  O   UNL     1      -8.507  10.539  67.674  1.00  0.00    -0.115 OA 
HETATM    2  S   UNL     1      -9.358  10.607  69.043  1.00  0.00    -0.151 S  
HETATM    3  O   UNL     1      -9.254   9.104  69.668  1.00  0.00    -0.154 OA 
HETATM    4  O   UNL     1     -10.735  10.884  68.678  1.00  0.00    -0.178 OA 
HETATM    5  O   UNL     1      -8.631  11.508  69.907  1.00  0.00     1.193 OA 
ENDROOT
BRANCH   3   6
HETATM    6  N   UNL     1     -10.101   8.092  69.066  1.00  0.00    -0.196 N  
HETATM    7  C   UNL     1     -10.891   7.485  70.139  1.00  0.00    -0.249 C  
HETATM    8  C   UNL     1      -9.868   6.542  70.742  1.00  0.00    -0.184 C  
HETATM    9  N   UNL     1      -9.316   5.953  69.531  1.00  0.00    -0.133 N  
HETATM   10  C   UNL     1     -10.209   4.923  68.959  1.00  0.00    -0.094 C  
HETATM   11  C   UNL     1      -9.140   7.089  68.664  1.00  0.00    -0.132 C  
HETATM   12  O   UNL     1      -8.245   7.191  67.838  1.00  0.00    -0.117 OA 
HETATM   13  C   UNL     1     -11.592   5.524  68.619  1.00  0.00     1.912 C  
HETATM   14  C   UNL     1     -12.047   6.577  69.644  1.00  0.00     0.423 C  
BRANCH  10  15
HETATM   15  C   UNL     1      -9.712   4.097  67.750  1.00  0.00    -0.111 C  
HETATM   16  O   UNL     1      -9.974   2.900  67.636  1.00  0.00     0.240 OA 
HETATM   17  N   UNL     1      -8.905   4.764  66.868  1.00  0.00    -0.110 N  
HETATM   18  H   UNL     1      -8.646   5.729  67.071  1.00  0.00     0.000 HD 
BRANCH  17  19
HETATM   19  C   UNL     1      -8.400   4.141  65.645  1.00  0.00    -0.109 C  
HETATM   20  C   UNL     1      -9.497   3.438  64.837  1.00  0.00    -0.156 C  
HETATM   21  C   UNL     1     -10.469   4.444  64.230  1.00  0.00     0.101 C  
HETATM   22  N   UNL     1      -9.777   5.438  63.405  1.00  0.00     0.360 NA 
HETATM   23  H   UNL     1     -10.437   6.092  62.984  1.00  0.00     0.000 HD 
HETATM   24  C   UNL     1      -8.733   6.145  64.150  1.00  0.00     0.384 C  
HETATM   25  C   UNL     1      -7.715   5.189  64.771  1.00  0.00    -0.086 C  
ENDBRANCH  17  19
ENDBRANCH  10  15
ENDBRANCH   3   6
TORSDOF 3
ENDMDL
MODEL      217
REMARK 921   NORMALIZED FREE ENERGY PREDICTED BY IDOCK:    3.07 KCAL/MOL
REMARK 922        TOTAL FREE ENERGY PREDICTED BY IDOCK:    2.74 KCAL/MOL
REMARK 923 INTER-LIGAND FREE ENERGY PREDICTED BY IDOCK:   -4.64 KCAL/MOL
REMARK 924 INTRA-LIGAND FREE ENERGY PREDICTED BY IDOCK:    7.39 KCAL/MOL
REMARK 927      BINDING AFFINITY PREDICTED BY RF-SCORE:    0.00 PKD
ROOT
HETATM    1  O   UNL     1     -11.143  18.320  64.926  1.00  0.00    -0.615 OA 
HETATM    2  S   UNL     1     -10.389  19.063  66.143  1.00  0.00    -0.445 S  
HETATM    3  O   UNL     1      -8.900  18.398  66.172  1.00  0.00    -0.463 OA 
HETATM    4  O   UNL     1     -11.096  18.717  67.361  1.00  0.00    -0.305 OA 
HETATM    5  O   UNL     1     -10.261  20.443  65.733  1.00  0.00    -0.310 OA 
ENDROOT
BRANCH   3   6
HETATM    6  N   UNL     1      -8.790  17.080  66.767  1.00  0.00    -0.230 N  
HETATM    7  C   UNL     1      -9.633  16.174  65.986  1.00  0.00    -0.346 C  
HETATM    8  C   UNL     1     -11.002  16.517  66.540  1.00  0.00     0.071 C  
HETATM    9  N   UNL     1     -10.705  16.534  67.965  1.00  0.00    -0.333 N  
HETATM   10  C   UNL     1     -10.610  15.170  68.528  1.00  0.00    -0.237 C  
HETATM   11  C   UNL     1      -9.463  17.259  68.033  1.00  0.00    -0.271 C  
HETATM   12  O   UNL     1      -9.140  17.982  68.964  1.00  0.00    -0.176 OA 
HETATM   13  C   UNL     1      -9.507  14.359  67.812  1.00  0.00    -0.211 C  
HETATM   14  C   UNL     1      -9.424  14.671  66.308  1.00  0.00    -0.322 C  
BRANCH  10  15
HETATM   15  C   UNL     1     -10.440  15.007  70.057  1.00  0.00    -0.114 C  
HETATM   16  O   UNL     1      -9.344  15.132  70.600  1.00  0.00     0.670 OA 
HETATM   17  N   UNL     1     -11.567  14.642  70.742  1.00  0.00    -0.418 N  
HETATM   18  H   UNL     1     -12.424  14.459  70.220  1.00  0.00     0.000 HD 
BRANCH  17  19
HETATM   19  C   UNL     1     -11.587  14.504  72.198  1.00  0.00     0.345 C  
HETATM   20  C   UNL     1     -11.996  15.796  72.914  1.00  0.00    -0.599 C  
HETATM   21  C   UNL     1     -13.465  16.125  72.668  1.00  0.00    -0.134 C  
HETATM   22  N   UNL     1     -14.341  15.018  73.059  1.00  0.00    -0.059 NA 
HETATM   23  H   UNL     1     -15.323  15.255  72.914  1.00  0.00     0.000 HD 
HETATM   24  C   UNL     1     -13.993  13.768  72.379  1.00  0.00    -0.548 C  
HETATM   25  C   UNL     1     -12.533  13.375  72.601  1.00  0.00     0.410 C  
ENDBRANCH  17  19
ENDBRANCH  10  15
ENDBRANCH   3   6
TORSDOF 3
ENDMDL
MODEL      218
REMARK 921   NORMALIZED FREE ENERGY PREDICTED BY IDOCK:    3.25 KCAL/MOL
REMARK 922        TOTAL FREE ENERGY PREDICTED BY IDOCK:    2.96 KCAL/MOL
REMARK 923 INTER-LIGAND FREE ENERGY PREDICTED BY IDOCK:    3.25 KCAL/MOL
REMARK 924 INTRA-LIGAND FREE ENERGY PREDICTED BY IDOCK:   -0.30 KCAL/MOL
REMARK 927      BINDING AFFINITY PREDICTED BY RF-SCORE:    0.00 PKD
ROOT
HETATM    1  O   UNL     1      -8.307  13.798  65.657  1.00  0.00     1.777 OA 
HETATM    2  S   UNL     1      -9.329  13.066  64.647  1.00  0.00     1.152 S  
HETATM    3  O   UNL     1      -9.795  11.718  65.438  1.00  0.00    -0.229 OA 
HETATM    4  O   UNL     1      -8.573  12.696  63.466  1.00  0.00     1.869 OA 
HETATM    5  O   UNL     1     -10.469  13.948  64.543  1.00  0.00    -0.431 OA 
ENDROOT
BRANCH   3   6
HETATM    6  N   UNL     1      -8.852  10.616  65.453  1.00  0.00    -0.185 N  
HETATM    7  C   UNL     1      -9.626   9.375  65.394  1.00  0.00    -0.226 C  
HETATM    8  C   UNL     1     -10.079   9.257  66.836  1.00  0.00    -0.256 C  
HETATM    9  N   UNL     1      -8.830   9.556  67.522  1.00  0.00    -0.125 N  
HETATM   10  C   UNL     1      -7.906   8.402  67.518  1.00  0.00    -0.099 C  
HETATM   11  C   UNL     1      -8.319  10.689  66.795  1.00  0.00    -0.132 C  
HETATM   12  O   UNL     1      -7.662  11.588  67.298  1.00  0.00    -0.133 OA 
HETATM   13  C   UNL     1      -7.573   7.971  66.072  1.00  0.00    -0.085 C  
HETATM   14  C   UNL     1      -8.777   8.106  65.123  1.00  0.00    -0.047 C  
BRANCH  10  15
HETATM   15  C   UNL     1      -6.590   8.501  68.326  1.00  0.00    -0.061 C  
HETATM   16  O   UNL     1      -5.532   8.838  67.796  1.00  0.00    -0.034 OA 
HETATM   17  N   UNL     1      -6.670   8.117  69.638  1.00  0.00    -0.037 N  
HETATM   18  H   UNL     1      -7.555   7.755  69.992  1.00  0.00     0.000 HD 
BRANCH  17  19
HETATM   19  C   UNL     1      -5.530   8.207  70.550  1.00  0.00    -0.022 C  
HETATM   20  C   UNL     1      -5.423   9.573  71.237  1.00  0.00    -0.064 C  
HETATM   21  C   UNL     1      -6.562   9.786  72.229  1.00  0.00     0.986 C  
HETATM   22  N   UNL     1      -6.624   8.710  73.222  1.00  0.00    -0.266 NA 
HETATM   23  H   UNL     1      -7.372   8.873  73.895  1.00  0.00     0.000 HD 
HETATM   24  C   UNL     1      -6.747   7.389  72.602  1.00  0.00    -0.063 C  
HETATM   25  C   UNL     1      -5.621   7.109  71.607  1.00  0.00    -0.036 C  
ENDBRANCH  17  19
ENDBRANCH  10  15
ENDBRANCH   3   6
TORSDOF 3
ENDMDL
MODEL      219
REMARK 921   NORMALIZED FREE ENERGY PREDICTED BY IDOCK:    3.40 KCAL/MOL
REMARK 922        TOTAL FREE ENERGY PREDICTED BY IDOCK:    3.13 KCAL/MOL
REMARK 923 INTER-LIGAND FREE ENERGY PREDICTED BY IDOCK:   -3.97 KCAL/MOL
REMARK 924 INTRA-LIGAND FREE ENERGY PREDICTED BY IDOCK:    7.10 KCAL/MOL
REMARK 927      BINDING AFFINITY PREDICTED BY RF-SCORE:    0.00 PKD
ROOT
HETATM    1  O   UNL     1     -10.789   9.254  71.825  1.00  0.00    -0.368 OA 
HETATM    2  S   UNL     1      -9.437   8.382  71.940  1.00  0.00    -0.279 S  
HETATM    3  O   UNL     1      -8.488   8.933  70.733  1.00  0.00    -0.145 OA 
HETATM    4  O   UNL     1      -9.794   7.000  71.681  1.00  0.00    -0.165 OA 
HETATM    5  O   UNL     1      -8.837   8.762  73.198  1.00  0.00    -0.310 OA 
ENDROOT
BRANCH   3   6
HETATM    6  N   UNL     1      -8.803   8.466  69.396  1.00  0.00    -0.141 N  
HETATM    7  C   UNL     1     -10.197   8.820  69.125  1.00  0.00    -0.207 C  
HETATM    8  C   UNL     1     -10.918   7.722  69.882  1.00  0.00    -0.190 C  
HETATM    9  N   UNL     1     -10.140   6.566  69.460  1.00  0.00    -0.172 N  
HETATM   10  C   UNL     1     -10.501   6.124  68.097  1.00  0.00    -0.230 C  
HETATM   11  C   UNL     1      -8.781   7.030  69.560  1.00  0.00    -0.134 C  
HETATM   12  O   UNL     1      -7.833   6.319  69.857  1.00  0.00    -0.105 OA 
HETATM   13  C   UNL     1     -10.274   7.259  67.074  1.00  0.00    -0.348 C  
HETATM   14  C   UNL     1     -10.622   8.646  67.643  1.00  0.00    -0.272 C  
BRANCH  10  15
HETATM   15  C   UNL     1      -9.871   4.822  67.547  1.00  0.00    -0.162 C  
HETATM   16  O   UNL     1      -9.843   4.579  66.341  1.00  0.00    -0.189 OA 
HETATM   17  N   UNL     1      -9.425   3.936  68.490  1.00  0.00    -0.160 N  
HETATM   18  H   UNL     1      -9.565   4.154  69.476  1.00  0.00     0.000 HD 
BRANCH  17  19
HETATM   19  C   UNL     1      -8.753   2.687  68.133  1.00  0.00    -0.103 C  
HETATM   20  C   UNL     1      -7.243   2.860  67.923  1.00  0.00    -0.050 C  
HETATM   21  C   UNL     1      -6.533   3.168  69.237  1.00  0.00    -0.029 C  
HETATM   22  N   UNL     1      -6.800   2.143  70.250  1.00  0.00    -0.033 NA 
HETATM   23  H   UNL     1      -6.301   2.344  71.117  1.00  0.00     0.000 HD 
HETATM   24  C   UNL     1      -8.232   1.963  70.493  1.00  0.00    -0.041 C  
HETATM   25  C   UNL     1      -9.001   1.635  69.212  1.00  0.00    -0.140 C  
ENDBRANCH  17  19
ENDBRANCH  10  15
ENDBRANCH   3   6
TORSDOF 3
ENDMDL
MODEL      220
REMARK 921   NORMALIZED FREE ENERGY PREDICTED BY IDOCK:    4.23 KCAL/MOL
REMARK 922        TOTAL FREE ENERGY PREDICTED BY IDOCK:    4.11 KCAL/MOL
REMARK 923 INTER-LIGAND FREE ENERGY PREDICTED BY IDOCK:   -4.78 KCAL/MOL
REMARK 924 INTRA-LIGAND FREE ENERGY PREDICTED BY IDOCK:    8.89 KCAL/MOL
REMARK 927      BINDING AFFINITY PREDICTED BY RF-SCORE:    0.00 PKD
ROOT
HETATM    1  O   UNL     1     -12.955  12.131  64.832  1.00  0.00    -0.524 OA 
HETATM    2  S   UNL     1     -11.370  12.085  64.534  1.00  0.00    -0.321 S  
HETATM    3  O   UNL     1     -10.678  11.960  66.005  1.00  0.00    -0.265 OA 
HETATM    4  O   UNL     1     -11.010  13.357  63.936  1.00  0.00    -0.298 OA 
HETATM    5  O   UNL     1     -11.147  10.848  63.821  1.00  0.00    -0.080 OA 
ENDROOT
BRANCH   3   6
HETATM    6  N   UNL     1     -10.603  13.176  66.792  1.00  0.00    -0.262 N  
HETATM    7  C   UNL     1     -11.385  14.198  66.095  1.00  0.00    -0.337 C  
HETATM    8  C   UNL     1     -10.407  14.613  65.014  1.00  0.00    -0.402 C  
HETATM    9  N   UNL     1      -9.189  14.734  65.803  1.00  0.00    -0.076 N  
HETATM   10  C   UNL     1      -9.156  15.991  66.581  1.00  0.00    -0.252 C  
HETATM   11  C   UNL     1      -9.218  13.558  66.633  1.00  0.00    -0.210 C  
HETATM   12  O   UNL     1      -8.222  12.956  67.007  1.00  0.00    -0.163 OA 
HETATM   13  C   UNL     1     -10.364  16.074  67.540  1.00  0.00    -0.287 C  
HETATM   14  C   UNL     1     -11.646  15.481  66.929  1.00  0.00     0.099 C  
BRANCH  10  15
HETATM   15  C   UNL     1      -7.870  16.345  67.364  1.00  0.00    -0.154 C  
HETATM   16  O   UNL     1      -7.629  15.852  68.465  1.00  0.00    -0.134 OA 
HETATM   17  N   UNL     1      -7.068  17.294  66.788  1.00  0.00    -0.188 N  
HETATM   18  H   UNL     1      -7.372  17.735  65.921  1.00  0.00     0.000 HD 
BRANCH  17  19
HETATM   19  C   UNL     1      -5.789  17.696  67.373  1.00  0.00    -0.143 C  
HETATM   20  C   UNL     1      -5.802  19.137  67.900  1.00  0.00    -0.205 C  
HETATM   21  C   UNL     1      -6.698  19.270  69.126  1.00  0.00    -0.327 C  
HETATM   22  N   UNL     1      -6.310  18.336  70.186  1.00  0.00     0.027 NA 
HETATM   23  H   UNL     1      -6.900  18.449  71.011  1.00  0.00     0.000 HD 
HETATM   24  C   UNL     1      -6.306  16.946  69.725  1.00  0.00    -0.157 C  
HETATM   25  C   UNL     1      -5.410  16.742  68.503  1.00  0.00    -0.122 C  
ENDBRANCH  17  19
ENDBRANCH  10  15
ENDBRANCH   3   6
TORSDOF 3
ENDMDL
MODEL      221
REMARK 921   NORMALIZED FREE ENERGY PREDICTED BY IDOCK:    5.12 KCAL/MOL
REMARK 922        TOTAL FREE ENERGY PREDICTED BY IDOCK:    5.15 KCAL/MOL
REMARK 923 INTER-LIGAND FREE ENERGY PREDICTED BY IDOCK:   -2.87 KCAL/MOL
REMARK 924 INTRA-LIGAND FREE ENERGY PREDICTED BY IDOCK:    8.02 KCAL/MOL
REMARK 927      BINDING AFFINITY PREDICTED BY RF-SCORE:    0.00 PKD
ROOT
HETATM    1  O   UNL     1      -5.342  16.688  66.201  1.00  0.00    -0.176 OA 
HETATM    2  S   UNL     1      -6.265  18.011  66.216  1.00  0.00    -0.235 S  
HETATM    3  O   UNL     1      -6.287  18.481  67.777  1.00  0.00    -0.193 OA 
HETATM    4  O   UNL     1      -7.599  17.607  65.814  1.00  0.00    -0.530 OA 
HETATM    5  O   UNL     1      -5.536  18.999  65.455  1.00  0.00    -0.151 OA 
ENDROOT
BRANCH   3   6
HETATM    6  N   UNL     1      -7.156  17.734  68.667  1.00  0.00    -0.248 N  
HETATM    7  C   UNL     1      -6.381  16.610  69.196  1.00  0.00    -0.196 C  
HETATM    8  C   UNL     1      -6.443  15.651  68.024  1.00  0.00    -0.138 C  
HETATM    9  N   UNL     1      -7.856  15.746  67.688  1.00  0.00    -0.140 N  
HETATM   10  C   UNL     1      -8.700  14.964  68.617  1.00  0.00    -0.177 C  
HETATM   11  C   UNL     1      -8.114  17.161  67.749  1.00  0.00    -0.193 C  
HETATM   12  O   UNL     1      -8.921  17.743  67.040  1.00  0.00    -0.240 OA 
HETATM   13  C   UNL     1      -8.513  15.453  70.071  1.00  0.00     0.375 C  
HETATM   14  C   UNL     1      -7.062  15.865  70.374  1.00  0.00     0.863 C  
BRANCH  10  15
HETATM   15  C   UNL     1     -10.213  14.840  68.321  1.00  0.00    -0.227 C  
HETATM   16  O   UNL     1     -11.047  14.814  69.225  1.00  0.00    -0.245 OA 
HETATM   17  N   UNL     1     -10.548  14.685  67.002  1.00  0.00    -0.277 N  
HETATM   18  H   UNL     1      -9.803  14.618  66.310  1.00  0.00     0.000 HD 
BRANCH  17  19
HETATM   19  C   UNL     1     -11.938  14.613  66.552  1.00  0.00    -0.268 C  
HETATM   20  C   UNL     1     -12.064  14.430  65.034  1.00  0.00    -0.417 C  
HETATM   21  C   UNL     1     -11.581  13.049  64.601  1.00  0.00    -0.346 C  
HETATM   22  N   UNL     1     -12.288  11.980  65.312  1.00  0.00    -0.375 NA 
HETATM   23  H   UNL     1     -11.976  11.061  64.998  1.00  0.00     0.000 HD 
HETATM   24  C   UNL     1     -12.173  12.111  66.766  1.00  0.00     0.397 C  
HETATM   25  C   UNL     1     -12.658  13.471  67.266  1.00  0.00     0.266 C  
ENDBRANCH  17  19
ENDBRANCH  10  15
ENDBRANCH   3   6
TORSDOF 3
ENDMDL
MODEL      222
REMARK 921   NORMALIZED FREE ENERGY PREDICTED BY IDOCK:    5.86 KCAL/MOL
REMARK 922        TOTAL FREE ENERGY PREDICTED BY IDOCK:    6.02 KCAL/MOL
REMARK 923 INTER-LIGAND FREE ENERGY PREDICTED BY IDOCK:   -4.86 KCAL/MOL
REMARK 924 INTRA-LIGAND FREE ENERGY PREDICTED BY IDOCK:   10.88 KCAL/MOL
REMARK 927      BINDING AFFINITY PREDICTED BY RF-SCORE:    0.00 PKD
ROOT
HETATM    1  O   UNL     1     -10.050  17.548  67.990  1.00  0.00    -0.297 OA 
HETATM    2  S   UNL     1      -9.895  16.835  66.551  1.00  0.00    -0.305 S  
HETATM    3  O   UNL     1     -11.311  16.060  66.321  1.00  0.00     0.051 OA 
HETATM    4  O   UNL     1      -8.825  15.862  66.669  1.00  0.00    -0.226 OA 
HETATM    5  O   UNL     1      -9.806  17.912  65.593  1.00  0.00    -0.512 OA 
ENDROOT
BRANCH   3   6
HETATM    6  N   UNL     1     -11.493  14.813  67.040  1.00  0.00    -0.359 N  
HETATM    7  C   UNL     1     -11.409  15.115  68.470  1.00  0.00    -0.309 C  
HETATM    8  C   UNL     1      -9.907  15.218  68.647  1.00  0.00    -0.211 C  
HETATM    9  N   UNL     1      -9.479  14.040  67.907  1.00  0.00    -0.203 N  
HETATM   10  C   UNL     1      -9.676  12.796  68.681  1.00  0.00    -0.043 C  
HETATM   11  C   UNL     1     -10.283  14.093  66.713  1.00  0.00    -0.262 C  
HETATM   12  O   UNL     1      -9.912  13.699  65.617  1.00  0.00    -0.288 OA 
HETATM   13  C   UNL     1     -11.163  12.617  69.061  1.00  0.00    -0.322 C  
HETATM   14  C   UNL     1     -11.854  13.951  69.394  1.00  0.00    -0.384 C  
BRANCH  10  15
HETATM   15  C   UNL     1      -9.144  11.466  68.099  1.00  0.00    -0.174 C  
HETATM   16  O   UNL     1      -8.452  11.439  67.082  1.00  0.00    -0.142 OA 
HETATM   17  N   UNL     1      -9.557  10.330  68.742  1.00  0.00    -0.167 N  
HETATM   18  H   UNL     1     -10.210  10.415  69.521  1.00  0.00     0.000 HD 
BRANCH  17  19
HETATM   19  C   UNL     1      -9.097   8.998  68.351  1.00  0.00    -0.133 C  
HETATM   20  C   UNL     1     -10.231   8.099  67.845  1.00  0.00    -0.274 C  
HETATM   21  C   UNL     1     -10.769   8.588  66.504  1.00  0.00     0.335 C  
HETATM   22  N   UNL     1      -9.707   8.696  65.500  1.00  0.00    -0.397 NA 
HETATM   23  H   UNL     1     -10.080   9.000  64.601  1.00  0.00     0.000 HD 
HETATM   24  C   UNL     1      -8.613   9.563  65.941  1.00  0.00    -0.132 C  
HETATM   25  C   UNL     1      -8.019   9.115  67.276  1.00  0.00    -0.102 C  
ENDBRANCH  17  19
ENDBRANCH  10  15
ENDBRANCH   3   6
TORSDOF 3
ENDMDL
MODEL      223
REMARK 921   NORMALIZED FREE ENERGY PREDICTED BY IDOCK:    7.37 KCAL/MOL
REMARK 922        TOTAL FREE ENERGY PREDICTED BY IDOCK:    7.80 KCAL/MOL
REMARK 923 INTER-LIGAND FREE ENERGY PREDICTED BY IDOCK:   -3.19 KCAL/MOL
REMARK 924 INTRA-LIGAND FREE ENERGY PREDICTED BY IDOCK:   10.99 KCAL/MOL
REMARK 927      BINDING AFFINITY PREDICTED BY RF-SCORE:    0.00 PKD
ROOT
HETATM    1  O   UNL     1     -11.643  18.476  67.249  1.00  0.00     0.659 OA 
HETATM    2  S   UNL     1     -10.130  17.998  67.542  1.00  0.00    -0.368 S  
HETATM    3  O   UNL     1      -9.560  17.523  66.090  1.00  0.00    -0.416 OA 
HETATM    4  O   UNL     1     -10.207  16.854  68.430  1.00  0.00    -0.284 OA 
HETATM    5  O   UNL     1      -9.419  19.191  67.941  1.00  0.00    -0.303 OA 
ENDROOT
BRANCH   3   6
HETATM    6  N   UNL     1      -9.993  16.222  65.618  1.00  0.00    -0.317 N  
HETATM    7  C   UNL     1     -11.449  16.271  65.468  1.00  0.00     0.426 C  
HETATM    8  C   UNL     1     -11.885  16.103  66.911  1.00  0.00     0.979 C  
HETATM    9  N   UNL     1     -11.016  15.007  67.315  1.00  0.00    -0.318 N  
HETATM   10  C   UNL     1     -11.502  13.702  66.817  1.00  0.00    -0.346 C  
HETATM   11  C   UNL     1      -9.739  15.380  66.765  1.00  0.00    -0.240 C  
HETATM   12  O   UNL     1      -8.665  15.114  67.282  1.00  0.00    -0.178 OA 
HETATM   13  C   UNL     1     -11.593  13.704  65.275  1.00  0.00    -0.334 C  
HETATM   14  C   UNL     1     -12.054  15.060  64.711  1.00  0.00    -0.266 C  
BRANCH  10  15
HETATM   15  C   UNL     1     -10.775  12.416  67.275  1.00  0.00    -0.230 C  
HETATM   16  O   UNL     1     -11.377  11.501  67.836  1.00  0.00    -0.259 OA 
HETATM   17  N   UNL     1      -9.420  12.401  67.083  1.00  0.00    -0.193 N  
HETATM   18  H   UNL     1      -8.968  13.231  66.701  1.00  0.00     0.000 HD 
BRANCH  17  19
HETATM   19  C   UNL     1      -8.597  11.236  67.408  1.00  0.00    -0.136 C  
HETATM   20  C   UNL     1      -9.265  10.297  68.420  1.00  0.00    -0.136 C  
HETATM   21  C   UNL     1     -10.474   9.595  67.810  1.00  0.00    -0.256 C  
HETATM   22  N   UNL     1     -10.120   8.870  66.587  1.00  0.00    -0.279 NA 
HETATM   23  H   UNL     1     -10.929   8.383  66.199  1.00  0.00     0.000 HD 
HETATM   24  C   UNL     1      -9.496   9.739  65.587  1.00  0.00    -0.246 C  
HETATM   25  C   UNL     1      -8.265  10.462  66.134  1.00  0.00    -0.144 C  
ENDBRANCH  17  19
ENDBRANCH  10  15
ENDBRANCH   3   6
TORSDOF 3
ENDMDL
MODEL      224
REMARK 921   NORMALIZED FREE ENERGY PREDICTED BY IDOCK:    8.86 KCAL/MOL
REMARK 922        TOTAL FREE ENERGY PREDICTED BY IDOCK:    9.55 KCAL/MOL
REMARK 923 INTER-LIGAND FREE ENERGY PREDICTED BY IDOCK:   10.13 KCAL/MOL
REMARK 924 INTRA-LIGAND FREE ENERGY PREDICTED BY IDOCK:   -0.58 KCAL/MOL
REMARK 927      BINDING AFFINITY PREDICTED BY RF-SCORE:    0.00 PKD
ROOT
HETATM    1  O   UNL     1     -11.322  18.449  72.807  1.00  0.00     1.700 OA 
HETATM    2  S   UNL     1     -12.301  17.215  73.157  1.00  0.00     1.290 S  
HETATM    3  O   UNL     1     -11.789  15.999  72.199  1.00  0.00    -0.453 OA 
HETATM    4  O   UNL     1     -13.641  17.607  72.766  1.00  0.00     5.392 OA 
HETATM    5  O   UNL     1     -12.008  16.866  74.528  1.00  0.00    -0.431 OA 
ENDROOT
BRANCH   3   6
HETATM    6  N   UNL     1     -12.187  16.059  70.806  1.00  0.00    -0.315 N  
HETATM    7  C   UNL     1     -13.080  14.927  70.555  1.00  0.00    -0.254 C  
HETATM    8  C   UNL     1     -12.073  13.801  70.415  1.00  0.00    -0.350 C  
HETATM    9  N   UNL     1     -11.095  14.440  69.546  1.00  0.00    -0.250 N  
HETATM   10  C   UNL     1     -11.541  14.470  68.137  1.00  0.00    -0.331 C  
HETATM   11  C   UNL     1     -10.952  15.752  70.121  1.00  0.00    -0.352 C  
HETATM   12  O   UNL     1      -9.914  16.396  70.113  1.00  0.00     0.147 OA 
HETATM   13  C   UNL     1     -12.878  15.233  68.003  1.00  0.00     1.821 C  
HETATM   14  C   UNL     1     -13.821  14.987  69.193  1.00  0.00     4.352 C  
BRANCH  10  15
HETATM   15  C   UNL     1     -10.560  14.986  67.058  1.00  0.00    -0.293 C  
HETATM   16  O   UNL     1      -9.782  14.228  66.480  1.00  0.00    -0.269 OA 
HETATM   17  N   UNL     1     -10.564  16.340  66.852  1.00  0.00    -0.299 N  
HETATM   18  H   UNL     1     -11.164  16.924  67.433  1.00  0.00     0.000 HD 
BRANCH  17  19
HETATM   19  C   UNL     1      -9.737  16.977  65.827  1.00  0.00    -0.050 C  
HETATM   20  C   UNL     1     -10.051  18.468  65.650  1.00  0.00     0.173 C  
HETATM   21  C   UNL     1      -9.616  19.274  66.869  1.00  0.00    -0.331 C  
HETATM   22  N   UNL     1      -8.195  19.076  67.170  1.00  0.00    -0.265 NA 
HETATM   23  H   UNL     1      -7.907  19.638  67.972  1.00  0.00     0.000 HD 
HETATM   24  C   UNL     1      -7.861  17.664  67.366  1.00  0.00    -0.205 C  
HETATM   25  C   UNL     1      -8.259  16.803  66.168  1.00  0.00    -0.300 C  
ENDBRANCH  17  19
ENDBRANCH  10  15
ENDBRANCH   3   6
TORSDOF 3
ENDMDL
MODEL      225
REMARK 921   NORMALIZED FREE ENERGY PREDICTED BY IDOCK:   12.13 KCAL/MOL
REMARK 922        TOTAL FREE ENERGY PREDICTED BY IDOCK:   13.39 KCAL/MOL
REMARK 923 INTER-LIGAND FREE ENERGY PREDICTED BY IDOCK:   13.51 KCAL/MOL
REMARK 924 INTRA-LIGAND FREE ENERGY PREDICTED BY IDOCK:   -0.12 KCAL/MOL
REMARK 927      BINDING AFFINITY PREDICTED BY RF-SCORE:    0.00 PKD
ROOT
HETATM    1  O   UNL     1     -10.350  18.292  72.463  1.00  0.00     3.522 OA 
HETATM    2  S   UNL     1     -11.309  17.199  73.163  1.00  0.00     1.838 S  
HETATM    3  O   UNL     1     -10.958  15.798  72.405  1.00  0.00     0.161 OA 
HETATM    4  O   UNL     1     -12.677  17.578  72.868  1.00  0.00     2.534 OA 
HETATM    5  O   UNL     1     -10.852  17.102  74.530  1.00  0.00     2.685 OA 
ENDROOT
BRANCH   3   6
HETATM    6  N   UNL     1     -11.531  15.614  71.085  1.00  0.00    -0.377 N  
HETATM    7  C   UNL     1     -12.969  15.403  71.257  1.00  0.00    -0.473 C  
HETATM    8  C   UNL     1     -12.991  13.946  71.677  1.00  0.00    -0.352 C  
HETATM    9  N   UNL     1     -12.066  13.384  70.703  1.00  0.00    -0.334 N  
HETATM   10  C   UNL     1     -12.697  13.208  69.378  1.00  0.00     0.635 C  
HETATM   11  C   UNL     1     -10.985  14.335  70.691  1.00  0.00     0.483 C  
HETATM   12  O   UNL     1      -9.814  14.041  70.499  1.00  0.00     1.922 OA 
HETATM   13  C   UNL     1     -13.212  14.558  68.833  1.00  0.00     2.324 C  
HETATM   14  C   UNL     1     -13.785  15.463  69.938  1.00  0.00     1.363 C  
BRANCH  10  15
HETATM   15  C   UNL     1     -11.897  12.491  68.265  1.00  0.00    -0.309 C  
HETATM   16  O   UNL     1     -11.870  11.263  68.180  1.00  0.00    -0.553 OA 
HETATM   17  N   UNL     1     -11.169  13.305  67.440  1.00  0.00    -0.278 N  
HETATM   18  H   UNL     1     -11.157  14.308  67.623  1.00  0.00     0.000 HD 
BRANCH  17  19
HETATM   19  C   UNL     1     -10.407  12.788  66.304  1.00  0.00    -0.258 C  
HETATM   20  C   UNL     1     -11.236  12.707  65.016  1.00  0.00    -0.331 C  
HETATM   21  C   UNL     1     -11.573  14.097  64.487  1.00  0.00    -0.389 C  
HETATM   22  N   UNL     1     -10.368  14.905  64.277  1.00  0.00    -0.202 NA 
HETATM   23  H   UNL     1     -10.601  15.824  63.900  1.00  0.00     0.000 HD 
HETATM   24  C   UNL     1      -9.560  15.021  65.492  1.00  0.00    -0.174 C  
HETATM   25  C   UNL     1      -9.174  13.657  66.065  1.00  0.00     0.072 C  
ENDBRANCH  17  19
ENDBRANCH  10  15
ENDBRANCH   3   6
TORSDOF 3
ENDMDL
MODEL      226
REMARK 921   NORMALIZED FREE ENERGY PREDICTED BY IDOCK:   13.04 KCAL/MOL
REMARK 922        TOTAL FREE ENERGY PREDICTED BY IDOCK:   14.46 KCAL/MOL
REMARK 923 INTER-LIGAND FREE ENERGY PREDICTED BY IDOCK:    2.60 KCAL/MOL
REMARK 924 INTRA-LIGAND FREE ENERGY PREDICTED BY IDOCK:   11.87 KCAL/MOL
REMARK 927      BINDING AFFINITY PREDICTED BY RF-SCORE:    0.00 PKD
ROOT
HETATM    1  O   UNL     1      -5.674  12.111  69.188  1.00  0.00    -0.063 OA 
HETATM    2  S   UNL     1      -6.661  10.851  69.389  1.00  0.00    -0.109 S  
HETATM    3  O   UNL     1      -7.474  10.737  67.981  1.00  0.00    -0.087 OA 
HETATM    4  O   UNL     1      -7.584  11.196  70.454  1.00  0.00     0.602 OA 
HETATM    5  O   UNL     1      -5.798   9.699  69.509  1.00  0.00    -0.033 OA 
ENDROOT
BRANCH   3   6
HETATM    6  N   UNL     1      -8.552  11.685  67.775  1.00  0.00    -0.139 N  
HETATM    7  C   UNL     1      -7.948  13.010  67.623  1.00  0.00    -0.169 C  
HETATM    8  C   UNL     1      -7.664  13.358  69.071  1.00  0.00     0.146 C  
HETATM    9  N   UNL     1      -8.925  12.963  69.682  1.00  0.00     1.724 N  
HETATM   10  C   UNL     1      -9.989  13.963  69.452  1.00  0.00     0.400 C  
HETATM   11  C   UNL     1      -9.204  11.692  69.066  1.00  0.00     0.187 C  
HETATM   12  O   UNL     1      -9.783  10.771  69.622  1.00  0.00    -0.080 OA 
HETATM   13  C   UNL     1     -10.228  14.172  67.940  1.00  0.00    -0.235 C  
HETATM   14  C   UNL     1      -8.927  14.104  67.121  1.00  0.00    -0.236 C  
BRANCH  10  15
HETATM   15  C   UNL     1     -11.354  13.769  70.153  1.00  0.00     0.040 C  
HETATM   16  O   UNL     1     -11.743  12.657  70.509  1.00  0.00    -0.166 OA 
HETATM   17  N   UNL     1     -12.123  14.895  70.275  1.00  0.00    -0.303 N  
HETATM   18  H   UNL     1     -11.785  15.768  69.872  1.00  0.00     0.000 HD 
BRANCH  17  19
HETATM   19  C   UNL     1     -13.413  14.890  70.964  1.00  0.00    -0.371 C  
HETATM   20  C   UNL     1     -14.213  13.604  70.724  1.00  0.00     1.557 C  
HETATM   21  C   UNL     1     -13.556  12.407  71.402  1.00  0.00     0.457 C  
HETATM   22  N   UNL     1     -13.363  12.636  72.837  1.00  0.00    -0.316 NA 
HETATM   23  H   UNL     1     -12.945  11.821  73.287  1.00  0.00     0.000 HD 
HETATM   24  C   UNL     1     -12.585  13.847  73.106  1.00  0.00     0.291 C  
HETATM   25  C   UNL     1     -13.203  15.088  72.464  1.00  0.00    -0.500 C  
ENDBRANCH  17  19
ENDBRANCH  10  15
ENDBRANCH   3   6
TORSDOF 3
ENDMDL
MODEL      227
REMARK 921   NORMALIZED FREE ENERGY PREDICTED BY IDOCK:   22.89 KCAL/MOL
REMARK 922        TOTAL FREE ENERGY PREDICTED BY IDOCK:   26.04 KCAL/MOL
REMARK 923 INTER-LIGAND FREE ENERGY PREDICTED BY IDOCK:   16.97 KCAL/MOL
REMARK 924 INTRA-LIGAND FREE ENERGY PREDICTED BY IDOCK:    9.07 KCAL/MOL
REMARK 927      BINDING AFFINITY PREDICTED BY RF-SCORE:    0.00 PKD
ROOT
HETATM    1  O   UNL     1     -12.637  13.649  64.022  1.00  0.00    -0.672 OA 
HETATM    2  S   UNL     1     -11.086  13.836  64.427  1.00  0.00    -0.288 S  
HETATM    3  O   UNL     1     -11.064  13.685  66.050  1.00  0.00    -0.292 OA 
HETATM    4  O   UNL     1     -10.708  15.188  64.062  1.00  0.00     0.490 OA 
HETATM    5  O   UNL     1     -10.398  12.701  63.856  1.00  0.00    -0.417 OA 
ENDROOT
BRANCH   3   6
HETATM    6  N   UNL     1     -11.513  14.832  66.815  1.00  0.00    -0.353 N  
HETATM    7  C   UNL     1     -12.055  15.807  65.867  1.00  0.00     1.091 C  
HETATM    8  C   UNL     1     -10.776  16.423  65.335  1.00  0.00    -0.296 C  
HETATM    9  N   UNL     1     -10.051  16.625  66.581  1.00  0.00    -0.290 N  
HETATM   10  C   UNL     1     -10.538  17.809  67.320  1.00  0.00    -0.316 C  
HETATM   11  C   UNL     1     -10.267  15.390  67.290  1.00  0.00    -0.254 C  
HETATM   12  O   UNL     1      -9.456  14.884  68.051  1.00  0.00    -0.193 OA 
HETATM   13  C   UNL     1     -12.041  17.668  67.651  1.00  0.00     2.665 C  
HETATM   14  C   UNL     1     -12.832  16.976  66.527  1.00  0.00     6.628 C  
BRANCH  10  15
HETATM   15  C   UNL     1      -9.784  18.250  68.597  1.00  0.00    -0.361 C  
HETATM   16  O   UNL     1      -9.931  19.374  69.076  1.00  0.00    -0.437 OA 
HETATM   17  N   UNL     1      -8.894  17.341  69.103  1.00  0.00    -0.061 N  
HETATM   18  H   UNL     1      -8.748  16.464  68.604  1.00  0.00     0.000 HD 
BRANCH  17  19
HETATM   19  C   UNL     1      -8.146  17.583  70.337  1.00  0.00     3.509 C  
HETATM   20  C   UNL     1      -6.645  17.781  70.094  1.00  0.00     0.522 C  
HETATM   21  C   UNL     1      -6.370  19.092  69.366  1.00  0.00    -0.298 C  
HETATM   22  N   UNL     1      -6.934  20.239  70.083  1.00  0.00    -0.060 NA 
HETATM   23  H   UNL     1      -6.724  21.114  69.602  1.00  0.00     0.000 HD 
HETATM   24  C   UNL     1      -8.372  20.095  70.315  1.00  0.00     1.403 C  
HETATM   25  C   UNL     1      -8.713  18.803  71.058  1.00  0.00     5.245 C  
ENDBRANCH  17  19
ENDBRANCH  10  15
ENDBRANCH   3   6
TORSDOF 3
ENDMDL
MODEL      228
REMARK 921   NORMALIZED FREE ENERGY PREDICTED BY IDOCK:   31.44 KCAL/MOL
REMARK 922        TOTAL FREE ENERGY PREDICTED BY IDOCK:   36.09 KCAL/MOL
REMARK 923 INTER-LIGAND FREE ENERGY PREDICTED BY IDOCK:   28.76 KCAL/MOL
REMARK 924 INTRA-LIGAND FREE ENERGY PREDICTED BY IDOCK:    7.33 KCAL/MOL
REMARK 927      BINDING AFFINITY PREDICTED BY RF-SCORE:    0.00 PKD
ROOT
HETATM    1  O   UNL     1     -10.982  18.294  65.596  1.00  0.00    -0.211 OA 
HETATM    2  S   UNL     1     -10.679  19.327  66.797  1.00  0.00    -0.378 S  
HETATM    3  O   UNL     1      -9.052  19.404  66.875  1.00  0.00    -0.296 OA 
HETATM    4  O   UNL     1     -11.193  18.730  68.015  1.00  0.00     0.041 OA 
HETATM    5  O   UNL     1     -11.172  20.606  66.341  1.00  0.00     1.089 OA 
ENDROOT
BRANCH   3   6
HETATM    6  N   UNL     1      -8.380  18.291  67.519  1.00  0.00    -0.243 N  
HETATM    7  C   UNL     1      -8.512  17.130  66.638  1.00  0.00    -0.250 C  
HETATM    8  C   UNL     1      -9.932  16.699  66.951  1.00  0.00    -0.271 C  
HETATM    9  N   UNL     1      -9.911  16.782  68.404  1.00  0.00    -0.242 N  
HETATM   10  C   UNL     1      -9.223  15.624  69.015  1.00  0.00    -0.243 C  
HETATM   11  C   UNL     1      -9.239  18.030  68.652  1.00  0.00    -0.267 C  
HETATM   12  O   UNL     1      -9.478  18.762  69.601  1.00  0.00     0.230 OA 
HETATM   13  C   UNL     1      -7.765  15.526  68.514  1.00  0.00    -0.132 C  
HETATM   14  C   UNL     1      -7.620  15.924  67.034  1.00  0.00    -0.264 C  
BRANCH  10  15
HETATM   15  C   UNL     1      -9.234  15.481  70.555  1.00  0.00     1.224 C  
HETATM   16  O   UNL     1     -10.277  15.568  71.203  1.00  0.00     0.330 OA 
HETATM   17  N   UNL     1      -8.008  15.331  71.145  1.00  0.00     1.835 N  
HETATM   18  H   UNL     1      -7.173  15.364  70.560  1.00  0.00     0.000 HD 
BRANCH  17  19
HETATM   19  C   UNL     1      -7.853  15.126  72.584  1.00  0.00     7.295 C  
HETATM   20  C   UNL     1      -7.924  13.647  72.987  1.00  0.00    10.390 C  
HETATM   21  C   UNL     1      -6.708  12.877  72.485  1.00  0.00     5.545 C  
HETATM   22  N   UNL     1      -5.455  13.479  72.949  1.00  0.00    -0.427 NA 
HETATM   23  H   UNL     1      -4.648  12.944  72.629  1.00  0.00     0.000 HD 
HETATM   24  C   UNL     1      -5.342  14.888  72.565  1.00  0.00     0.053 C  
HETATM   25  C   UNL     1      -6.527  15.720  73.055  1.00  0.00     3.954 C  
ENDBRANCH  17  19
ENDBRANCH  10  15
ENDBRANCH   3   6
TORSDOF 3
ENDMDL
