MODEL        1
REMARK 921   NORMALIZED FREE ENERGY PREDICTED BY IDOCK:   -5.74 KCAL/MOL
REMARK 922        TOTAL FREE ENERGY PREDICTED BY IDOCK:   -8.95 KCAL/MOL
REMARK 923 INTER-LIGAND FREE ENERGY PREDICTED BY IDOCK:   -8.76 KCAL/MOL
REMARK 924 INTRA-LIGAND FREE ENERGY PREDICTED BY IDOCK:   -0.18 KCAL/MOL
REMARK 927      BINDING AFFINITY PREDICTED BY RF-SCORE:    0.00 PKD
ROOT
HETATM    1  C   UNL     1      -6.200  17.801  65.816  1.00  0.00    -0.202 C  
HETATM    2  C   UNL     1      -6.517  17.182  67.170  1.00  0.00    -0.212 C  
ENDROOT
BRANCH   2   3
HETATM    3  C   UNL     1      -7.505  16.026  67.030  1.00  0.00    -0.229 C  
HETATM    4  N   UNL     1      -8.883  16.297  67.036  1.00  0.00    -0.195 N  
HETATM    5  O   UNL     1      -7.047  14.886  66.916  1.00  0.00    -0.076 OA 
BRANCH   4   6
HETATM    6  C   UNL     1      -9.367  17.659  67.123  1.00  0.00    -0.245 A  
HETATM    7  C   UNL     1     -10.039  18.290  66.062  1.00  0.00    -0.278 A  
HETATM    8  C   UNL     1     -10.520  19.598  66.181  1.00  0.00    -0.624 A  
HETATM    9  C   UNL     1      -9.153  18.404  68.290  1.00  0.00    -0.330 A  
HETATM   10  C   UNL     1     -10.328  20.307  67.360  1.00  0.00    -0.424 A  
HETATM   11  C   UNL     1      -9.635  19.716  68.412  1.00  0.00    -0.468 A  
ENDBRANCH   4   6
BRANCH   4  12
HETATM   12  C   UNL     1      -9.885  15.162  67.279  1.00  0.00    -0.228 C  
HETATM   13  C   UNL     1      -9.435  14.280  68.478  1.00  0.00    -0.206 C  
HETATM   14  C   UNL     1      -9.539  15.072  69.787  1.00  0.00     0.038 C  
HETATM   15  N   UNL     1     -10.909  15.497  70.105  1.00  0.00    -0.309 NA 
HETATM   16  C   UNL     1     -11.467  16.277  68.984  1.00  0.00    -0.268 C  
HETATM   17  C   UNL     1     -11.349  15.570  67.633  1.00  0.00    -0.260 C  
BRANCH  12  18
HETATM   18  C   UNL     1     -10.041  14.315  65.991  1.00  0.00    -0.318 C  
HETATM   19  O   UNL     1     -10.308  14.769  64.885  1.00  0.00    -0.406 OA 
BRANCH  18  20
HETATM   20  O   UNL     1      -9.798  12.989  66.230  1.00  0.00    -0.269 OA 
HETATM   21  C   UNL     1     -10.434  12.080  65.335  1.00  0.00    -0.275 C  
ENDBRANCH  18  20
ENDBRANCH  12  18
BRANCH  15  22
HETATM   22  C   UNL     1     -11.812  14.394  70.494  1.00  0.00    -0.299 C  
BRANCH  22  23
HETATM   23  C   UNL     1     -13.254  14.833  70.759  1.00  0.00    -0.355 C  
BRANCH  23  24
HETATM   24  C   UNL     1     -13.594  14.650  72.215  1.00  0.00    -0.433 C  
HETATM   25  O   UNL     1     -13.859  13.582  72.750  1.00  0.00    -0.730 OA 
BRANCH  24  26
HETATM   26  O   UNL     1     -13.528  15.850  72.859  1.00  0.00    -0.539 OA 
HETATM   27  C   UNL     1     -12.655  15.841  73.986  1.00  0.00    -0.623 C  
ENDBRANCH  24  26
ENDBRANCH  23  24
ENDBRANCH  22  23
ENDBRANCH  15  22
ENDBRANCH   4  12
ENDBRANCH   2   3
TORSDOF 9
ENDMDL
MODEL        2
REMARK 921   NORMALIZED FREE ENERGY PREDICTED BY IDOCK:   -5.59 KCAL/MOL
REMARK 922        TOTAL FREE ENERGY PREDICTED BY IDOCK:   -8.72 KCAL/MOL
REMARK 923 INTER-LIGAND FREE ENERGY PREDICTED BY IDOCK:   -8.26 KCAL/MOL
REMARK 924 INTRA-LIGAND FREE ENERGY PREDICTED BY IDOCK:   -0.45 KCAL/MOL
REMARK 927      BINDING AFFINITY PREDICTED BY RF-SCORE:    0.00 PKD
ROOT
HETATM    1  C   UNL     1      -5.577  16.860  68.304  1.00  0.00    -0.122 C  
HETATM    2  C   UNL     1      -6.774  16.979  69.235  1.00  0.00    -0.234 C  
ENDROOT
BRANCH   2   3
HETATM    3  C   UNL     1      -7.822  15.912  68.926  1.00  0.00    -0.198 C  
HETATM    4  N   UNL     1      -9.030  16.293  68.319  1.00  0.00    -0.188 N  
HETATM    5  O   UNL     1      -7.562  14.744  69.227  1.00  0.00    -0.151 OA 
BRANCH   4   6
HETATM    6  C   UNL     1      -9.265  17.671  67.943  1.00  0.00    -0.267 A  
HETATM    7  C   UNL     1      -8.760  18.224  66.753  1.00  0.00    -0.281 A  
HETATM    8  C   UNL     1      -9.023  19.552  66.399  1.00  0.00    -0.410 A  
HETATM    9  C   UNL     1     -10.002  18.512  68.787  1.00  0.00    -0.417 A  
HETATM   10  C   UNL     1      -9.786  20.358  67.233  1.00  0.00    -0.597 A  
HETATM   11  C   UNL     1     -10.268  19.843  68.433  1.00  0.00    -0.557 A  
ENDBRANCH   4   6
BRANCH   4  12
HETATM   12  C   UNL     1     -10.232  15.341  68.343  1.00  0.00    -0.223 C  
HETATM   13  C   UNL     1     -11.243  15.706  67.219  1.00  0.00    -0.184 C  
HETATM   14  C   UNL     1     -10.637  15.406  65.843  1.00  0.00    -0.339 C  
HETATM   15  N   UNL     1     -10.322  13.986  65.640  1.00  0.00    -0.315 NA 
HETATM   16  C   UNL     1      -9.427  13.511  66.713  1.00  0.00    -0.269 C  
HETATM   17  C   UNL     1      -9.943  13.824  68.119  1.00  0.00    -0.242 C  
BRANCH  12  18
HETATM   18  C   UNL     1     -10.908  15.384  69.736  1.00  0.00    -0.288 C  
HETATM   19  O   UNL     1     -10.309  15.344  70.805  1.00  0.00    -0.125 OA 
BRANCH  18  20
HETATM   20  O   UNL     1     -12.266  15.519  69.631  1.00  0.00    -0.343 OA 
HETATM   21  C   UNL     1     -12.997  15.293  70.834  1.00  0.00    -0.462 C  
ENDBRANCH  18  20
ENDBRANCH  12  18
BRANCH  15  22
HETATM   22  C   UNL     1     -11.506  13.114  65.504  1.00  0.00    -0.315 C  
BRANCH  22  23
HETATM   23  C   UNL     1     -11.691  12.526  64.103  1.00  0.00    -0.471 C  
BRANCH  23  24
HETATM   24  C   UNL     1     -10.604  11.524  63.813  1.00  0.00    -0.406 C  
HETATM   25  O   UNL     1      -9.881  11.529  62.826  1.00  0.00    -0.307 OA 
BRANCH  24  26
HETATM   26  O   UNL     1     -10.521  10.626  64.836  1.00  0.00    -0.312 OA 
HETATM   27  C   UNL     1      -9.246   9.995  64.933  1.00  0.00    -0.239 C  
ENDBRANCH  24  26
ENDBRANCH  23  24
ENDBRANCH  22  23
ENDBRANCH  15  22
ENDBRANCH   4  12
ENDBRANCH   2   3
TORSDOF 9
ENDMDL
MODEL        3
REMARK 921   NORMALIZED FREE ENERGY PREDICTED BY IDOCK:   -5.57 KCAL/MOL
REMARK 922        TOTAL FREE ENERGY PREDICTED BY IDOCK:   -8.68 KCAL/MOL
REMARK 923 INTER-LIGAND FREE ENERGY PREDICTED BY IDOCK:   -8.38 KCAL/MOL
REMARK 924 INTRA-LIGAND FREE ENERGY PREDICTED BY IDOCK:   -0.31 KCAL/MOL
REMARK 927      BINDING AFFINITY PREDICTED BY RF-SCORE:    0.00 PKD
ROOT
HETATM    1  C   UNL     1      -7.503   7.580  71.596  1.00  0.00    -0.083 C  
HETATM    2  C   UNL     1      -8.362   8.833  71.698  1.00  0.00    -0.190 C  
ENDROOT
BRANCH   2   3
HETATM    3  C   UNL     1      -8.505   9.516  70.340  1.00  0.00    -0.201 C  
HETATM    4  N   UNL     1      -9.775   9.605  69.748  1.00  0.00    -0.209 N  
HETATM    5  O   UNL     1      -7.486   9.967  69.811  1.00  0.00    -0.115 OA 
BRANCH   4   6
HETATM    6  C   UNL     1     -10.947   9.102  70.435  1.00  0.00    -0.248 A  
HETATM    7  C   UNL     1     -11.803   9.935  71.176  1.00  0.00    -0.472 A  
HETATM    8  C   UNL     1     -12.944   9.429  71.808  1.00  0.00    -0.484 A  
HETATM    9  C   UNL     1     -11.250   7.734  70.393  1.00  0.00    -0.246 A  
HETATM   10  C   UNL     1     -13.245   8.076  71.724  1.00  0.00    -0.367 A  
HETATM   11  C   UNL     1     -12.393   7.225  71.026  1.00  0.00    -0.335 A  
ENDBRANCH   4   6
BRANCH   4  12
HETATM   12  C   UNL     1      -9.903   9.929  68.255  1.00  0.00    -0.147 C  
HETATM   13  C   UNL     1     -11.307  10.520  67.940  1.00  0.00    -0.297 C  
HETATM   14  C   UNL     1     -11.450  11.910  68.572  1.00  0.00    -0.295 C  
HETATM   15  N   UNL     1     -10.487  12.889  68.053  1.00  0.00    -0.224 NA 
HETATM   16  C   UNL     1      -9.112  12.383  68.226  1.00  0.00    -0.183 C  
HETATM   17  C   UNL     1      -8.907  10.975  67.665  1.00  0.00    -0.131 C  
BRANCH  12  18
HETATM   18  C   UNL     1      -9.635   8.653  67.417  1.00  0.00    -0.159 C  
HETATM   19  O   UNL     1      -8.527   8.168  67.219  1.00  0.00    -0.122 OA 
BRANCH  18  20
HETATM   20  O   UNL     1     -10.800   8.102  66.956  1.00  0.00    -0.265 OA 
HETATM   21  C   UNL     1     -10.857   6.678  66.991  1.00  0.00    -0.397 C  
ENDBRANCH  18  20
ENDBRANCH  12  18
BRANCH  15  22
HETATM   22  C   UNL     1     -10.734  13.305  66.658  1.00  0.00    -0.280 C  
BRANCH  22  23
HETATM   23  C   UNL     1     -11.980  14.176  66.477  1.00  0.00    -0.466 C  
BRANCH  23  24
HETATM   24  C   UNL     1     -12.551  13.985  65.096  1.00  0.00    -0.428 C  
HETATM   25  O   UNL     1     -12.626  14.851  64.236  1.00  0.00    -0.699 OA 
BRANCH  24  26
HETATM   26  O   UNL     1     -12.942  12.689  64.934  1.00  0.00    -0.830 OA 
HETATM   27  C   UNL     1     -12.560  12.135  63.677  1.00  0.00    -0.504 C  
ENDBRANCH  24  26
ENDBRANCH  23  24
ENDBRANCH  22  23
ENDBRANCH  15  22
ENDBRANCH   4  12
ENDBRANCH   2   3
TORSDOF 9
ENDMDL
MODEL        4
REMARK 921   NORMALIZED FREE ENERGY PREDICTED BY IDOCK:   -5.54 KCAL/MOL
REMARK 922        TOTAL FREE ENERGY PREDICTED BY IDOCK:   -8.63 KCAL/MOL
REMARK 923 INTER-LIGAND FREE ENERGY PREDICTED BY IDOCK:   -8.67 KCAL/MOL
REMARK 924 INTRA-LIGAND FREE ENERGY PREDICTED BY IDOCK:    0.04 KCAL/MOL
REMARK 927      BINDING AFFINITY PREDICTED BY RF-SCORE:    0.00 PKD
ROOT
HETATM    1  C   UNL     1     -12.607  12.390  63.927  1.00  0.00    -0.528 C  
HETATM    2  C   UNL     1     -11.093  12.530  63.865  1.00  0.00    -0.476 C  
ENDROOT
BRANCH   2   3
HETATM    3  C   UNL     1     -10.602  13.634  64.798  1.00  0.00    -0.422 C  
HETATM    4  N   UNL     1      -9.951  13.284  65.992  1.00  0.00    -0.294 N  
HETATM    5  O   UNL     1     -10.801  14.804  64.462  1.00  0.00    -0.324 OA 
BRANCH   4   6
HETATM    6  C   UNL     1      -9.700  11.895  66.316  1.00  0.00    -0.229 A  
HETATM    7  C   UNL     1     -10.724  11.015  66.707  1.00  0.00    -0.319 A  
HETATM    8  C   UNL     1     -10.460   9.670  66.988  1.00  0.00    -0.302 A  
HETATM    9  C   UNL     1      -8.394  11.389  66.265  1.00  0.00    -0.111 A  
HETATM   10  C   UNL     1      -9.163   9.181  66.897  1.00  0.00    -0.183 A  
HETATM   11  C   UNL     1      -8.127  10.041  66.547  1.00  0.00    -0.119 A  
ENDBRANCH   4   6
BRANCH   4  12
HETATM   12  C   UNL     1      -9.791  14.322  67.110  1.00  0.00    -0.252 C  
HETATM   13  C   UNL     1     -11.023  15.269  67.160  1.00  0.00    -0.331 C  
HETATM   14  C   UNL     1     -12.265  14.500  67.626  1.00  0.00    -0.111 C  
HETATM   15  N   UNL     1     -12.137  13.952  68.983  1.00  0.00    -0.356 NA 
HETATM   16  C   UNL     1     -10.937  13.097  69.069  1.00  0.00    -0.197 C  
HETATM   17  C   UNL     1      -9.664  13.783  68.569  1.00  0.00    -0.193 C  
BRANCH  12  18
HETATM   18  C   UNL     1      -8.481  15.122  66.900  1.00  0.00    -0.244 C  
HETATM   19  O   UNL     1      -7.392  14.816  67.372  1.00  0.00    -0.192 OA 
BRANCH  18  20
HETATM   20  O   UNL     1      -8.677  16.198  66.077  1.00  0.00    -0.331 OA 
HETATM   21  C   UNL     1      -7.929  17.365  66.409  1.00  0.00    -0.290 C  
ENDBRANCH  18  20
ENDBRANCH  12  18
BRANCH  15  22
HETATM   22  C   UNL     1     -12.149  14.970  70.053  1.00  0.00    -0.337 C  
BRANCH  22  23
HETATM   23  C   UNL     1     -13.452  15.017  70.855  1.00  0.00    -0.402 C  
BRANCH  23  24
HETATM   24  C   UNL     1     -13.212  14.537  72.263  1.00  0.00    -0.389 C  
HETATM   25  O   UNL     1     -13.819  13.629  72.814  1.00  0.00    -0.727 OA 
BRANCH  24  26
HETATM   26  O   UNL     1     -12.190  15.244  72.823  1.00  0.00    -0.354 OA 
HETATM   27  C   UNL     1     -12.418  15.585  74.189  1.00  0.00    -0.662 C  
ENDBRANCH  24  26
ENDBRANCH  23  24
ENDBRANCH  22  23
ENDBRANCH  15  22
ENDBRANCH   4  12
ENDBRANCH   2   3
TORSDOF 9
ENDMDL
MODEL        5
REMARK 921   NORMALIZED FREE ENERGY PREDICTED BY IDOCK:   -5.50 KCAL/MOL
REMARK 922        TOTAL FREE ENERGY PREDICTED BY IDOCK:   -8.57 KCAL/MOL
REMARK 923 INTER-LIGAND FREE ENERGY PREDICTED BY IDOCK:   -8.13 KCAL/MOL
REMARK 924 INTRA-LIGAND FREE ENERGY PREDICTED BY IDOCK:   -0.44 KCAL/MOL
REMARK 927      BINDING AFFINITY PREDICTED BY RF-SCORE:    0.00 PKD
ROOT
HETATM    1  C   UNL     1     -11.257  11.550  69.291  1.00  0.00    -0.336 C  
HETATM    2  C   UNL     1     -12.030  12.758  68.781  1.00  0.00    -0.278 C  
ENDROOT
BRANCH   2   3
HETATM    3  C   UNL     1     -11.137  13.994  68.709  1.00  0.00    -0.264 C  
HETATM    4  N   UNL     1     -10.598  14.379  67.470  1.00  0.00    -0.263 N  
HETATM    5  O   UNL     1     -10.921  14.612  69.754  1.00  0.00    -0.254 OA 
BRANCH   4   6
HETATM    6  C   UNL     1     -10.923  13.646  66.264  1.00  0.00    -0.299 A  
HETATM    7  C   UNL     1     -12.073  13.918  65.502  1.00  0.00    -0.425 A  
HETATM    8  C   UNL     1     -12.350  13.213  64.326  1.00  0.00    -0.421 A  
HETATM    9  C   UNL     1     -10.088  12.608  65.829  1.00  0.00    -0.284 A  
HETATM   10  C   UNL     1     -11.490  12.212  63.894  1.00  0.00    -0.519 A  
HETATM   11  C   UNL     1     -10.364  11.901  64.650  1.00  0.00    -0.326 A  
ENDBRANCH   4   6
BRANCH   4  12
HETATM   12  C   UNL     1      -9.420  15.359  67.418  1.00  0.00    -0.205 C  
HETATM   13  C   UNL     1      -9.214  15.894  65.972  1.00  0.00    -0.372 C  
HETATM   14  C   UNL     1     -10.386  16.797  65.570  1.00  0.00    -0.215 C  
HETATM   15  N   UNL     1     -10.520  17.991  66.415  1.00  0.00    -0.367 NA 
HETATM   16  C   UNL     1     -10.636  17.595  67.831  1.00  0.00    -0.387 C  
HETATM   17  C   UNL     1      -9.527  16.648  68.291  1.00  0.00    -0.230 C  
BRANCH  12  18
HETATM   18  C   UNL     1      -8.138  14.665  67.943  1.00  0.00    -0.145 C  
HETATM   19  O   UNL     1      -7.600  13.699  67.414  1.00  0.00    -0.167 OA 
BRANCH  18  20
HETATM   20  O   UNL     1      -7.646  15.294  69.055  1.00  0.00    -0.142 OA 
HETATM   21  C   UNL     1      -6.658  14.568  69.782  1.00  0.00    -0.158 C  
ENDBRANCH  18  20
ENDBRANCH  12  18
BRANCH  15  22
HETATM   22  C   UNL     1      -9.452  18.994  66.224  1.00  0.00    -0.314 C  
BRANCH  22  23
HETATM   23  C   UNL     1      -9.485  20.141  67.236  1.00  0.00    -0.532 C  
BRANCH  23  24
HETATM   24  C   UNL     1      -8.140  20.287  67.899  1.00  0.00    -0.169 C  
HETATM   25  O   UNL     1      -7.712  19.574  68.795  1.00  0.00    -0.344 OA 
BRANCH  24  26
HETATM   26  O   UNL     1      -7.453  21.316  67.326  1.00  0.00    -0.449 OA 
HETATM   27  C   UNL     1      -6.179  20.931  66.814  1.00  0.00    -0.267 C  
ENDBRANCH  24  26
ENDBRANCH  23  24
ENDBRANCH  22  23
ENDBRANCH  15  22
ENDBRANCH   4  12
ENDBRANCH   2   3
TORSDOF 9
ENDMDL
MODEL        6
REMARK 921   NORMALIZED FREE ENERGY PREDICTED BY IDOCK:   -5.49 KCAL/MOL
REMARK 922        TOTAL FREE ENERGY PREDICTED BY IDOCK:   -8.56 KCAL/MOL
REMARK 923 INTER-LIGAND FREE ENERGY PREDICTED BY IDOCK:   -8.03 KCAL/MOL
REMARK 924 INTRA-LIGAND FREE ENERGY PREDICTED BY IDOCK:   -0.53 KCAL/MOL
REMARK 927      BINDING AFFINITY PREDICTED BY RF-SCORE:    0.00 PKD
ROOT
HETATM    1  C   UNL     1     -10.893   5.977  72.030  1.00  0.00    -0.300 C  
HETATM    2  C   UNL     1     -11.748   6.485  70.878  1.00  0.00    -0.416 C  
ENDROOT
BRANCH   2   3
HETATM    3  C   UNL     1     -11.408   7.933  70.535  1.00  0.00    -0.234 C  
HETATM    4  N   UNL     1     -10.606   8.202  69.413  1.00  0.00    -0.223 N  
HETATM    5  O   UNL     1     -11.855   8.820  71.267  1.00  0.00    -0.284 OA 
BRANCH   4   6
HETATM    6  C   UNL     1     -10.148   7.126  68.559  1.00  0.00    -0.168 A  
HETATM    7  C   UNL     1      -8.865   6.562  68.680  1.00  0.00    -0.121 A  
HETATM    8  C   UNL     1      -8.456   5.505  67.860  1.00  0.00    -0.098 A  
HETATM    9  C   UNL     1     -10.986   6.624  67.555  1.00  0.00    -0.416 A  
HETATM   10  C   UNL     1      -9.315   4.998  66.894  1.00  0.00    -0.134 A  
HETATM   11  C   UNL     1     -10.576   5.563  66.733  1.00  0.00    -0.360 A  
ENDBRANCH   4   6
BRANCH   4  12
HETATM   12  C   UNL     1      -9.940   9.575  69.259  1.00  0.00    -0.187 C  
HETATM   13  C   UNL     1      -9.692   9.899  67.758  1.00  0.00    -0.175 C  
HETATM   14  C   UNL     1     -11.027  10.119  67.037  1.00  0.00    -0.092 C  
HETATM   15  N   UNL     1     -11.794  11.256  67.562  1.00  0.00    -0.604 NA 
HETATM   16  C   UNL     1     -12.012  11.089  69.011  1.00  0.00    -0.293 C  
HETATM   17  C   UNL     1     -10.727  10.812  69.793  1.00  0.00    -0.241 C  
BRANCH  12  18
HETATM   18  C   UNL     1      -8.616   9.608  70.063  1.00  0.00    -0.215 C  
HETATM   19  O   UNL     1      -8.511   9.318  71.249  1.00  0.00    -0.314 OA 
BRANCH  18  20
HETATM   20  O   UNL     1      -7.556   9.959  69.271  1.00  0.00    -0.083 OA 
HETATM   21  C   UNL     1      -6.689  10.951  69.814  1.00  0.00    -0.144 C  
ENDBRANCH  18  20
ENDBRANCH  12  18
BRANCH  15  22
HETATM   22  C   UNL     1     -11.208  12.577  67.256  1.00  0.00    -0.295 C  
BRANCH  22  23
HETATM   23  C   UNL     1     -11.187  12.921  65.764  1.00  0.00    -0.324 C  
BRANCH  23  24
HETATM   24  C   UNL     1     -12.587  13.183  65.272  1.00  0.00    -0.472 C  
HETATM   25  O   UNL     1     -13.272  14.150  65.572  1.00  0.00    -0.688 OA 
BRANCH  24  26
HETATM   26  O   UNL     1     -12.966  12.195  64.412  1.00  0.00    -0.680 OA 
HETATM   27  C   UNL     1     -11.956  11.847  63.468  1.00  0.00    -0.466 C  
ENDBRANCH  24  26
ENDBRANCH  23  24
ENDBRANCH  22  23
ENDBRANCH  15  22
ENDBRANCH   4  12
ENDBRANCH   2   3
TORSDOF 9
ENDMDL
MODEL        7
REMARK 921   NORMALIZED FREE ENERGY PREDICTED BY IDOCK:   -5.45 KCAL/MOL
REMARK 922        TOTAL FREE ENERGY PREDICTED BY IDOCK:   -8.50 KCAL/MOL
REMARK 923 INTER-LIGAND FREE ENERGY PREDICTED BY IDOCK:   -8.27 KCAL/MOL
REMARK 924 INTRA-LIGAND FREE ENERGY PREDICTED BY IDOCK:   -0.23 KCAL/MOL
REMARK 927      BINDING AFFINITY PREDICTED BY RF-SCORE:    0.00 PKD
ROOT
HETATM    1  C   UNL     1      -7.600   7.480  71.531  1.00  0.00    -0.084 C  
HETATM    2  C   UNL     1      -8.507   8.697  71.644  1.00  0.00    -0.230 C  
ENDROOT
BRANCH   2   3
HETATM    3  C   UNL     1      -8.658   9.400  70.297  1.00  0.00    -0.221 C  
HETATM    4  N   UNL     1      -9.937   9.533  69.732  1.00  0.00    -0.199 N  
HETATM    5  O   UNL     1      -7.638   9.827  69.752  1.00  0.00    -0.102 OA 
BRANCH   4   6
HETATM    6  C   UNL     1     -11.109   9.056  70.438  1.00  0.00    -0.244 A  
HETATM    7  C   UNL     1     -11.504   7.707  70.418  1.00  0.00    -0.192 A  
HETATM    8  C   UNL     1     -12.625   7.266  71.131  1.00  0.00    -0.362 A  
HETATM    9  C   UNL     1     -11.906   9.955  71.159  1.00  0.00    -0.472 A  
HETATM   10  C   UNL     1     -13.381   8.168  71.867  1.00  0.00    -0.350 A  
HETATM   11  C   UNL     1     -13.030   9.515  71.874  1.00  0.00    -0.514 A  
ENDBRANCH   4   6
BRANCH   4  12
HETATM   12  C   UNL     1     -10.086   9.878  68.245  1.00  0.00    -0.161 C  
HETATM   13  C   UNL     1     -11.482  10.505  67.965  1.00  0.00    -0.230 C  
HETATM   14  C   UNL     1     -11.581  11.889  68.616  1.00  0.00    -0.310 C  
HETATM   15  N   UNL     1     -10.605  12.853  68.090  1.00  0.00    -0.230 NA 
HETATM   16  C   UNL     1      -9.239  12.313  68.231  1.00  0.00    -0.189 C  
HETATM   17  C   UNL     1      -9.077  10.908  67.649  1.00  0.00    -0.148 C  
BRANCH  12  18
HETATM   18  C   UNL     1      -9.863   8.607  67.388  1.00  0.00    -0.192 C  
HETATM   19  O   UNL     1     -10.746   7.823  67.058  1.00  0.00    -0.347 OA 
BRANCH  18  20
HETATM   20  O   UNL     1      -8.557   8.486  66.999  1.00  0.00    -0.119 OA 
HETATM   21  C   UNL     1      -7.886   7.318  67.463  1.00  0.00    -0.112 C  
ENDBRANCH  18  20
ENDBRANCH  12  18
BRANCH  15  22
HETATM   22  C   UNL     1     -10.870  13.291  66.705  1.00  0.00    -0.281 C  
BRANCH  22  23
HETATM   23  C   UNL     1     -12.240  13.945  66.507  1.00  0.00    -0.482 C  
BRANCH  23  24
HETATM   24  C   UNL     1     -12.637  13.890  65.055  1.00  0.00    -0.390 C  
HETATM   25  O   UNL     1     -12.581  14.826  64.271  1.00  0.00    -0.706 OA 
BRANCH  24  26
HETATM   26  O   UNL     1     -13.036  12.626  64.734  1.00  0.00    -0.852 OA 
HETATM   27  C   UNL     1     -12.522  12.169  63.486  1.00  0.00    -0.555 C  
ENDBRANCH  24  26
ENDBRANCH  23  24
ENDBRANCH  22  23
ENDBRANCH  15  22
ENDBRANCH   4  12
ENDBRANCH   2   3
TORSDOF 9
ENDMDL
MODEL        8
REMARK 921   NORMALIZED FREE ENERGY PREDICTED BY IDOCK:   -5.43 KCAL/MOL
REMARK 922        TOTAL FREE ENERGY PREDICTED BY IDOCK:   -8.48 KCAL/MOL
REMARK 923 INTER-LIGAND FREE ENERGY PREDICTED BY IDOCK:   -8.26 KCAL/MOL
REMARK 924 INTRA-LIGAND FREE ENERGY PREDICTED BY IDOCK:   -0.21 KCAL/MOL
REMARK 927      BINDING AFFINITY PREDICTED BY RF-SCORE:    0.00 PKD
ROOT
HETATM    1  C   UNL     1     -11.326  10.087  70.585  1.00  0.00    -0.425 C  
HETATM    2  C   UNL     1     -10.437  10.292  69.366  1.00  0.00    -0.259 C  
ENDROOT
BRANCH   2   3
HETATM    3  C   UNL     1     -11.111  11.197  68.338  1.00  0.00    -0.247 C  
HETATM    4  N   UNL     1     -10.314  11.932  67.445  1.00  0.00    -0.205 N  
HETATM    5  O   UNL     1     -12.343  11.248  68.333  1.00  0.00    -0.545 OA 
BRANCH   4   6
HETATM    6  C   UNL     1      -8.872  11.799  67.461  1.00  0.00    -0.162 A  
HETATM    7  C   UNL     1      -8.164  11.134  66.444  1.00  0.00    -0.164 A  
HETATM    8  C   UNL     1      -6.768  11.042  66.469  1.00  0.00    -0.135 A  
HETATM    9  C   UNL     1      -8.132  12.325  68.528  1.00  0.00    -0.101 A  
HETATM   10  C   UNL     1      -6.052  11.602  67.519  1.00  0.00    -0.079 A  
HETATM   11  C   UNL     1      -6.733  12.234  68.555  1.00  0.00    -0.076 A  
ENDBRANCH   4   6
BRANCH   4  12
HETATM   12  C   UNL     1     -10.917  13.113  66.675  1.00  0.00    -0.283 C  
HETATM   13  C   UNL     1     -11.933  13.886  67.563  1.00  0.00    -0.421 C  
HETATM   14  C   UNL     1     -11.202  14.601  68.705  1.00  0.00    -0.275 C  
HETATM   15  N   UNL     1     -10.240  15.610  68.242  1.00  0.00    -0.221 NA 
HETATM   16  C   UNL     1      -9.271  14.993  67.315  1.00  0.00    -0.201 C  
HETATM   17  C   UNL     1      -9.931  14.215  66.175  1.00  0.00    -0.328 C  
BRANCH  12  18
HETATM   18  C   UNL     1     -11.587  12.604  65.374  1.00  0.00    -0.363 C  
HETATM   19  O   UNL     1     -12.757  12.247  65.285  1.00  0.00    -0.543 OA 
BRANCH  18  20
HETATM   20  O   UNL     1     -10.722  12.643  64.314  1.00  0.00    -0.331 OA 
HETATM   21  C   UNL     1     -10.558  11.413  63.614  1.00  0.00    -0.412 C  
ENDBRANCH  18  20
ENDBRANCH  12  18
BRANCH  15  22
HETATM   22  C   UNL     1     -10.859  16.813  67.649  1.00  0.00    -0.252 C  
BRANCH  22  23
HETATM   23  C   UNL     1      -9.855  17.800  67.048  1.00  0.00    -0.309 C  
BRANCH  23  24
HETATM   24  C   UNL     1     -10.384  18.354  65.752  1.00  0.00    -0.181 C  
HETATM   25  O   UNL     1     -11.000  17.716  64.909  1.00  0.00    -0.886 OA 
BRANCH  24  26
HETATM   26  O   UNL     1     -10.105  19.686  65.671  1.00  0.00    -0.407 OA 
HETATM   27  C   UNL     1      -9.958  20.313  66.943  1.00  0.00    -0.452 C  
ENDBRANCH  24  26
ENDBRANCH  23  24
ENDBRANCH  22  23
ENDBRANCH  15  22
ENDBRANCH   4  12
ENDBRANCH   2   3
TORSDOF 9
ENDMDL
MODEL        9
REMARK 921   NORMALIZED FREE ENERGY PREDICTED BY IDOCK:   -5.39 KCAL/MOL
REMARK 922        TOTAL FREE ENERGY PREDICTED BY IDOCK:   -8.42 KCAL/MOL
REMARK 923 INTER-LIGAND FREE ENERGY PREDICTED BY IDOCK:   -8.76 KCAL/MOL
REMARK 924 INTRA-LIGAND FREE ENERGY PREDICTED BY IDOCK:    0.34 KCAL/MOL
REMARK 927      BINDING AFFINITY PREDICTED BY RF-SCORE:    0.00 PKD
ROOT
HETATM    1  C   UNL     1      -9.061  10.126  63.107  1.00  0.00    -0.296 C  
HETATM    2  C   UNL     1      -9.321  10.615  64.525  1.00  0.00    -0.284 C  
ENDROOT
BRANCH   2   3
HETATM    3  C   UNL     1      -9.793  12.067  64.530  1.00  0.00    -0.153 C  
HETATM    4  N   UNL     1     -10.274  12.628  65.725  1.00  0.00    -0.269 N  
HETATM    5  O   UNL     1      -9.732  12.697  63.472  1.00  0.00    -0.206 OA 
BRANCH   4   6
HETATM    6  C   UNL     1     -10.279  11.858  66.952  1.00  0.00    -0.208 A  
HETATM    7  C   UNL     1     -11.410  11.149  67.393  1.00  0.00    -0.329 A  
HETATM    8  C   UNL     1     -11.381  10.391  68.568  1.00  0.00    -0.283 A  
HETATM    9  C   UNL     1      -9.133  11.817  67.757  1.00  0.00    -0.178 A  
HETATM   10  C   UNL     1     -10.224  10.336  69.334  1.00  0.00    -0.255 A  
HETATM   11  C   UNL     1      -9.102  11.057  68.936  1.00  0.00    -0.132 A  
ENDBRANCH   4   6
BRANCH   4  12
HETATM   12  C   UNL     1     -11.094  13.923  65.687  1.00  0.00    -0.298 C  
HETATM   13  C   UNL     1     -11.606  14.290  67.109  1.00  0.00    -0.402 C  
HETATM   14  C   UNL     1     -10.430  14.693  68.007  1.00  0.00    -0.236 C  
HETATM   15  N   UNL     1      -9.711  15.881  67.531  1.00  0.00    -0.223 NA 
HETATM   16  C   UNL     1      -9.253  15.669  66.144  1.00  0.00    -0.343 C  
HETATM   17  C   UNL     1     -10.365  15.213  65.199  1.00  0.00    -0.416 C  
BRANCH  12  18
HETATM   18  C   UNL     1     -12.273  13.769  64.694  1.00  0.00    -0.406 C  
HETATM   19  O   UNL     1     -12.603  14.610  63.866  1.00  0.00    -0.834 OA 
BRANCH  18  20
HETATM   20  O   UNL     1     -12.880  12.549  64.821  1.00  0.00    -0.755 OA 
HETATM   21  C   UNL     1     -13.124  11.857  63.599  1.00  0.00    -0.027 C  
ENDBRANCH  18  20
ENDBRANCH  12  18
BRANCH  15  22
HETATM   22  C   UNL     1     -10.470  17.142  67.658  1.00  0.00    -0.355 C  
BRANCH  22  23
HETATM   23  C   UNL     1      -9.694  18.385  67.214  1.00  0.00    -0.304 C  
BRANCH  23  24
HETATM   24  C   UNL     1     -10.393  19.046  66.054  1.00  0.00    -0.446 C  
HETATM   25  O   UNL     1     -11.013  18.461  65.176  1.00  0.00    -0.604 OA 
BRANCH  24  26
HETATM   26  O   UNL     1     -10.263  20.400  66.148  1.00  0.00    -0.351 OA 
HETATM   27  C   UNL     1      -9.908  20.846  67.454  1.00  0.00    -0.168 C  
ENDBRANCH  24  26
ENDBRANCH  23  24
ENDBRANCH  22  23
ENDBRANCH  15  22
ENDBRANCH   4  12
ENDBRANCH   2   3
TORSDOF 9
ENDMDL
MODEL       10
REMARK 921   NORMALIZED FREE ENERGY PREDICTED BY IDOCK:   -5.34 KCAL/MOL
REMARK 922        TOTAL FREE ENERGY PREDICTED BY IDOCK:   -8.34 KCAL/MOL
REMARK 923 INTER-LIGAND FREE ENERGY PREDICTED BY IDOCK:   -8.14 KCAL/MOL
REMARK 924 INTRA-LIGAND FREE ENERGY PREDICTED BY IDOCK:   -0.20 KCAL/MOL
REMARK 927      BINDING AFFINITY PREDICTED BY RF-SCORE:    0.00 PKD
ROOT
HETATM    1  C   UNL     1     -10.509   9.171  67.286  1.00  0.00    -0.335 C  
HETATM    2  C   UNL     1      -9.499  10.269  66.985  1.00  0.00    -0.191 C  
ENDROOT
BRANCH   2   3
HETATM    3  C   UNL     1      -9.739  11.494  67.864  1.00  0.00    -0.183 C  
HETATM    4  N   UNL     1     -10.403  12.608  67.323  1.00  0.00    -0.224 N  
HETATM    5  O   UNL     1      -9.335  11.456  69.029  1.00  0.00    -0.094 OA 
BRANCH   4   6
HETATM    6  C   UNL     1     -10.900  12.581  65.963  1.00  0.00    -0.276 A  
HETATM    7  C   UNL     1     -10.055  12.397  64.854  1.00  0.00    -0.259 A  
HETATM    8  C   UNL     1     -10.565  12.348  63.552  1.00  0.00    -0.451 A  
HETATM    9  C   UNL     1     -12.267  12.762  65.714  1.00  0.00    -0.469 A  
HETATM   10  C   UNL     1     -11.927  12.494  63.330  1.00  0.00    -0.602 A  
HETATM   11  C   UNL     1     -12.779  12.712  64.409  1.00  0.00    -0.417 A  
ENDBRANCH   4   6
BRANCH   4  12
HETATM   12  C   UNL     1     -10.324  13.965  68.032  1.00  0.00    -0.245 C  
HETATM   13  C   UNL     1      -8.877  14.242  68.529  1.00  0.00    -0.176 C  
HETATM   14  C   UNL     1      -7.940  14.461  67.335  1.00  0.00    -0.201 C  
HETATM   15  N   UNL     1      -8.301  15.623  66.514  1.00  0.00    -0.273 NA 
HETATM   16  C   UNL     1      -9.699  15.502  66.057  1.00  0.00    -0.345 C  
HETATM   17  C   UNL     1     -10.688  15.229  67.192  1.00  0.00    -0.316 C  
BRANCH  12  18
HETATM   18  C   UNL     1     -11.334  14.002  69.207  1.00  0.00    -0.273 C  
HETATM   19  O   UNL     1     -12.300  13.257  69.321  1.00  0.00    -0.207 OA 
BRANCH  18  20
HETATM   20  O   UNL     1     -10.989  14.947  70.135  1.00  0.00    -0.239 OA 
HETATM   21  C   UNL     1     -12.075  15.685  70.688  1.00  0.00    -0.405 C  
ENDBRANCH  18  20
ENDBRANCH  12  18
BRANCH  15  22
HETATM   22  C   UNL     1      -8.061  16.926  67.167  1.00  0.00    -0.188 C  
BRANCH  22  23
HETATM   23  C   UNL     1      -8.836  18.090  66.542  1.00  0.00    -0.276 C  
BRANCH  23  24
HETATM   24  C   UNL     1      -9.415  18.967  67.621  1.00  0.00    -0.301 C  
HETATM   25  O   UNL     1      -8.933  19.133  68.733  1.00  0.00    -0.363 OA 
BRANCH  24  26
HETATM   26  O   UNL     1     -10.544  19.579  67.162  1.00  0.00    -0.439 OA 
HETATM   27  C   UNL     1     -10.662  19.558  65.741  1.00  0.00    -0.393 C  
ENDBRANCH  24  26
ENDBRANCH  23  24
ENDBRANCH  22  23
ENDBRANCH  15  22
ENDBRANCH   4  12
ENDBRANCH   2   3
TORSDOF 9
ENDMDL
MODEL       11
REMARK 921   NORMALIZED FREE ENERGY PREDICTED BY IDOCK:   -5.33 KCAL/MOL
REMARK 922        TOTAL FREE ENERGY PREDICTED BY IDOCK:   -8.32 KCAL/MOL
REMARK 923 INTER-LIGAND FREE ENERGY PREDICTED BY IDOCK:   -8.24 KCAL/MOL
REMARK 924 INTRA-LIGAND FREE ENERGY PREDICTED BY IDOCK:   -0.08 KCAL/MOL
REMARK 927      BINDING AFFINITY PREDICTED BY RF-SCORE:    0.00 PKD
ROOT
HETATM    1  C   UNL     1      -9.377  19.139  67.870  1.00  0.00    -0.370 C  
HETATM    2  C   UNL     1     -10.650  18.306  67.906  1.00  0.00    -0.392 C  
ENDROOT
BRANCH   2   3
HETATM    3  C   UNL     1     -10.532  17.081  67.002  1.00  0.00    -0.279 C  
HETATM    4  N   UNL     1     -10.800  15.808  67.533  1.00  0.00    -0.318 N  
HETATM    5  O   UNL     1     -10.201  17.260  65.827  1.00  0.00    -0.533 OA 
BRANCH   4   6
HETATM    6  C   UNL     1     -11.232  15.658  68.907  1.00  0.00    -0.311 A  
HETATM    7  C   UNL     1     -12.589  15.652  69.275  1.00  0.00     0.248 A  
HETATM    8  C   UNL     1     -12.981  15.479  70.607  1.00  0.00    -0.425 A  
HETATM    9  C   UNL     1     -10.282  15.532  69.930  1.00  0.00    -0.305 A  
HETATM   10  C   UNL     1     -12.024  15.321  71.600  1.00  0.00    -0.437 A  
HETATM   11  C   UNL     1     -10.674  15.358  71.266  1.00  0.00     0.063 A  
ENDBRANCH   4   6
BRANCH   4  12
HETATM   12  C   UNL     1     -10.333  14.553  66.787  1.00  0.00    -0.269 C  
HETATM   13  C   UNL     1     -11.201  13.324  67.183  1.00  0.00    -0.327 C  
HETATM   14  C   UNL     1     -12.629  13.490  66.648  1.00  0.00    -0.058 C  
HETATM   15  N   UNL     1     -12.699  13.564  65.183  1.00  0.00    -0.682 NA 
HETATM   16  C   UNL     1     -11.834  14.654  64.692  1.00  0.00    -0.452 C  
HETATM   17  C   UNL     1     -10.403  14.584  65.228  1.00  0.00    -0.435 C  
BRANCH  12  18
HETATM   18  C   UNL     1      -8.834  14.294  67.082  1.00  0.00    -0.229 C  
HETATM   19  O   UNL     1      -7.918  15.033  66.741  1.00  0.00    -0.150 OA 
BRANCH  18  20
HETATM   20  O   UNL     1      -8.656  13.153  67.815  1.00  0.00    -0.163 OA 
HETATM   21  C   UNL     1      -7.640  12.273  67.341  1.00  0.00    -0.159 C  
ENDBRANCH  18  20
ENDBRANCH  12  18
BRANCH  15  22
HETATM   22  C   UNL     1     -12.400  12.291  64.496  1.00  0.00    -0.384 C  
BRANCH  22  23
HETATM   23  C   UNL     1     -11.401  12.423  63.344  1.00  0.00    -0.507 C  
BRANCH  23  24
HETATM   24  C   UNL     1     -10.233  11.497  63.561  1.00  0.00    -0.420 C  
HETATM   25  O   UNL     1      -9.298  11.344  62.788  1.00  0.00    -0.369 OA 
BRANCH  24  26
HETATM   26  O   UNL     1     -10.355  10.877  64.769  1.00  0.00    -0.308 OA 
HETATM   27  C   UNL     1      -9.424   9.813  64.957  1.00  0.00    -0.272 C  
ENDBRANCH  24  26
ENDBRANCH  23  24
ENDBRANCH  22  23
ENDBRANCH  15  22
ENDBRANCH   4  12
ENDBRANCH   2   3
TORSDOF 9
ENDMDL
MODEL       12
REMARK 921   NORMALIZED FREE ENERGY PREDICTED BY IDOCK:   -5.31 KCAL/MOL
REMARK 922        TOTAL FREE ENERGY PREDICTED BY IDOCK:   -8.29 KCAL/MOL
REMARK 923 INTER-LIGAND FREE ENERGY PREDICTED BY IDOCK:   -8.32 KCAL/MOL
REMARK 924 INTRA-LIGAND FREE ENERGY PREDICTED BY IDOCK:    0.03 KCAL/MOL
REMARK 927      BINDING AFFINITY PREDICTED BY RF-SCORE:    0.00 PKD
ROOT
HETATM    1  C   UNL     1      -5.908  17.452  66.385  1.00  0.00    -0.244 C  
HETATM    2  C   UNL     1      -6.732  16.857  67.518  1.00  0.00    -0.173 C  
ENDROOT
BRANCH   2   3
HETATM    3  C   UNL     1      -7.806  15.915  66.982  1.00  0.00    -0.232 C  
HETATM    4  N   UNL     1      -9.125  16.381  66.850  1.00  0.00    -0.206 N  
HETATM    5  O   UNL     1      -7.469  14.766  66.682  1.00  0.00     0.218 OA 
BRANCH   4   6
HETATM    6  C   UNL     1      -9.457  17.754  67.171  1.00  0.00    -0.265 A  
HETATM    7  C   UNL     1      -9.511  18.227  68.494  1.00  0.00    -0.346 A  
HETATM    8  C   UNL     1      -9.808  19.565  68.776  1.00  0.00    -0.532 A  
HETATM    9  C   UNL     1      -9.759  18.659  66.145  1.00  0.00    -0.256 A  
HETATM   10  C   UNL     1     -10.070  20.454  67.742  1.00  0.00    -0.444 A  
HETATM   11  C   UNL     1     -10.056  20.001  66.427  1.00  0.00    -0.609 A  
ENDBRANCH   4   6
BRANCH   4  12
HETATM   12  C   UNL     1     -10.278  15.384  66.686  1.00  0.00    -0.277 C  
HETATM   13  C   UNL     1      -9.916  14.016  67.331  1.00  0.00    -0.243 C  
HETATM   14  C   UNL     1      -9.839  14.153  68.856  1.00  0.00    -0.105 C  
HETATM   15  N   UNL     1     -11.112  14.552  69.471  1.00  0.00    -0.260 NA 
HETATM   16  C   UNL     1     -11.593  15.807  68.863  1.00  0.00    -0.394 C  
HETATM   17  C   UNL     1     -11.645  15.763  67.335  1.00  0.00     0.088 C  
BRANCH  12  18
HETATM   18  C   UNL     1     -10.618  15.218  65.183  1.00  0.00    -0.430 C  
HETATM   19  O   UNL     1     -10.985  16.127  64.447  1.00  0.00    -0.612 OA 
BRANCH  18  20
HETATM   20  O   UNL     1     -10.415  13.933  64.761  1.00  0.00    -0.408 OA 
HETATM   21  C   UNL     1     -11.505  13.340  64.060  1.00  0.00    -0.388 C  
ENDBRANCH  18  20
ENDBRANCH  12  18
BRANCH  15  22
HETATM   22  C   UNL     1     -12.155  13.507  69.441  1.00  0.00    -0.289 C  
BRANCH  22  23
HETATM   23  C   UNL     1     -11.849  12.293  70.323  1.00  0.00    -0.324 C  
BRANCH  23  24
HETATM   24  C   UNL     1     -11.881  11.032  69.500  1.00  0.00    -0.333 C  
HETATM   25  O   UNL     1     -11.990  10.985  68.283  1.00  0.00    -0.593 OA 
BRANCH  24  26
HETATM   26  O   UNL     1     -11.736   9.947  70.313  1.00  0.00    -0.253 OA 
HETATM   27  C   UNL     1     -12.377  10.097  71.578  1.00  0.00    -0.408 C  
ENDBRANCH  24  26
ENDBRANCH  23  24
ENDBRANCH  22  23
ENDBRANCH  15  22
ENDBRANCH   4  12
ENDBRANCH   2   3
TORSDOF 9
ENDMDL
MODEL       13
REMARK 921   NORMALIZED FREE ENERGY PREDICTED BY IDOCK:   -5.31 KCAL/MOL
REMARK 922        TOTAL FREE ENERGY PREDICTED BY IDOCK:   -8.29 KCAL/MOL
REMARK 923 INTER-LIGAND FREE ENERGY PREDICTED BY IDOCK:   -8.22 KCAL/MOL
REMARK 924 INTRA-LIGAND FREE ENERGY PREDICTED BY IDOCK:   -0.07 KCAL/MOL
REMARK 927      BINDING AFFINITY PREDICTED BY RF-SCORE:    0.00 PKD
ROOT
HETATM    1  C   UNL     1     -10.677  12.165  63.699  1.00  0.00    -0.518 C  
HETATM    2  C   UNL     1     -10.042  12.417  65.059  1.00  0.00    -0.269 C  
ENDROOT
BRANCH   2   3
HETATM    3  C   UNL     1     -10.322  13.838  65.543  1.00  0.00    -0.321 C  
HETATM    4  N   UNL     1      -9.681  14.307  66.701  1.00  0.00    -0.276 N  
HETATM    5  O   UNL     1     -11.110  14.526  64.889  1.00  0.00    -0.357 OA 
BRANCH   4   6
HETATM    6  C   UNL     1      -8.727  13.475  67.405  1.00  0.00    -0.220 A  
HETATM    7  C   UNL     1      -7.373  13.829  67.539  1.00  0.00    -0.176 A  
HETATM    8  C   UNL     1      -6.476  13.021  68.247  1.00  0.00    -0.093 A  
HETATM    9  C   UNL     1      -9.138  12.258  67.965  1.00  0.00    -0.191 A  
HETATM   10  C   UNL     1      -6.913  11.836  68.824  1.00  0.00    -0.103 A  
HETATM   11  C   UNL     1      -8.241  11.448  68.675  1.00  0.00    -0.142 A  
ENDBRANCH   4   6
BRANCH   4  12
HETATM   12  C   UNL     1     -10.212  15.554  67.419  1.00  0.00    -0.255 C  
HETATM   13  C   UNL     1     -11.763  15.509  67.522  1.00  0.00    -0.006 C  
HETATM   14  C   UNL     1     -12.198  14.392  68.478  1.00  0.00    -0.143 C  
HETATM   15  N   UNL     1     -11.719  14.581  69.854  1.00  0.00    -0.282 NA 
HETATM   16  C   UNL     1     -10.250  14.723  69.860  1.00  0.00     0.104 C  
HETATM   17  C   UNL     1      -9.738  15.787  68.887  1.00  0.00    -0.225 C  
BRANCH  12  18
HETATM   18  C   UNL     1      -9.740  16.828  66.675  1.00  0.00    -0.269 C  
HETATM   19  O   UNL     1      -8.803  16.870  65.886  1.00  0.00    -0.516 OA 
BRANCH  18  20
HETATM   20  O   UNL     1     -10.531  17.905  66.971  1.00  0.00    -0.358 OA 
HETATM   21  C   UNL     1     -10.301  19.069  66.181  1.00  0.00    -0.468 C  
ENDBRANCH  18  20
ENDBRANCH  12  18
BRANCH  15  22
HETATM   22  C   UNL     1     -12.369  15.694  70.576  1.00  0.00    -0.403 C  
BRANCH  22  23
HETATM   23  C   UNL     1     -13.671  15.305  71.280  1.00  0.00    -0.570 C  
BRANCH  23  24
HETATM   24  C   UNL     1     -13.378  14.409  72.456  1.00  0.00    -0.486 C  
HETATM   25  O   UNL     1     -14.037  13.432  72.782  1.00  0.00    -0.715 OA 
BRANCH  24  26
HETATM   26  O   UNL     1     -12.244  14.830  73.084  1.00  0.00    -0.306 OA 
HETATM   27  C   UNL     1     -12.498  15.638  74.231  1.00  0.00    -0.654 C  
ENDBRANCH  24  26
ENDBRANCH  23  24
ENDBRANCH  22  23
ENDBRANCH  15  22
ENDBRANCH   4  12
ENDBRANCH   2   3
TORSDOF 9
ENDMDL
MODEL       14
REMARK 921   NORMALIZED FREE ENERGY PREDICTED BY IDOCK:   -5.29 KCAL/MOL
REMARK 922        TOTAL FREE ENERGY PREDICTED BY IDOCK:   -8.25 KCAL/MOL
REMARK 923 INTER-LIGAND FREE ENERGY PREDICTED BY IDOCK:   -7.86 KCAL/MOL
REMARK 924 INTRA-LIGAND FREE ENERGY PREDICTED BY IDOCK:   -0.40 KCAL/MOL
REMARK 927      BINDING AFFINITY PREDICTED BY RF-SCORE:    0.00 PKD
ROOT
HETATM    1  C   UNL     1      -6.193  12.444  68.337  1.00  0.00    -0.057 C  
HETATM    2  C   UNL     1      -7.239  12.438  67.231  1.00  0.00    -0.125 C  
ENDROOT
BRANCH   2   3
HETATM    3  C   UNL     1      -8.322  13.482  67.492  1.00  0.00    -0.184 C  
HETATM    4  N   UNL     1      -9.647  13.060  67.694  1.00  0.00    -0.200 N  
HETATM    5  O   UNL     1      -7.986  14.669  67.515  1.00  0.00    -0.160 OA 
BRANCH   4   6
HETATM    6  C   UNL     1      -9.978  11.651  67.706  1.00  0.00    -0.181 A  
HETATM    7  C   UNL     1     -10.341  10.951  66.542  1.00  0.00    -0.299 A  
HETATM    8  C   UNL     1     -10.631   9.583  66.576  1.00  0.00    -0.133 A  
HETATM    9  C   UNL     1      -9.964  10.938  68.913  1.00  0.00    -0.208 A  
HETATM   10  C   UNL     1     -10.577   8.888  67.777  1.00  0.00    -0.266 A  
HETATM   11  C   UNL     1     -10.254   9.566  68.948  1.00  0.00    -0.213 A  
ENDBRANCH   4   6
BRANCH   4  12
HETATM   12  C   UNL     1     -10.797  14.068  67.579  1.00  0.00    -0.270 C  
HETATM   13  C   UNL     1     -12.096  13.493  68.213  1.00  0.00    -0.295 C  
HETATM   14  C   UNL     1     -11.936  13.377  69.734  1.00  0.00    -0.330 C  
HETATM   15  N   UNL     1     -11.714  14.668  70.397  1.00  0.00    -0.284 NA 
HETATM   16  C   UNL     1     -10.543  15.344  69.805  1.00  0.00    -0.295 C  
HETATM   17  C   UNL     1     -10.608  15.448  68.281  1.00  0.00    -0.253 C  
BRANCH  12  18
HETATM   18  C   UNL     1     -11.021  14.440  66.091  1.00  0.00    -0.320 C  
HETATM   19  O   UNL     1     -11.566  13.717  65.265  1.00  0.00    -0.310 OA 
BRANCH  18  20
HETATM   20  O   UNL     1     -10.573  15.703  65.817  1.00  0.00    -0.324 OA 
HETATM   21  C   UNL     1     -11.051  16.271  64.600  1.00  0.00    -0.246 C  
ENDBRANCH  18  20
ENDBRANCH  12  18
BRANCH  15  22
HETATM   22  C   UNL     1     -12.895  15.555  70.411  1.00  0.00    -0.281 C  
BRANCH  22  23
HETATM   23  C   UNL     1     -14.119  14.953  71.106  1.00  0.00    -0.377 C  
BRANCH  23  24
HETATM   24  C   UNL     1     -13.742  14.441  72.471  1.00  0.00    -0.488 C  
HETATM   25  O   UNL     1     -13.657  13.262  72.786  1.00  0.00    -0.634 OA 
BRANCH  24  26
HETATM   26  O   UNL     1     -13.473  15.490  73.299  1.00  0.00    -0.498 OA 
HETATM   27  C   UNL     1     -12.333  15.279  74.129  1.00  0.00    -0.625 C  
ENDBRANCH  24  26
ENDBRANCH  23  24
ENDBRANCH  22  23
ENDBRANCH  15  22
ENDBRANCH   4  12
ENDBRANCH   2   3
TORSDOF 9
ENDMDL
MODEL       15
REMARK 921   NORMALIZED FREE ENERGY PREDICTED BY IDOCK:   -5.28 KCAL/MOL
REMARK 922        TOTAL FREE ENERGY PREDICTED BY IDOCK:   -8.24 KCAL/MOL
REMARK 923 INTER-LIGAND FREE ENERGY PREDICTED BY IDOCK:   -7.99 KCAL/MOL
REMARK 924 INTRA-LIGAND FREE ENERGY PREDICTED BY IDOCK:   -0.25 KCAL/MOL
REMARK 927      BINDING AFFINITY PREDICTED BY RF-SCORE:    0.00 PKD
ROOT
HETATM    1  C   UNL     1     -12.116  12.746  63.399  1.00  0.00    -0.619 C  
HETATM    2  C   UNL     1     -12.634  12.594  64.821  1.00  0.00    -0.530 C  
ENDROOT
BRANCH   2   3
HETATM    3  C   UNL     1     -12.046  13.662  65.740  1.00  0.00    -0.428 C  
HETATM    4  N   UNL     1     -11.039  13.304  66.651  1.00  0.00    -0.287 N  
HETATM    5  O   UNL     1     -12.484  14.811  65.643  1.00  0.00    -0.153 OA 
BRANCH   4   6
HETATM    6  C   UNL     1     -10.526  11.951  66.690  1.00  0.00    -0.216 A  
HETATM    7  C   UNL     1     -11.049  10.970  67.552  1.00  0.00    -0.366 A  
HETATM    8  C   UNL     1     -10.553   9.662  67.551  1.00  0.00    -0.339 A  
HETATM    9  C   UNL     1      -9.456  11.583  65.862  1.00  0.00    -0.251 A  
HETATM   10  C   UNL     1      -9.516   9.310  66.697  1.00  0.00    -0.246 A  
HETATM   11  C   UNL     1      -8.959  10.272  65.860  1.00  0.00    -0.181 A  
ENDBRANCH   4   6
BRANCH   4  12
HETATM   12  C   UNL     1     -10.702  14.233  67.824  1.00  0.00    -0.251 C  
HETATM   13  C   UNL     1      -9.306  13.887  68.415  1.00  0.00    -0.201 C  
HETATM   14  C   UNL     1      -8.203  14.242  67.411  1.00  0.00    -0.202 C  
HETATM   15  N   UNL     1      -8.147  15.673  67.087  1.00  0.00    -0.194 NA 
HETATM   16  C   UNL     1      -9.460  16.129  66.593  1.00  0.00    -0.247 C  
HETATM   17  C   UNL     1     -10.620  15.762  67.520  1.00  0.00    -0.309 C  
BRANCH  12  18
HETATM   18  C   UNL     1     -11.806  14.133  68.906  1.00  0.00    -0.347 C  
HETATM   19  O   UNL     1     -12.266  13.083  69.339  1.00  0.00    -0.237 OA 
BRANCH  18  20
HETATM   20  O   UNL     1     -12.179  15.369  69.360  1.00  0.00    -0.300 OA 
HETATM   21  C   UNL     1     -12.300  15.491  70.775  1.00  0.00    -0.414 C  
ENDBRANCH  18  20
ENDBRANCH  12  18
BRANCH  15  22
HETATM   22  C   UNL     1      -7.662  16.527  68.190  1.00  0.00    -0.166 C  
BRANCH  22  23
HETATM   23  C   UNL     1      -7.289  17.949  67.761  1.00  0.00    -0.209 C  
BRANCH  23  24
HETATM   24  C   UNL     1      -8.061  18.955  68.573  1.00  0.00    -0.348 C  
HETATM   25  O   UNL     1      -9.279  19.075  68.580  1.00  0.00    -0.347 OA 
BRANCH  24  26
HETATM   26  O   UNL     1      -7.201  19.694  69.330  1.00  0.00    -0.352 OA 
HETATM   27  C   UNL     1      -5.933  19.899  68.712  1.00  0.00    -0.255 C  
ENDBRANCH  24  26
ENDBRANCH  23  24
ENDBRANCH  22  23
ENDBRANCH  15  22
ENDBRANCH   4  12
ENDBRANCH   2   3
TORSDOF 9
ENDMDL
MODEL       16
REMARK 921   NORMALIZED FREE ENERGY PREDICTED BY IDOCK:   -5.27 KCAL/MOL
REMARK 922        TOTAL FREE ENERGY PREDICTED BY IDOCK:   -8.23 KCAL/MOL
REMARK 923 INTER-LIGAND FREE ENERGY PREDICTED BY IDOCK:   -8.19 KCAL/MOL
REMARK 924 INTRA-LIGAND FREE ENERGY PREDICTED BY IDOCK:   -0.04 KCAL/MOL
REMARK 927      BINDING AFFINITY PREDICTED BY RF-SCORE:    0.00 PKD
ROOT
HETATM    1  C   UNL     1     -11.547  15.720  71.748  1.00  0.00    -0.541 C  
HETATM    2  C   UNL     1     -12.148  15.620  70.354  1.00  0.00    -0.425 C  
ENDROOT
BRANCH   2   3
HETATM    3  C   UNL     1     -11.654  14.371  69.628  1.00  0.00    -0.292 C  
HETATM    4  N   UNL     1     -10.667  14.499  68.636  1.00  0.00    -0.245 N  
HETATM    5  O   UNL     1     -12.147  13.286  69.945  1.00  0.00    -0.323 OA 
BRANCH   4   6
HETATM    6  C   UNL     1     -10.086  15.792  68.337  1.00  0.00    -0.222 A  
HETATM    7  C   UNL     1     -10.811  16.817  67.705  1.00  0.00    -0.252 A  
HETATM    8  C   UNL     1     -10.234  18.066  67.450  1.00  0.00    -0.370 A  
HETATM    9  C   UNL     1      -8.747  16.049  68.660  1.00  0.00    -0.206 A  
HETATM   10  C   UNL     1      -8.916  18.312  67.811  1.00  0.00    -0.273 A  
HETATM   11  C   UNL     1      -8.168  17.301  68.407  1.00  0.00    -0.260 A  
ENDBRANCH   4   6
BRANCH   4  12
HETATM   12  C   UNL     1     -10.427  13.357  67.642  1.00  0.00    -0.241 C  
HETATM   13  C   UNL     1     -11.772  12.691  67.236  1.00  0.00    -0.435 C  
HETATM   14  C   UNL     1     -12.611  13.662  66.396  1.00  0.00    -0.235 C  
HETATM   15  N   UNL     1     -11.967  14.048  65.133  1.00  0.00    -0.368 NA 
HETATM   16  C   UNL     1     -10.633  14.618  65.402  1.00  0.00    -0.374 C  
HETATM   17  C   UNL     1      -9.756  13.725  66.283  1.00  0.00    -0.297 C  
BRANCH  12  18
HETATM   18  C   UNL     1      -9.456  12.319  68.261  1.00  0.00    -0.209 C  
HETATM   19  O   UNL     1      -8.256  12.499  68.429  1.00  0.00    -0.161 OA 
BRANCH  18  20
HETATM   20  O   UNL     1     -10.115  11.182  68.643  1.00  0.00    -0.187 OA 
HETATM   21  C   UNL     1      -9.308  10.193  69.279  1.00  0.00    -0.215 C  
ENDBRANCH  18  20
ENDBRANCH  12  18
BRANCH  15  22
HETATM   22  C   UNL     1     -11.896  12.965  64.132  1.00  0.00    -0.414 C  
BRANCH  22  23
HETATM   23  C   UNL     1     -10.488  12.708  63.588  1.00  0.00    -0.348 C  
BRANCH  23  24
HETATM   24  C   UNL     1     -10.197  11.230  63.576  1.00  0.00    -0.403 C  
HETATM   25  O   UNL     1      -9.616  10.631  62.682  1.00  0.00    -0.292 OA 
BRANCH  24  26
HETATM   26  O   UNL     1     -10.649  10.662  64.730  1.00  0.00    -0.291 OA 
HETATM   27  C   UNL     1      -9.687   9.821  65.362  1.00  0.00    -0.313 C  
ENDBRANCH  24  26
ENDBRANCH  23  24
ENDBRANCH  22  23
ENDBRANCH  15  22
ENDBRANCH   4  12
ENDBRANCH   2   3
TORSDOF 9
ENDMDL
MODEL       17
REMARK 921   NORMALIZED FREE ENERGY PREDICTED BY IDOCK:   -5.26 KCAL/MOL
REMARK 922        TOTAL FREE ENERGY PREDICTED BY IDOCK:   -8.21 KCAL/MOL
REMARK 923 INTER-LIGAND FREE ENERGY PREDICTED BY IDOCK:   -8.33 KCAL/MOL
REMARK 924 INTRA-LIGAND FREE ENERGY PREDICTED BY IDOCK:    0.12 KCAL/MOL
REMARK 927      BINDING AFFINITY PREDICTED BY RF-SCORE:    0.00 PKD
ROOT
HETATM    1  C   UNL     1     -10.645  18.244  65.779  1.00  0.00    -0.205 C  
HETATM    2  C   UNL     1     -10.663  16.739  65.554  1.00  0.00    -0.206 C  
ENDROOT
BRANCH   2   3
HETATM    3  C   UNL     1      -9.987  16.000  66.707  1.00  0.00    -0.258 C  
HETATM    4  N   UNL     1     -10.086  14.601  66.777  1.00  0.00    -0.260 N  
HETATM    5  O   UNL     1      -9.372  16.671  67.540  1.00  0.00    -0.217 OA 
BRANCH   4   6
HETATM    6  C   UNL     1     -10.779  13.857  65.745  1.00  0.00    -0.289 A  
HETATM    7  C   UNL     1     -10.097  13.150  64.739  1.00  0.00    -0.244 A  
HETATM    8  C   UNL     1     -10.789  12.417  63.769  1.00  0.00    -0.500 A  
HETATM    9  C   UNL     1     -12.179  13.842  65.713  1.00  0.00    -0.488 A  
HETATM   10  C   UNL     1     -12.177  12.387  63.777  1.00  0.00    -0.626 A  
HETATM   11  C   UNL     1     -12.875  13.107  64.742  1.00  0.00    -0.298 A  
ENDBRANCH   4   6
BRANCH   4  12
HETATM   12  C   UNL     1      -9.760  13.875  68.088  1.00  0.00    -0.222 C  
HETATM   13  C   UNL     1     -10.135  14.758  69.312  1.00  0.00    -0.165 C  
HETATM   14  C   UNL     1     -11.658  14.907  69.411  1.00  0.00    -0.309 C  
HETATM   15  N   UNL     1     -12.358  13.633  69.618  1.00  0.00    -0.260 NA 
HETATM   16  C   UNL     1     -12.000  12.683  68.547  1.00  0.00    -0.214 C  
HETATM   17  C   UNL     1     -10.491  12.523  68.354  1.00  0.00    -0.250 C  
BRANCH  12  18
HETATM   18  C   UNL     1      -8.259  13.493  68.116  1.00  0.00    -0.162 C  
HETATM   19  O   UNL     1      -7.432  13.963  68.889  1.00  0.00    -0.120 OA 
BRANCH  18  20
HETATM   20  O   UNL     1      -7.971  12.522  67.195  1.00  0.00    -0.175 OA 
HETATM   21  C   UNL     1      -6.647  11.997  67.254  1.00  0.00    -0.145 C  
ENDBRANCH  18  20
ENDBRANCH  12  18
BRANCH  15  22
HETATM   22  C   UNL     1     -12.152  13.037  70.954  1.00  0.00    -0.090 C  
BRANCH  22  23
HETATM   23  C   UNL     1     -13.407  13.024  71.831  1.00  0.00    -0.539 C  
BRANCH  23  24
HETATM   24  C   UNL     1     -13.565  14.349  72.530  1.00  0.00    -0.500 C  
HETATM   25  O   UNL     1     -14.266  15.274  72.144  1.00  0.00    -0.503 OA 
BRANCH  24  26
HETATM   26  O   UNL     1     -12.835  14.353  73.682  1.00  0.00    -0.471 OA 
HETATM   27  C   UNL     1     -12.561  15.662  74.176  1.00  0.00    -0.616 C  
ENDBRANCH  24  26
ENDBRANCH  23  24
ENDBRANCH  22  23
ENDBRANCH  15  22
ENDBRANCH   4  12
ENDBRANCH   2   3
TORSDOF 9
ENDMDL
MODEL       18
REMARK 921   NORMALIZED FREE ENERGY PREDICTED BY IDOCK:   -5.26 KCAL/MOL
REMARK 922        TOTAL FREE ENERGY PREDICTED BY IDOCK:   -8.20 KCAL/MOL
REMARK 923 INTER-LIGAND FREE ENERGY PREDICTED BY IDOCK:   -7.92 KCAL/MOL
REMARK 924 INTRA-LIGAND FREE ENERGY PREDICTED BY IDOCK:   -0.28 KCAL/MOL
REMARK 927      BINDING AFFINITY PREDICTED BY RF-SCORE:    0.00 PKD
ROOT
HETATM    1  C   UNL     1      -6.444  12.018  68.496  1.00  0.00    -0.058 C  
HETATM    2  C   UNL     1      -7.030  12.934  67.431  1.00  0.00    -0.129 C  
ENDROOT
BRANCH   2   3
HETATM    3  C   UNL     1      -7.980  13.959  68.048  1.00  0.00    -0.154 C  
HETATM    4  N   UNL     1      -9.281  14.084  67.534  1.00  0.00    -0.189 N  
HETATM    5  O   UNL     1      -7.560  14.644  68.983  1.00  0.00    -0.127 OA 
BRANCH   4   6
HETATM    6  C   UNL     1      -9.739  13.220  66.466  1.00  0.00    -0.273 A  
HETATM    7  C   UNL     1      -9.965  13.689  65.160  1.00  0.00    -0.218 A  
HETATM    8  C   UNL     1     -10.382  12.828  64.140  1.00  0.00    -0.401 A  
HETATM    9  C   UNL     1      -9.993  11.865  66.722  1.00  0.00    -0.215 A  
HETATM   10  C   UNL     1     -10.594  11.482  64.406  1.00  0.00    -0.392 A  
HETATM   11  C   UNL     1     -10.410  11.000  65.699  1.00  0.00    -0.311 A  
ENDBRANCH   4   6
BRANCH   4  12
HETATM   12  C   UNL     1     -10.116  15.329  67.858  1.00  0.00    -0.233 C  
HETATM   13  C   UNL     1     -11.633  15.030  67.693  1.00  0.00    -0.327 C  
HETATM   14  C   UNL     1     -12.102  14.053  68.777  1.00  0.00    -0.303 C  
HETATM   15  N   UNL     1     -11.952  14.577  70.140  1.00  0.00    -0.295 NA 
HETATM   16  C   UNL     1     -10.550  14.975  70.375  1.00  0.00    -0.045 C  
HETATM   17  C   UNL     1      -9.996  15.911  69.300  1.00  0.00    -0.254 C  
BRANCH  12  18
HETATM   18  C   UNL     1      -9.677  16.505  66.949  1.00  0.00    -0.251 C  
HETATM   19  O   UNL     1      -8.531  16.696  66.559  1.00  0.00    -0.234 OA 
BRANCH  18  20
HETATM   20  O   UNL     1     -10.741  17.288  66.593  1.00  0.00    -0.220 OA 
HETATM   21  C   UNL     1     -10.583  18.683  66.839  1.00  0.00    -0.385 C  
ENDBRANCH  18  20
ENDBRANCH  12  18
BRANCH  15  22
HETATM   22  C   UNL     1     -12.884  15.672  70.476  1.00  0.00    -0.287 C  
BRANCH  22  23
HETATM   23  C   UNL     1     -14.160  15.210  71.185  1.00  0.00    -0.463 C  
BRANCH  23  24
HETATM   24  C   UNL     1     -13.814  14.527  72.483  1.00  0.00    -0.452 C  
HETATM   25  O   UNL     1     -13.790  13.317  72.661  1.00  0.00    -0.712 OA 
BRANCH  24  26
HETATM   26  O   UNL     1     -13.497  15.461  73.425  1.00  0.00    -0.423 OA 
HETATM   27  C   UNL     1     -12.251  15.213  74.072  1.00  0.00    -0.570 C  
ENDBRANCH  24  26
ENDBRANCH  23  24
ENDBRANCH  22  23
ENDBRANCH  15  22
ENDBRANCH   4  12
ENDBRANCH   2   3
TORSDOF 9
ENDMDL
MODEL       19
REMARK 921   NORMALIZED FREE ENERGY PREDICTED BY IDOCK:   -5.22 KCAL/MOL
REMARK 922        TOTAL FREE ENERGY PREDICTED BY IDOCK:   -8.15 KCAL/MOL
REMARK 923 INTER-LIGAND FREE ENERGY PREDICTED BY IDOCK:   -7.76 KCAL/MOL
REMARK 924 INTRA-LIGAND FREE ENERGY PREDICTED BY IDOCK:   -0.39 KCAL/MOL
REMARK 927      BINDING AFFINITY PREDICTED BY RF-SCORE:    0.00 PKD
ROOT
HETATM    1  C   UNL     1      -9.032   9.676  62.782  1.00  0.00    -0.264 C  
HETATM    2  C   UNL     1      -9.811  10.657  63.646  1.00  0.00    -0.392 C  
ENDROOT
BRANCH   2   3
HETATM    3  C   UNL     1      -9.514  10.441  65.129  1.00  0.00    -0.249 C  
HETATM    4  N   UNL     1      -9.921  11.413  66.058  1.00  0.00    -0.222 N  
HETATM    5  O   UNL     1      -8.921   9.409  65.454  1.00  0.00    -0.179 OA 
BRANCH   4   6
HETATM    6  C   UNL     1     -10.657  12.583  65.627  1.00  0.00    -0.269 A  
HETATM    7  C   UNL     1     -10.030  13.813  65.362  1.00  0.00    -0.254 A  
HETATM    8  C   UNL     1     -10.761  14.922  64.921  1.00  0.00    -0.426 A  
HETATM    9  C   UNL     1     -12.049  12.520  65.481  1.00  0.00    -0.481 A  
HETATM   10  C   UNL     1     -12.135  14.827  64.749  1.00  0.00    -0.387 A  
HETATM   11  C   UNL     1     -12.783  13.630  65.038  1.00  0.00    -0.384 A  
ENDBRANCH   4   6
BRANCH   4  12
HETATM   12  C   UNL     1      -9.320  11.421  67.469  1.00  0.00    -0.164 C  
HETATM   13  C   UNL     1     -10.293  12.101  68.475  1.00  0.00    -0.233 C  
HETATM   14  C   UNL     1     -11.541  11.234  68.674  1.00  0.00    -0.318 C  
HETATM   15  N   UNL     1     -11.249   9.912  69.244  1.00  0.00    -0.178 NA 
HETATM   16  C   UNL     1     -10.260   9.209  68.404  1.00  0.00    -0.200 C  
HETATM   17  C   UNL     1      -9.006  10.037  68.117  1.00  0.00    -0.122 C  
BRANCH  12  18
HETATM   18  C   UNL     1      -7.947  12.138  67.450  1.00  0.00    -0.168 C  
HETATM   19  O   UNL     1      -6.959  11.739  66.844  1.00  0.00    -0.142 OA 
BRANCH  18  20
HETATM   20  O   UNL     1      -7.980  13.306  68.163  1.00  0.00    -0.130 OA 
HETATM   21  C   UNL     1      -7.195  14.370  67.630  1.00  0.00    -0.184 C  
ENDBRANCH  18  20
ENDBRANCH  12  18
BRANCH  15  22
HETATM   22  C   UNL     1     -10.827   9.941  70.659  1.00  0.00    -0.330 C  
BRANCH  22  23
HETATM   23  C   UNL     1     -11.743   9.153  71.600  1.00  0.00    -0.448 C  
BRANCH  23  24
HETATM   24  C   UNL     1     -13.059   9.868  71.761  1.00  0.00    -0.452 C  
HETATM   25  O   UNL     1     -13.194  11.070  71.944  1.00  0.00    -0.473 OA 
BRANCH  24  26
HETATM   26  O   UNL     1     -14.085   8.979  71.635  1.00  0.00    -0.360 OA 
HETATM   27  C   UNL     1     -13.652   7.625  71.527  1.00  0.00    -0.353 C  
ENDBRANCH  24  26
ENDBRANCH  23  24
ENDBRANCH  22  23
ENDBRANCH  15  22
ENDBRANCH   4  12
ENDBRANCH   2   3
TORSDOF 9
ENDMDL
MODEL       20
REMARK 921   NORMALIZED FREE ENERGY PREDICTED BY IDOCK:   -5.21 KCAL/MOL
REMARK 922        TOTAL FREE ENERGY PREDICTED BY IDOCK:   -8.13 KCAL/MOL
REMARK 923 INTER-LIGAND FREE ENERGY PREDICTED BY IDOCK:   -7.77 KCAL/MOL
REMARK 924 INTRA-LIGAND FREE ENERGY PREDICTED BY IDOCK:   -0.36 KCAL/MOL
REMARK 927      BINDING AFFINITY PREDICTED BY RF-SCORE:    0.00 PKD
ROOT
HETATM    1  C   UNL     1      -5.535  17.034  68.474  1.00  0.00    -0.132 C  
HETATM    2  C   UNL     1      -6.770  17.153  69.355  1.00  0.00    -0.199 C  
ENDROOT
BRANCH   2   3
HETATM    3  C   UNL     1      -7.759  16.024  69.072  1.00  0.00    -0.216 C  
HETATM    4  N   UNL     1      -8.966  16.317  68.416  1.00  0.00    -0.196 N  
HETATM    5  O   UNL     1      -7.454  14.885  69.437  1.00  0.00    -0.168 OA 
BRANCH   4   6
HETATM    6  C   UNL     1      -9.252  17.664  67.966  1.00  0.00    -0.271 A  
HETATM    7  C   UNL     1      -8.730  18.186  66.770  1.00  0.00    -0.275 A  
HETATM    8  C   UNL     1      -9.044  19.481  66.343  1.00  0.00    -0.417 A  
HETATM    9  C   UNL     1     -10.061  18.504  68.742  1.00  0.00    -0.394 A  
HETATM   10  C   UNL     1      -9.876  20.285  67.110  1.00  0.00    -0.606 A  
HETATM   11  C   UNL     1     -10.377  19.803  68.316  1.00  0.00    -0.536 A  
ENDBRANCH   4   6
BRANCH   4  12
HETATM   12  C   UNL     1     -10.123  15.312  68.456  1.00  0.00    -0.222 C  
HETATM   13  C   UNL     1     -11.088  15.539  67.257  1.00  0.00    -0.271 C  
HETATM   14  C   UNL     1     -10.395  15.163  65.942  1.00  0.00    -0.327 C  
HETATM   15  N   UNL     1     -10.006  13.749  65.870  1.00  0.00    -0.303 NA 
HETATM   16  C   UNL     1      -9.150  13.403  67.021  1.00  0.00    -0.243 C  
HETATM   17  C   UNL     1      -9.755  13.799  68.369  1.00  0.00    -0.219 C  
BRANCH  12  18
HETATM   18  C   UNL     1     -10.874  15.431  69.806  1.00  0.00    -0.288 C  
HETATM   19  O   UNL     1     -10.352  15.313  70.908  1.00  0.00    -0.030 OA 
BRANCH  18  20
HETATM   20  O   UNL     1     -12.197  15.731  69.620  1.00  0.00    -0.336 OA 
HETATM   21  C   UNL     1     -13.046  15.464  70.733  1.00  0.00    -0.424 C  
ENDBRANCH  18  20
ENDBRANCH  12  18
BRANCH  15  22
HETATM   22  C   UNL     1     -11.141  12.812  65.745  1.00  0.00    -0.285 C  
BRANCH  22  23
HETATM   23  C   UNL     1     -10.727  11.347  65.578  1.00  0.00    -0.313 C  
BRANCH  23  24
HETATM   24  C   UNL     1     -10.994  10.584  66.849  1.00  0.00    -0.131 C  
HETATM   25  O   UNL     1     -11.819  10.891  67.698  1.00  0.00    -0.572 OA 
BRANCH  24  26
HETATM   26  O   UNL     1     -10.200   9.477  66.898  1.00  0.00    -0.225 OA 
HETATM   27  C   UNL     1      -9.925   9.034  68.225  1.00  0.00    -0.173 C  
ENDBRANCH  24  26
ENDBRANCH  23  24
ENDBRANCH  22  23
ENDBRANCH  15  22
ENDBRANCH   4  12
ENDBRANCH   2   3
TORSDOF 9
ENDMDL
MODEL       21
REMARK 921   NORMALIZED FREE ENERGY PREDICTED BY IDOCK:   -5.20 KCAL/MOL
REMARK 922        TOTAL FREE ENERGY PREDICTED BY IDOCK:   -8.12 KCAL/MOL
REMARK 923 INTER-LIGAND FREE ENERGY PREDICTED BY IDOCK:   -8.12 KCAL/MOL
REMARK 924 INTRA-LIGAND FREE ENERGY PREDICTED BY IDOCK:   -0.00 KCAL/MOL
REMARK 927      BINDING AFFINITY PREDICTED BY RF-SCORE:    0.00 PKD
ROOT
HETATM    1  C   UNL     1     -12.097  15.712  64.153  1.00  0.00    -0.002 C  
HETATM    2  C   UNL     1     -10.690  15.399  64.641  1.00  0.00    -0.214 C  
ENDROOT
BRANCH   2   3
HETATM    3  C   UNL     1     -10.721  14.698  65.997  1.00  0.00    -0.312 C  
HETATM    4  N   UNL     1     -10.378  15.422  67.151  1.00  0.00    -0.266 N  
HETATM    5  O   UNL     1     -11.049  13.509  66.025  1.00  0.00    -0.292 OA 
BRANCH   4   6
HETATM    6  C   UNL     1     -10.048  16.829  67.068  1.00  0.00    -0.276 A  
HETATM    7  C   UNL     1      -8.761  17.283  66.728  1.00  0.00    -0.275 A  
HETATM    8  C   UNL     1      -8.474  18.649  66.628  1.00  0.00    -0.301 A  
HETATM    9  C   UNL     1     -11.022  17.795  67.352  1.00  0.00    -0.074 A  
HETATM   10  C   UNL     1      -9.464  19.589  66.879  1.00  0.00    -0.429 A  
HETATM   11  C   UNL     1     -10.736  19.165  67.252  1.00  0.00    -0.585 A  
ENDBRANCH   4   6
BRANCH   4  12
HETATM   12  C   UNL     1     -10.032  14.678  68.447  1.00  0.00    -0.227 C  
HETATM   13  C   UNL     1     -10.557  15.460  69.685  1.00  0.00    -0.285 C  
HETATM   14  C   UNL     1     -12.089  15.438  69.715  1.00  0.00    -0.347 C  
HETATM   15  N   UNL     1     -12.652  14.087  69.838  1.00  0.00    -0.241 NA 
HETATM   16  C   UNL     1     -12.144  13.230  68.749  1.00  0.00    -0.219 C  
HETATM   17  C   UNL     1     -10.620  13.244  68.624  1.00  0.00    -0.264 C  
BRANCH  12  18
HETATM   18  C   UNL     1      -8.501  14.460  68.533  1.00  0.00    -0.170 C  
HETATM   19  O   UNL     1      -7.814  13.968  67.645  1.00  0.00    -0.147 OA 
BRANCH  18  20
HETATM   20  O   UNL     1      -7.992  14.929  69.714  1.00  0.00    -0.103 OA 
HETATM   21  C   UNL     1      -6.587  15.169  69.723  1.00  0.00    -0.177 C  
ENDBRANCH  18  20
ENDBRANCH  12  18
BRANCH  15  22
HETATM   22  C   UNL     1     -12.441  13.459  71.158  1.00  0.00    -0.327 C  
BRANCH  22  23
HETATM   23  C   UNL     1     -13.639  13.578  72.104  1.00  0.00    -0.651 C  
BRANCH  23  24
HETATM   24  C   UNL     1     -13.613  14.910  72.807  1.00  0.00    -0.435 C  
HETATM   25  O   UNL     1     -14.402  15.825  72.618  1.00  0.00    -0.507 OA 
BRANCH  24  26
HETATM   26  O   UNL     1     -12.598  14.932  73.717  1.00  0.00    -0.529 OA 
HETATM   27  C   UNL     1     -12.214  16.249  74.106  1.00  0.00    -0.464 C  
ENDBRANCH  24  26
ENDBRANCH  23  24
ENDBRANCH  22  23
ENDBRANCH  15  22
ENDBRANCH   4  12
ENDBRANCH   2   3
TORSDOF 9
ENDMDL
MODEL       22
REMARK 921   NORMALIZED FREE ENERGY PREDICTED BY IDOCK:   -5.20 KCAL/MOL
REMARK 922        TOTAL FREE ENERGY PREDICTED BY IDOCK:   -8.11 KCAL/MOL
REMARK 923 INTER-LIGAND FREE ENERGY PREDICTED BY IDOCK:   -8.33 KCAL/MOL
REMARK 924 INTRA-LIGAND FREE ENERGY PREDICTED BY IDOCK:    0.22 KCAL/MOL
REMARK 927      BINDING AFFINITY PREDICTED BY RF-SCORE:    0.00 PKD
ROOT
HETATM    1  C   UNL     1     -12.514  12.705  64.544  1.00  0.00    -0.525 C  
HETATM    2  C   UNL     1     -12.429  13.591  65.778  1.00  0.00    -0.514 C  
ENDROOT
BRANCH   2   3
HETATM    3  C   UNL     1     -11.034  14.193  65.930  1.00  0.00    -0.297 C  
HETATM    4  N   UNL     1     -10.461  14.282  67.209  1.00  0.00    -0.268 N  
HETATM    5  O   UNL     1     -10.460  14.582  64.910  1.00  0.00    -0.418 OA 
BRANCH   4   6
HETATM    6  C   UNL     1     -11.159  13.764  68.368  1.00  0.00    -0.263 A  
HETATM    7  C   UNL     1     -12.068  14.540  69.110  1.00  0.00    -0.299 A  
HETATM    8  C   UNL     1     -12.750  14.008  70.210  1.00  0.00    -0.270 A  
HETATM    9  C   UNL     1     -10.924  12.452  68.799  1.00  0.00    -0.287 A  
HETATM   10  C   UNL     1     -12.528  12.693  70.598  1.00  0.00    -0.323 A  
HETATM   11  C   UNL     1     -11.607  11.917  69.901  1.00  0.00    -0.333 A  
ENDBRANCH   4   6
BRANCH   4  12
HETATM   12  C   UNL     1      -9.259  15.204  67.448  1.00  0.00    -0.193 C  
HETATM   13  C   UNL     1      -9.325  16.444  66.512  1.00  0.00    -0.300 C  
HETATM   14  C   UNL     1     -10.496  17.349  66.913  1.00  0.00    -0.279 C  
HETATM   15  N   UNL     1     -10.376  17.891  68.272  1.00  0.00    -0.380 NA 
HETATM   16  C   UNL     1     -10.220  16.789  69.241  1.00  0.00    -0.278 C  
HETATM   17  C   UNL     1      -9.102  15.812  68.876  1.00  0.00    -0.225 C  
BRANCH  12  18
HETATM   18  C   UNL     1      -7.943  14.415  67.237  1.00  0.00    -0.180 C  
HETATM   19  O   UNL     1      -7.874  13.203  67.066  1.00  0.00    -0.094 OA 
BRANCH  18  20
HETATM   20  O   UNL     1      -6.856  15.247  67.219  1.00  0.00    -0.214 OA 
HETATM   21  C   UNL     1      -5.761  14.840  68.035  1.00  0.00    -0.138 C  
ENDBRANCH  18  20
ENDBRANCH  12  18
BRANCH  15  22
HETATM   22  C   UNL     1      -9.310  18.901  68.432  1.00  0.00    -0.350 C  
BRANCH  22  23
HETATM   23  C   UNL     1      -9.446  20.105  67.497  1.00  0.00    -0.523 C  
BRANCH  23  24
HETATM   24  C   UNL     1      -8.194  20.268  66.675  1.00  0.00    -0.239 C  
HETATM   25  O   UNL     1      -7.858  19.544  65.747  1.00  0.00    -0.406 OA 
BRANCH  24  26
HETATM   26  O   UNL     1      -7.505  21.366  67.096  1.00  0.00    -0.417 OA 
HETATM   27  C   UNL     1      -6.159  21.082  67.469  1.00  0.00    -0.319 C  
ENDBRANCH  24  26
ENDBRANCH  23  24
ENDBRANCH  22  23
ENDBRANCH  15  22
ENDBRANCH   4  12
ENDBRANCH   2   3
TORSDOF 9
ENDMDL
MODEL       23
REMARK 921   NORMALIZED FREE ENERGY PREDICTED BY IDOCK:   -5.19 KCAL/MOL
REMARK 922        TOTAL FREE ENERGY PREDICTED BY IDOCK:   -8.10 KCAL/MOL
REMARK 923 INTER-LIGAND FREE ENERGY PREDICTED BY IDOCK:   -7.87 KCAL/MOL
REMARK 924 INTRA-LIGAND FREE ENERGY PREDICTED BY IDOCK:   -0.23 KCAL/MOL
REMARK 927      BINDING AFFINITY PREDICTED BY RF-SCORE:    0.00 PKD
ROOT
HETATM    1  C   UNL     1     -10.334   9.048  67.945  1.00  0.00    -0.290 C  
HETATM    2  C   UNL     1     -11.244  10.248  67.727  1.00  0.00    -0.262 C  
ENDROOT
BRANCH   2   3
HETATM    3  C   UNL     1     -10.545  11.548  68.119  1.00  0.00    -0.196 C  
HETATM    4  N   UNL     1     -10.379  12.555  67.154  1.00  0.00    -0.220 N  
HETATM    5  O   UNL     1     -10.150  11.662  69.282  1.00  0.00    -0.002 OA 
BRANCH   4   6
HETATM    6  C   UNL     1     -10.905  12.389  65.815  1.00  0.00    -0.276 A  
HETATM    7  C   UNL     1     -10.121  11.911  64.751  1.00  0.00    -0.295 A  
HETATM    8  C   UNL     1     -10.661  11.734  63.472  1.00  0.00    -0.499 A  
HETATM    9  C   UNL     1     -12.237  12.727  65.540  1.00  0.00    -0.519 A  
HETATM   10  C   UNL     1     -11.992  12.042  63.229  1.00  0.00    -0.477 A  
HETATM   11  C   UNL     1     -12.779  12.549  64.258  1.00  0.00    -0.432 A  
ENDBRANCH   4   6
BRANCH   4  12
HETATM   12  C   UNL     1      -9.371  13.686  67.394  1.00  0.00    -0.227 C  
HETATM   13  C   UNL     1      -9.471  14.757  66.270  1.00  0.00    -0.332 C  
HETATM   14  C   UNL     1     -10.806  15.505  66.368  1.00  0.00    -0.277 C  
HETATM   15  N   UNL     1     -10.971  16.242  67.628  1.00  0.00    -0.288 NA 
HETATM   16  C   UNL     1     -10.808  15.325  68.772  1.00  0.00    -0.254 C  
HETATM   17  C   UNL     1      -9.519  14.503  68.715  1.00  0.00    -0.183 C  
BRANCH  12  18
HETATM   18  C   UNL     1      -7.939  13.102  67.482  1.00  0.00    -0.179 C  
HETATM   19  O   UNL     1      -7.538  12.135  66.845  1.00  0.00    -0.122 OA 
BRANCH  18  20
HETATM   20  O   UNL     1      -7.151  13.830  68.333  1.00  0.00    -0.087 OA 
HETATM   21  C   UNL     1      -5.895  14.242  67.801  1.00  0.00    -0.077 C  
ENDBRANCH  18  20
ENDBRANCH  12  18
BRANCH  15  22
HETATM   22  C   UNL     1     -10.097  17.425  67.759  1.00  0.00    -0.323 C  
BRANCH  22  23
HETATM   23  C   UNL     1     -10.738  18.731  67.283  1.00  0.00    -0.490 C  
BRANCH  23  24
HETATM   24  C   UNL     1      -9.672  19.709  66.862  1.00  0.00    -0.369 C  
HETATM   25  O   UNL     1      -9.544  20.846  67.295  1.00  0.00    -0.435 OA 
BRANCH  24  26
HETATM   26  O   UNL     1      -8.846  19.126  65.948  1.00  0.00    -0.450 OA 
HETATM   27  C   UNL     1      -7.503  19.599  66.014  1.00  0.00    -0.311 C  
ENDBRANCH  24  26
ENDBRANCH  23  24
ENDBRANCH  22  23
ENDBRANCH  15  22
ENDBRANCH   4  12
ENDBRANCH   2   3
TORSDOF 9
ENDMDL
MODEL       24
REMARK 921   NORMALIZED FREE ENERGY PREDICTED BY IDOCK:   -5.17 KCAL/MOL
REMARK 922        TOTAL FREE ENERGY PREDICTED BY IDOCK:   -8.07 KCAL/MOL
REMARK 923 INTER-LIGAND FREE ENERGY PREDICTED BY IDOCK:   -7.94 KCAL/MOL
REMARK 924 INTRA-LIGAND FREE ENERGY PREDICTED BY IDOCK:   -0.13 KCAL/MOL
REMARK 927      BINDING AFFINITY PREDICTED BY RF-SCORE:    0.00 PKD
ROOT
HETATM    1  C   UNL     1     -10.909  19.014  67.184  1.00  0.00    -0.473 C  
HETATM    2  C   UNL     1     -10.375  17.741  67.824  1.00  0.00    -0.382 C  
ENDROOT
BRANCH   2   3
HETATM    3  C   UNL     1     -10.647  16.524  66.943  1.00  0.00    -0.238 C  
HETATM    4  N   UNL     1     -11.213  15.374  67.518  1.00  0.00    -0.324 N  
HETATM    5  O   UNL     1     -10.355  16.601  65.747  1.00  0.00    -0.389 OA 
BRANCH   4   6
HETATM    6  C   UNL     1     -11.583  15.354  68.918  1.00  0.00    -0.354 A  
HETATM    7  C   UNL     1     -12.909  15.166  69.346  1.00  0.00     0.340 A  
HETATM    8  C   UNL     1     -13.235  15.124  70.706  1.00  0.00    -0.433 A  
HETATM    9  C   UNL     1     -10.604  15.547  69.903  1.00  0.00    -0.322 A  
HETATM   10  C   UNL     1     -12.245  15.282  71.666  1.00  0.00    -0.433 A  
HETATM   11  C   UNL     1     -10.930  15.505  71.266  1.00  0.00    -0.229 A  
ENDBRANCH   4   6
BRANCH   4  12
HETATM   12  C   UNL     1     -11.148  14.035  66.774  1.00  0.00    -0.306 C  
HETATM   13  C   UNL     1      -9.712  13.774  66.237  1.00  0.00    -0.297 C  
HETATM   14  C   UNL     1      -8.747  13.529  67.404  1.00  0.00    -0.220 C  
HETATM   15  N   UNL     1      -9.088  12.345  68.203  1.00  0.00    -0.197 NA 
HETATM   16  C   UNL     1     -10.475  12.451  68.695  1.00  0.00    -0.204 C  
HETATM   17  C   UNL     1     -11.490  12.750  67.590  1.00  0.00    -0.387 C  
BRANCH  12  18
HETATM   18  C   UNL     1     -12.184  14.024  65.622  1.00  0.00    -0.442 C  
HETATM   19  O   UNL     1     -13.394  14.155  65.769  1.00  0.00    -0.503 OA 
BRANCH  18  20
HETATM   20  O   UNL     1     -11.577  13.896  64.402  1.00  0.00    -0.382 OA 
HETATM   21  C   UNL     1     -12.205  12.989  63.499  1.00  0.00    -0.501 C  
ENDBRANCH  18  20
ENDBRANCH  12  18
BRANCH  15  22
HETATM   22  C   UNL     1      -8.860  11.059  67.513  1.00  0.00    -0.131 C  
BRANCH  22  23
HETATM   23  C   UNL     1      -9.370   9.838  68.283  1.00  0.00    -0.134 C  
BRANCH  23  24
HETATM   24  C   UNL     1     -10.047   8.876  67.342  1.00  0.00    -0.227 C  
HETATM   25  O   UNL     1     -10.360   9.121  66.185  1.00  0.00    -0.221 OA 
BRANCH  24  26
HETATM   26  O   UNL     1     -10.228   7.676  67.961  1.00  0.00    -0.186 OA 
HETATM   27  C   UNL     1     -10.693   6.651  67.086  1.00  0.00    -0.370 C  
ENDBRANCH  24  26
ENDBRANCH  23  24
ENDBRANCH  22  23
ENDBRANCH  15  22
ENDBRANCH   4  12
ENDBRANCH   2   3
TORSDOF 9
ENDMDL
MODEL       25
REMARK 921   NORMALIZED FREE ENERGY PREDICTED BY IDOCK:   -5.17 KCAL/MOL
REMARK 922        TOTAL FREE ENERGY PREDICTED BY IDOCK:   -8.07 KCAL/MOL
REMARK 923 INTER-LIGAND FREE ENERGY PREDICTED BY IDOCK:   -8.31 KCAL/MOL
REMARK 924 INTRA-LIGAND FREE ENERGY PREDICTED BY IDOCK:    0.24 KCAL/MOL
REMARK 927      BINDING AFFINITY PREDICTED BY RF-SCORE:    0.00 PKD
ROOT
HETATM    1  C   UNL     1     -12.032  12.478  63.100  1.00  0.00    -0.356 C  
HETATM    2  C   UNL     1     -12.627  12.038  64.430  1.00  0.00    -0.292 C  
ENDROOT
BRANCH   2   3
HETATM    3  C   UNL     1     -12.259  13.011  65.547  1.00  0.00    -0.469 C  
HETATM    4  N   UNL     1     -11.172  12.713  66.386  1.00  0.00    -0.291 N  
HETATM    5  O   UNL     1     -12.939  14.033  65.670  1.00  0.00    -0.608 OA 
BRANCH   4   6
HETATM    6  C   UNL     1     -10.376  11.524  66.168  1.00  0.00    -0.245 A  
HETATM    7  C   UNL     1     -10.620  10.317  66.848  1.00  0.00    -0.282 A  
HETATM    8  C   UNL     1      -9.853   9.174  66.599  1.00  0.00    -0.307 A  
HETATM    9  C   UNL     1      -9.305  11.554  65.264  1.00  0.00    -0.155 A  
HETATM   10  C   UNL     1      -8.818   9.216  65.674  1.00  0.00    -0.222 A  
HETATM   11  C   UNL     1      -8.535  10.408  65.013  1.00  0.00    -0.180 A  
ENDBRANCH   4   6
BRANCH   4  12
HETATM   12  C   UNL     1     -11.012  13.449  67.722  1.00  0.00    -0.262 C  
HETATM   13  C   UNL     1      -9.517  13.487  68.151  1.00  0.00    -0.214 C  
HETATM   14  C   UNL     1      -8.717  14.388  67.203  1.00  0.00    -0.226 C  
HETATM   15  N   UNL     1      -9.163  15.787  67.211  1.00  0.00    -0.204 NA 
HETATM   16  C   UNL     1     -10.603  15.858  66.897  1.00  0.00    -0.309 C  
HETATM   17  C   UNL     1     -11.462  14.942  67.771  1.00  0.00    -0.353 C  
BRANCH  12  18
HETATM   18  C   UNL     1     -11.885  12.767  68.805  1.00  0.00    -0.307 C  
HETATM   19  O   UNL     1     -12.306  11.617  68.740  1.00  0.00    -0.374 OA 
BRANCH  18  20
HETATM   20  O   UNL     1     -12.096  13.594  69.874  1.00  0.00    -0.319 OA 
HETATM   21  C   UNL     1     -12.679  12.976  71.019  1.00  0.00    -0.262 C  
ENDBRANCH  18  20
ENDBRANCH  12  18
BRANCH  15  22
HETATM   22  C   UNL     1      -8.848  16.518  68.456  1.00  0.00    -0.228 C  
BRANCH  22  23
HETATM   23  C   UNL     1      -8.208  17.890  68.229  1.00  0.00    -0.292 C  
BRANCH  23  24
HETATM   24  C   UNL     1      -9.264  18.964  68.241  1.00  0.00    -0.330 C  
HETATM   25  O   UNL     1     -10.033  19.190  69.165  1.00  0.00    -0.400 OA 
BRANCH  24  26
HETATM   26  O   UNL     1      -9.214  19.673  67.077  1.00  0.00    -0.313 OA 
HETATM   27  C   UNL     1     -10.392  19.545  66.284  1.00  0.00    -0.506 C  
ENDBRANCH  24  26
ENDBRANCH  23  24
ENDBRANCH  22  23
ENDBRANCH  15  22
ENDBRANCH   4  12
ENDBRANCH   2   3
TORSDOF 9
ENDMDL
MODEL       26
REMARK 921   NORMALIZED FREE ENERGY PREDICTED BY IDOCK:   -5.17 KCAL/MOL
REMARK 922        TOTAL FREE ENERGY PREDICTED BY IDOCK:   -8.07 KCAL/MOL
REMARK 923 INTER-LIGAND FREE ENERGY PREDICTED BY IDOCK:   -7.48 KCAL/MOL
REMARK 924 INTRA-LIGAND FREE ENERGY PREDICTED BY IDOCK:   -0.59 KCAL/MOL
REMARK 927      BINDING AFFINITY PREDICTED BY RF-SCORE:    0.00 PKD
ROOT
HETATM    1  C   UNL     1     -12.181  11.974  63.482  1.00  0.00    -0.653 C  
HETATM    2  C   UNL     1     -10.727  12.283  63.806  1.00  0.00    -0.494 C  
ENDROOT
BRANCH   2   3
HETATM    3  C   UNL     1     -10.148  11.255  64.775  1.00  0.00    -0.285 C  
HETATM    4  N   UNL     1      -9.914  11.626  66.110  1.00  0.00    -0.214 N  
HETATM    5  O   UNL     1      -9.904  10.126  64.342  1.00  0.00    -0.322 OA 
BRANCH   4   6
HETATM    6  C   UNL     1     -10.264  12.951  66.580  1.00  0.00    -0.259 A  
HETATM    7  C   UNL     1     -11.562  13.281  67.007  1.00  0.00    -0.404 A  
HETATM    8  C   UNL     1     -11.867  14.562  67.482  1.00  0.00    -0.404 A  
HETATM    9  C   UNL     1      -9.296  13.964  66.601  1.00  0.00    -0.282 A  
HETATM   10  C   UNL     1     -10.884  15.541  67.527  1.00  0.00    -0.306 A  
HETATM   11  C   UNL     1      -9.601  15.247  67.077  1.00  0.00    -0.233 A  
ENDBRANCH   4   6
BRANCH   4  12
HETATM   12  C   UNL     1      -9.001  10.769  66.995  1.00  0.00    -0.141 C  
HETATM   13  C   UNL     1      -9.167  11.156  68.492  1.00  0.00    -0.183 C  
HETATM   14  C   UNL     1     -10.557  10.748  68.994  1.00  0.00    -0.219 C  
HETATM   15  N   UNL     1     -10.798   9.301  68.935  1.00  0.00    -0.154 NA 
HETATM   16  C   UNL     1     -10.581   8.811  67.560  1.00  0.00    -0.228 C  
HETATM   17  C   UNL     1      -9.232   9.226  66.971  1.00  0.00    -0.169 C  
BRANCH  12  18
HETATM   18  C   UNL     1      -7.529  10.927  66.537  1.00  0.00    -0.142 C  
HETATM   19  O   UNL     1      -6.793  11.852  66.860  1.00  0.00    -0.138 OA 
BRANCH  18  20
HETATM   20  O   UNL     1      -7.130   9.875  65.758  1.00  0.00    -0.098 OA 
HETATM   21  C   UNL     1      -6.244  10.206  64.692  1.00  0.00    -0.130 C  
ENDBRANCH  18  20
ENDBRANCH  12  18
BRANCH  15  22
HETATM   22  C   UNL     1     -10.020   8.515  69.914  1.00  0.00    -0.189 C  
BRANCH  22  23
HETATM   23  C   UNL     1     -10.489   8.680  71.361  1.00  0.00    -0.327 C  
BRANCH  23  24
HETATM   24  C   UNL     1     -11.840   8.039  71.546  1.00  0.00    -0.292 C  
HETATM   25  O   UNL     1     -12.184   6.966  71.071  1.00  0.00    -0.373 OA 
BRANCH  24  26
HETATM   26  O   UNL     1     -12.614   8.819  72.352  1.00  0.00    -0.385 OA 
HETATM   27  C   UNL     1     -13.101   9.994  71.707  1.00  0.00    -0.457 C  
ENDBRANCH  24  26
ENDBRANCH  23  24
ENDBRANCH  22  23
ENDBRANCH  15  22
ENDBRANCH   4  12
ENDBRANCH   2   3
TORSDOF 9
ENDMDL
MODEL       27
REMARK 921   NORMALIZED FREE ENERGY PREDICTED BY IDOCK:   -5.17 KCAL/MOL
REMARK 922        TOTAL FREE ENERGY PREDICTED BY IDOCK:   -8.07 KCAL/MOL
REMARK 923 INTER-LIGAND FREE ENERGY PREDICTED BY IDOCK:   -8.12 KCAL/MOL
REMARK 924 INTRA-LIGAND FREE ENERGY PREDICTED BY IDOCK:    0.05 KCAL/MOL
REMARK 927      BINDING AFFINITY PREDICTED BY RF-SCORE:    0.00 PKD
ROOT
HETATM    1  C   UNL     1     -10.496  17.501  65.727  1.00  0.00    -0.212 C  
HETATM    2  C   UNL     1     -10.743  16.014  65.517  1.00  0.00    -0.374 C  
ENDROOT
BRANCH   2   3
HETATM    3  C   UNL     1      -9.962  15.177  66.527  1.00  0.00    -0.266 C  
HETATM    4  N   UNL     1     -10.019  13.776  66.447  1.00  0.00    -0.289 N  
HETATM    5  O   UNL     1      -9.305  15.773  67.385  1.00  0.00    -0.207 OA 
BRANCH   4   6
HETATM    6  C   UNL     1     -10.767  13.127  65.390  1.00  0.00    -0.294 A  
HETATM    7  C   UNL     1     -12.172  13.134  65.347  1.00  0.00    -0.510 A  
HETATM    8  C   UNL     1     -12.871  12.523  64.300  1.00  0.00    -0.350 A  
HETATM    9  C   UNL     1     -10.090  12.444  64.371  1.00  0.00    -0.293 A  
HETATM   10  C   UNL     1     -12.179  11.881  63.282  1.00  0.00    -0.487 A  
HETATM   11  C   UNL     1     -10.789  11.831  63.321  1.00  0.00    -0.400 A  
ENDBRANCH   4   6
BRANCH   4  12
HETATM   12  C   UNL     1      -9.575  12.922  67.641  1.00  0.00    -0.196 C  
HETATM   13  C   UNL     1     -10.287  13.387  68.943  1.00  0.00    -0.089 C  
HETATM   14  C   UNL     1     -11.785  13.067  68.872  1.00  0.00    -0.328 C  
HETATM   15  N   UNL     1     -12.070  11.630  68.761  1.00  0.00    -0.433 NA 
HETATM   16  C   UNL     1     -11.365  11.066  67.594  1.00  0.00    -0.281 C  
HETATM   17  C   UNL     1      -9.871  11.392  67.570  1.00  0.00    -0.194 C  
BRANCH  12  18
HETATM   18  C   UNL     1      -8.035  12.992  67.792  1.00  0.00    -0.164 C  
HETATM   19  O   UNL     1      -7.232  12.574  66.965  1.00  0.00    -0.098 OA 
BRANCH  18  20
HETATM   20  O   UNL     1      -7.672  13.623  68.951  1.00  0.00    -0.096 OA 
HETATM   21  C   UNL     1      -6.410  14.284  68.918  1.00  0.00    -0.089 C  
ENDBRANCH  18  20
ENDBRANCH  12  18
BRANCH  15  22
HETATM   22  C   UNL     1     -11.783  10.858  69.987  1.00  0.00    -0.345 C  
BRANCH  22  23
HETATM   23  C   UNL     1     -12.906  10.897  71.027  1.00  0.00    -0.472 C  
BRANCH  23  24
HETATM   24  C   UNL     1     -12.846   9.672  71.901  1.00  0.00    -0.425 C  
HETATM   25  O   UNL     1     -13.806   9.144  72.446  1.00  0.00    -0.469 OA 
BRANCH  24  26
HETATM   26  O   UNL     1     -11.563   9.216  71.969  1.00  0.00    -0.361 OA 
HETATM   27  C   UNL     1     -11.450   7.928  72.570  1.00  0.00    -0.398 C  
ENDBRANCH  24  26
ENDBRANCH  23  24
ENDBRANCH  22  23
ENDBRANCH  15  22
ENDBRANCH   4  12
ENDBRANCH   2   3
TORSDOF 9
ENDMDL
MODEL       28
REMARK 921   NORMALIZED FREE ENERGY PREDICTED BY IDOCK:   -5.13 KCAL/MOL
REMARK 922        TOTAL FREE ENERGY PREDICTED BY IDOCK:   -8.01 KCAL/MOL
REMARK 923 INTER-LIGAND FREE ENERGY PREDICTED BY IDOCK:   -7.47 KCAL/MOL
REMARK 924 INTRA-LIGAND FREE ENERGY PREDICTED BY IDOCK:   -0.54 KCAL/MOL
REMARK 927      BINDING AFFINITY PREDICTED BY RF-SCORE:    0.00 PKD
ROOT
HETATM    1  C   UNL     1     -12.166  12.041  63.521  1.00  0.00    -0.653 C  
HETATM    2  C   UNL     1     -10.684  12.281  63.771  1.00  0.00    -0.494 C  
ENDROOT
BRANCH   2   3
HETATM    3  C   UNL     1     -10.131  11.295  64.798  1.00  0.00    -0.285 C  
HETATM    4  N   UNL     1      -9.911  11.728  66.116  1.00  0.00    -0.222 N  
HETATM    5  O   UNL     1      -9.897  10.143  64.423  1.00  0.00    -0.322 OA 
BRANCH   4   6
HETATM    6  C   UNL     1     -10.249  13.078  66.515  1.00  0.00    -0.268 A  
HETATM    7  C   UNL     1      -9.329  14.139  66.441  1.00  0.00    -0.254 A  
HETATM    8  C   UNL     1      -9.689  15.441  66.808  1.00  0.00    -0.254 A  
HETATM    9  C   UNL     1     -11.527  13.361  67.015  1.00  0.00    -0.372 A  
HETATM   10  C   UNL     1     -10.972  15.706  67.267  1.00  0.00    -0.275 A  
HETATM   11  C   UNL     1     -11.889  14.666  67.382  1.00  0.00    -0.374 A  
ENDBRANCH   4   6
BRANCH   4  12
HETATM   12  C   UNL     1      -9.021  10.904  67.054  1.00  0.00    -0.143 C  
HETATM   13  C   UNL     1      -9.175  11.390  68.524  1.00  0.00    -0.174 C  
HETATM   14  C   UNL     1     -10.575  11.054  69.049  1.00  0.00    -0.225 C  
HETATM   15  N   UNL     1     -10.856   9.613  69.082  1.00  0.00    -0.214 NA 
HETATM   16  C   UNL     1     -10.654   9.030  67.741  1.00  0.00    -0.214 C  
HETATM   17  C   UNL     1      -9.294   9.369  67.129  1.00  0.00    -0.172 C  
BRANCH  12  18
HETATM   18  C   UNL     1      -7.546  10.992  66.589  1.00  0.00    -0.146 C  
HETATM   19  O   UNL     1      -6.807  11.950  66.786  1.00  0.00    -0.110 OA 
BRANCH  18  20
HETATM   20  O   UNL     1      -7.146   9.841  65.966  1.00  0.00    -0.094 OA 
HETATM   21  C   UNL     1      -6.135  10.002  64.974  1.00  0.00    -0.113 C  
ENDBRANCH  18  20
ENDBRANCH  12  18
BRANCH  15  22
HETATM   22  C   UNL     1     -10.099   8.869  70.109  1.00  0.00    -0.190 C  
BRANCH  22  23
HETATM   23  C   UNL     1     -10.620   9.070  71.535  1.00  0.00    -0.415 C  
BRANCH  23  24
HETATM   24  C   UNL     1     -11.913   8.320  71.726  1.00  0.00    -0.316 C  
HETATM   25  O   UNL     1     -12.140   7.188  71.322  1.00  0.00    -0.312 OA 
BRANCH  24  26
HETATM   26  O   UNL     1     -12.784   9.079  72.449  1.00  0.00    -0.392 OA 
HETATM   27  C   UNL     1     -13.159  10.290  71.795  1.00  0.00    -0.465 C  
ENDBRANCH  24  26
ENDBRANCH  23  24
ENDBRANCH  22  23
ENDBRANCH  15  22
ENDBRANCH   4  12
ENDBRANCH   2   3
TORSDOF 9
ENDMDL
MODEL       29
REMARK 921   NORMALIZED FREE ENERGY PREDICTED BY IDOCK:   -5.09 KCAL/MOL
REMARK 922        TOTAL FREE ENERGY PREDICTED BY IDOCK:   -7.95 KCAL/MOL
REMARK 923 INTER-LIGAND FREE ENERGY PREDICTED BY IDOCK:   -7.75 KCAL/MOL
REMARK 924 INTRA-LIGAND FREE ENERGY PREDICTED BY IDOCK:   -0.20 KCAL/MOL
REMARK 927      BINDING AFFINITY PREDICTED BY RF-SCORE:    0.00 PKD
ROOT
HETATM    1  C   UNL     1      -9.059  10.156  63.732  1.00  0.00    -0.293 C  
HETATM    2  C   UNL     1      -9.801  10.161  65.061  1.00  0.00    -0.392 C  
ENDROOT
BRANCH   2   3
HETATM    3  C   UNL     1     -10.421  11.528  65.342  1.00  0.00    -0.281 C  
HETATM    4  N   UNL     1      -9.921  12.302  66.402  1.00  0.00    -0.223 N  
HETATM    5  O   UNL     1     -11.347  11.902  64.618  1.00  0.00    -0.317 OA 
BRANCH   4   6
HETATM    6  C   UNL     1      -8.799  11.837  67.191  1.00  0.00    -0.173 A  
HETATM    7  C   UNL     1      -8.965  11.130  68.395  1.00  0.00    -0.165 A  
HETATM    8  C   UNL     1      -7.864  10.668  69.124  1.00  0.00    -0.142 A  
HETATM    9  C   UNL     1      -7.489  12.105  66.771  1.00  0.00     0.066 A  
HETATM   10  C   UNL     1      -6.575  10.914  68.672  1.00  0.00    -0.057 A  
HETATM   11  C   UNL     1      -6.385  11.641  67.501  1.00  0.00    -0.087 A  
ENDBRANCH   4   6
BRANCH   4  12
HETATM   12  C   UNL     1     -10.743  13.477  66.946  1.00  0.00    -0.274 C  
HETATM   13  C   UNL     1      -9.814  14.538  67.603  1.00  0.00    -0.223 C  
HETATM   14  C   UNL     1      -8.958  15.227  66.534  1.00  0.00    -0.305 C  
HETATM   15  N   UNL     1      -9.748  15.961  65.537  1.00  0.00    -0.414 NA 
HETATM   16  C   UNL     1     -10.730  15.057  64.908  1.00  0.00    -0.397 C  
HETATM   17  C   UNL     1     -11.587  14.292  65.918  1.00  0.00    -0.358 C  
BRANCH  12  18
HETATM   18  C   UNL     1     -11.796  12.956  67.956  1.00  0.00    -0.343 C  
HETATM   19  O   UNL     1     -12.283  11.832  67.940  1.00  0.00    -0.538 OA 
BRANCH  18  20
HETATM   20  O   UNL     1     -12.088  13.897  68.906  1.00  0.00    -0.351 OA 
HETATM   21  C   UNL     1     -12.244  13.399  70.232  1.00  0.00    -0.335 C  
ENDBRANCH  18  20
ENDBRANCH  12  18
BRANCH  15  22
HETATM   22  C   UNL     1     -10.399  17.182  66.055  1.00  0.00    -0.309 C  
BRANCH  22  23
HETATM   23  C   UNL     1      -9.549  17.963  67.061  1.00  0.00    -0.286 C  
BRANCH  23  24
HETATM   24  C   UNL     1      -8.917  19.155  66.390  1.00  0.00    -0.342 C  
HETATM   25  O   UNL     1      -7.979  19.111  65.606  1.00  0.00    -0.433 OA 
BRANCH  24  26
HETATM   26  O   UNL     1      -9.570  20.293  66.761  1.00  0.00    -0.400 OA 
HETATM   27  C   UNL     1     -10.149  20.215  68.062  1.00  0.00    -0.379 C  
ENDBRANCH  24  26
ENDBRANCH  23  24
ENDBRANCH  22  23
ENDBRANCH  15  22
ENDBRANCH   4  12
ENDBRANCH   2   3
TORSDOF 9
ENDMDL
MODEL       30
REMARK 921   NORMALIZED FREE ENERGY PREDICTED BY IDOCK:   -5.09 KCAL/MOL
REMARK 922        TOTAL FREE ENERGY PREDICTED BY IDOCK:   -7.95 KCAL/MOL
REMARK 923 INTER-LIGAND FREE ENERGY PREDICTED BY IDOCK:   -7.81 KCAL/MOL
REMARK 924 INTRA-LIGAND FREE ENERGY PREDICTED BY IDOCK:   -0.14 KCAL/MOL
REMARK 927      BINDING AFFINITY PREDICTED BY RF-SCORE:    0.00 PKD
ROOT
HETATM    1  C   UNL     1      -8.163   6.923  72.180  1.00  0.00    -0.105 C  
HETATM    2  C   UNL     1      -8.637   8.369  72.222  1.00  0.00    -0.263 C  
ENDROOT
BRANCH   2   3
HETATM    3  C   UNL     1      -8.642   8.988  70.826  1.00  0.00    -0.217 C  
HETATM    4  N   UNL     1      -9.856   9.102  70.130  1.00  0.00    -0.185 N  
HETATM    5  O   UNL     1      -7.564   9.368  70.360  1.00  0.00    -0.111 OA 
BRANCH   4   6
HETATM    6  C   UNL     1     -11.100   8.685  70.743  1.00  0.00    -0.255 A  
HETATM    7  C   UNL     1     -11.587   7.369  70.643  1.00  0.00    -0.295 A  
HETATM    8  C   UNL     1     -12.778   6.985  71.268  1.00  0.00    -0.400 A  
HETATM    9  C   UNL     1     -11.877   9.611  71.452  1.00  0.00    -0.484 A  
HETATM   10  C   UNL     1     -13.514   7.911  71.995  1.00  0.00    -0.258 A  
HETATM   11  C   UNL     1     -13.071   9.227  72.079  1.00  0.00    -0.512 A  
ENDBRANCH   4   6
BRANCH   4  12
HETATM   12  C   UNL     1      -9.852   9.355  68.617  1.00  0.00    -0.163 C  
HETATM   13  C   UNL     1     -11.187  10.013  68.167  1.00  0.00    -0.192 C  
HETATM   14  C   UNL     1     -11.288  11.439  68.720  1.00  0.00    -0.271 C  
HETATM   15  N   UNL     1     -10.228  12.331  68.232  1.00  0.00    -0.216 NA 
HETATM   16  C   UNL     1      -8.905  11.752  68.535  1.00  0.00    -0.122 C  
HETATM   17  C   UNL     1      -8.749  10.307  68.058  1.00  0.00    -0.122 C  
BRANCH  12  18
HETATM   18  C   UNL     1      -9.604   8.024  67.864  1.00  0.00    -0.155 C  
HETATM   19  O   UNL     1      -8.574   7.363  67.934  1.00  0.00    -0.124 OA 
BRANCH  18  20
HETATM   20  O   UNL     1     -10.700   7.647  67.137  1.00  0.00    -0.332 OA 
HETATM   21  C   UNL     1     -10.964   6.246  67.110  1.00  0.00    -0.370 C  
ENDBRANCH  18  20
ENDBRANCH  12  18
BRANCH  15  22
HETATM   22  C   UNL     1     -10.344  12.687  66.803  1.00  0.00    -0.235 C  
BRANCH  22  23
HETATM   23  C   UNL     1     -11.768  12.595  66.250  1.00  0.00    -0.460 C  
BRANCH  23  24
HETATM   24  C   UNL     1     -12.227  13.947  65.770  1.00  0.00    -0.460 C  
HETATM   25  O   UNL     1     -13.273  14.169  65.176  1.00  0.00    -0.743 OA 
BRANCH  24  26
HETATM   26  O   UNL     1     -11.317  14.897  66.127  1.00  0.00    -0.344 OA 
HETATM   27  C   UNL     1     -10.918  15.736  65.046  1.00  0.00    -0.417 C  
ENDBRANCH  24  26
ENDBRANCH  23  24
ENDBRANCH  22  23
ENDBRANCH  15  22
ENDBRANCH   4  12
ENDBRANCH   2   3
TORSDOF 9
ENDMDL
MODEL       31
REMARK 921   NORMALIZED FREE ENERGY PREDICTED BY IDOCK:   -5.04 KCAL/MOL
REMARK 922        TOTAL FREE ENERGY PREDICTED BY IDOCK:   -7.88 KCAL/MOL
REMARK 923 INTER-LIGAND FREE ENERGY PREDICTED BY IDOCK:   -7.67 KCAL/MOL
REMARK 924 INTRA-LIGAND FREE ENERGY PREDICTED BY IDOCK:   -0.20 KCAL/MOL
REMARK 927      BINDING AFFINITY PREDICTED BY RF-SCORE:    0.00 PKD
ROOT
HETATM    1  C   UNL     1     -11.455  15.705  71.369  1.00  0.00    -0.488 C  
HETATM    2  C   UNL     1     -11.529  15.736  69.849  1.00  0.00    -0.347 C  
ENDROOT
BRANCH   2   3
HETATM    3  C   UNL     1     -11.634  14.326  69.274  1.00  0.00    -0.306 C  
HETATM    4  N   UNL     1     -10.689  13.900  68.325  1.00  0.00    -0.245 N  
HETATM    5  O   UNL     1     -12.555  13.607  69.670  1.00  0.00    -0.185 OA 
BRANCH   4   6
HETATM    6  C   UNL     1      -9.598  14.767  67.930  1.00  0.00    -0.210 A  
HETATM    7  C   UNL     1      -8.438  14.922  68.709  1.00  0.00    -0.172 A  
HETATM    8  C   UNL     1      -7.386  15.745  68.291  1.00  0.00    -0.121 A  
HETATM    9  C   UNL     1      -9.685  15.505  66.742  1.00  0.00    -0.252 A  
HETATM   10  C   UNL     1      -7.478  16.440  67.093  1.00  0.00    -0.227 A  
HETATM   11  C   UNL     1      -8.631  16.330  66.322  1.00  0.00    -0.374 A  
ENDBRANCH   4   6
BRANCH   4  12
HETATM   12  C   UNL     1     -10.975  12.666  67.460  1.00  0.00    -0.246 C  
HETATM   13  C   UNL     1      -9.649  12.050  66.929  1.00  0.00    -0.209 C  
HETATM   14  C   UNL     1      -8.848  11.440  68.085  1.00  0.00    -0.162 C  
HETATM   15  N   UNL     1      -9.546  10.341  68.764  1.00  0.00    -0.167 NA 
HETATM   16  C   UNL     1     -10.867  10.800  69.236  1.00  0.00    -0.242 C  
HETATM   17  C   UNL     1     -11.704  11.470  68.146  1.00  0.00    -0.357 C  
BRANCH  12  18
HETATM   18  C   UNL     1     -11.918  13.051  66.292  1.00  0.00    -0.414 C  
HETATM   19  O   UNL     1     -12.627  14.051  66.267  1.00  0.00    -0.451 OA 
BRANCH  18  20
HETATM   20  O   UNL     1     -11.831  12.156  65.261  1.00  0.00    -0.364 OA 
HETATM   21  C   UNL     1     -12.188  12.664  63.978  1.00  0.00    -0.463 C  
ENDBRANCH  18  20
ENDBRANCH  12  18
BRANCH  15  22
HETATM   22  C   UNL     1      -9.663   9.108  67.960  1.00  0.00    -0.154 C  
BRANCH  22  23
HETATM   23  C   UNL     1      -9.790   7.830  68.794  1.00  0.00    -0.171 C  
BRANCH  23  24
HETATM   24  C   UNL     1     -10.824   6.916  68.189  1.00  0.00    -0.194 C  
HETATM   25  O   UNL     1     -11.158   6.907  67.012  1.00  0.00    -0.389 OA 
BRANCH  24  26
HETATM   26  O   UNL     1     -11.310   6.073  69.143  1.00  0.00    -0.364 OA 
HETATM   27  C   UNL     1     -11.568   6.716  70.389  1.00  0.00    -0.398 C  
ENDBRANCH  24  26
ENDBRANCH  23  24
ENDBRANCH  22  23
ENDBRANCH  15  22
ENDBRANCH   4  12
ENDBRANCH   2   3
TORSDOF 9
ENDMDL
MODEL       32
REMARK 921   NORMALIZED FREE ENERGY PREDICTED BY IDOCK:   -5.03 KCAL/MOL
REMARK 922        TOTAL FREE ENERGY PREDICTED BY IDOCK:   -7.86 KCAL/MOL
REMARK 923 INTER-LIGAND FREE ENERGY PREDICTED BY IDOCK:   -7.46 KCAL/MOL
REMARK 924 INTRA-LIGAND FREE ENERGY PREDICTED BY IDOCK:   -0.40 KCAL/MOL
REMARK 927      BINDING AFFINITY PREDICTED BY RF-SCORE:    0.00 PKD
ROOT
HETATM    1  C   UNL     1      -9.044   6.675  73.193  1.00  0.00    -0.141 C  
HETATM    2  C   UNL     1      -9.295   8.157  72.955  1.00  0.00    -0.343 C  
ENDROOT
BRANCH   2   3
HETATM    3  C   UNL     1      -8.993   8.542  71.508  1.00  0.00    -0.213 C  
HETATM    4  N   UNL     1     -10.060   8.757  70.619  1.00  0.00    -0.193 N  
HETATM    5  O   UNL     1      -7.811   8.649  71.174  1.00  0.00    -0.094 OA 
BRANCH   4   6
HETATM    6  C   UNL     1     -11.431   8.665  71.076  1.00  0.00    -0.278 A  
HETATM    7  C   UNL     1     -12.161   7.464  71.035  1.00  0.00    -0.330 A  
HETATM    8  C   UNL     1     -13.476   7.396  71.507  1.00  0.00    -0.445 A  
HETATM    9  C   UNL     1     -12.084   9.805  71.564  1.00  0.00    -0.493 A  
HETATM   10  C   UNL     1     -14.093   8.530  72.019  1.00  0.00    -0.516 A  
HETATM   11  C   UNL     1     -13.402   9.738  72.038  1.00  0.00    -0.547 A  
ENDBRANCH   4   6
BRANCH   4  12
HETATM   12  C   UNL     1      -9.806   8.765  69.107  1.00  0.00    -0.181 C  
HETATM   13  C   UNL     1     -10.871   9.633  68.377  1.00  0.00    -0.212 C  
HETATM   14  C   UNL     1     -10.682  11.113  68.732  1.00  0.00    -0.199 C  
HETATM   15  N   UNL     1      -9.382  11.653  68.313  1.00  0.00    -0.187 NA 
HETATM   16  C   UNL     1      -8.292  10.841  68.886  1.00  0.00    -0.147 C  
HETATM   17  C   UNL     1      -8.442   9.343  68.617  1.00  0.00    -0.119 C  
BRANCH  12  18
HETATM   18  C   UNL     1      -9.805   7.313  68.567  1.00  0.00    -0.156 C  
HETATM   19  O   UNL     1      -8.954   6.471  68.828  1.00  0.00    -0.125 OA 
BRANCH  18  20
HETATM   20  O   UNL     1     -10.904   7.066  67.790  1.00  0.00    -0.228 OA 
HETATM   21  C   UNL     1     -10.782   5.967  66.890  1.00  0.00    -0.334 C  
ENDBRANCH  18  20
ENDBRANCH  12  18
BRANCH  15  22
HETATM   22  C   UNL     1      -9.229  11.801  66.851  1.00  0.00    -0.189 C  
BRANCH  22  23
HETATM   23  C   UNL     1     -10.149  12.857  66.231  1.00  0.00    -0.281 C  
BRANCH  23  24
HETATM   24  C   UNL     1     -11.067  12.218  65.223  1.00  0.00    -0.316 C  
HETATM   25  O   UNL     1     -10.798  11.236  64.544  1.00  0.00    -0.329 OA 
BRANCH  24  26
HETATM   26  O   UNL     1     -12.260  12.876  65.203  1.00  0.00    -0.415 OA 
HETATM   27  C   UNL     1     -12.208  14.124  64.516  1.00  0.00    -0.445 C  
ENDBRANCH  24  26
ENDBRANCH  23  24
ENDBRANCH  22  23
ENDBRANCH  15  22
ENDBRANCH   4  12
ENDBRANCH   2   3
TORSDOF 9
ENDMDL
MODEL       33
REMARK 921   NORMALIZED FREE ENERGY PREDICTED BY IDOCK:   -5.03 KCAL/MOL
REMARK 922        TOTAL FREE ENERGY PREDICTED BY IDOCK:   -7.86 KCAL/MOL
REMARK 923 INTER-LIGAND FREE ENERGY PREDICTED BY IDOCK:   -7.54 KCAL/MOL
REMARK 924 INTRA-LIGAND FREE ENERGY PREDICTED BY IDOCK:   -0.31 KCAL/MOL
REMARK 927      BINDING AFFINITY PREDICTED BY RF-SCORE:    0.00 PKD
ROOT
HETATM    1  C   UNL     1      -8.853  10.572  63.873  1.00  0.00    -0.203 C  
HETATM    2  C   UNL     1     -10.229  10.440  64.510  1.00  0.00    -0.281 C  
ENDROOT
BRANCH   2   3
HETATM    3  C   UNL     1     -10.138  10.487  66.034  1.00  0.00    -0.256 C  
HETATM    4  N   UNL     1     -10.443  11.683  66.703  1.00  0.00    -0.225 N  
HETATM    5  O   UNL     1      -9.795   9.459  66.623  1.00  0.00    -0.207 OA 
BRANCH   4   6
HETATM    6  C   UNL     1     -10.888  12.848  65.966  1.00  0.00    -0.279 A  
HETATM    7  C   UNL     1     -10.053  13.953  65.726  1.00  0.00    -0.336 A  
HETATM    8  C   UNL     1     -10.499  15.055  64.988  1.00  0.00    -0.415 A  
HETATM    9  C   UNL     1     -12.201  12.910  65.480  1.00  0.00    -0.527 A  
HETATM   10  C   UNL     1     -11.793  15.080  64.485  1.00  0.00    -0.377 A  
HETATM   11  C   UNL     1     -12.649  14.013  64.740  1.00  0.00    -0.326 A  
ENDBRANCH   4   6
BRANCH   4  12
HETATM   12  C   UNL     1     -10.005  11.880  68.160  1.00  0.00    -0.197 C  
HETATM   13  C   UNL     1     -10.504  13.250  68.702  1.00  0.00    -0.242 C  
HETATM   14  C   UNL     1     -12.031  13.242  68.836  1.00  0.00    -0.297 C  
HETATM   15  N   UNL     1     -12.529  12.239  69.786  1.00  0.00     0.026 NA 
HETATM   16  C   UNL     1     -12.037  10.901  69.408  1.00  0.00    -0.290 C  
HETATM   17  C   UNL     1     -10.523  10.843  69.205  1.00  0.00    -0.248 C  
BRANCH  12  18
HETATM   18  C   UNL     1      -8.463  11.767  68.263  1.00  0.00    -0.161 C  
HETATM   19  O   UNL     1      -7.669  12.509  67.696  1.00  0.00    -0.128 OA 
BRANCH  18  20
HETATM   20  O   UNL     1      -8.089  10.758  69.108  1.00  0.00    -0.152 OA 
HETATM   21  C   UNL     1      -6.820  10.170  68.835  1.00  0.00    -0.054 C  
ENDBRANCH  18  20
ENDBRANCH  12  18
BRANCH  15  22
HETATM   22  C   UNL     1     -12.230  12.541  71.201  1.00  0.00     0.014 C  
BRANCH  22  23
HETATM   23  C   UNL     1     -13.432  13.055  71.998  1.00  0.00    -0.584 C  
BRANCH  23  24
HETATM   24  C   UNL     1     -13.095  14.365  72.660  1.00  0.00    -0.476 C  
HETATM   25  O   UNL     1     -12.767  14.502  73.830  1.00  0.00    -0.455 OA 
BRANCH  24  26
HETATM   26  O   UNL     1     -13.176  15.376  71.749  1.00  0.00    -0.391 OA 
HETATM   27  C   UNL     1     -11.942  16.064  71.556  1.00  0.00    -0.475 C  
ENDBRANCH  24  26
ENDBRANCH  23  24
ENDBRANCH  22  23
ENDBRANCH  15  22
ENDBRANCH   4  12
ENDBRANCH   2   3
TORSDOF 9
ENDMDL
MODEL       34
REMARK 921   NORMALIZED FREE ENERGY PREDICTED BY IDOCK:   -5.01 KCAL/MOL
REMARK 922        TOTAL FREE ENERGY PREDICTED BY IDOCK:   -7.82 KCAL/MOL
REMARK 923 INTER-LIGAND FREE ENERGY PREDICTED BY IDOCK:   -7.68 KCAL/MOL
REMARK 924 INTRA-LIGAND FREE ENERGY PREDICTED BY IDOCK:   -0.14 KCAL/MOL
REMARK 927      BINDING AFFINITY PREDICTED BY RF-SCORE:    0.00 PKD
ROOT
HETATM    1  C   UNL     1     -10.046  20.176  67.506  1.00  0.00    -0.549 C  
HETATM    2  C   UNL     1      -9.607  19.139  68.529  1.00  0.00    -0.454 C  
ENDROOT
BRANCH   2   3
HETATM    3  C   UNL     1     -10.120  17.749  68.161  1.00  0.00    -0.362 C  
HETATM    4  N   UNL     1      -9.261  16.853  67.502  1.00  0.00    -0.222 N  
HETATM    5  O   UNL     1     -11.282  17.465  68.460  1.00  0.00    -0.076 OA 
BRANCH   4   6
HETATM    6  C   UNL     1      -7.889  17.220  67.217  1.00  0.00    -0.189 A  
HETATM    7  C   UNL     1      -6.853  17.045  68.151  1.00  0.00    -0.161 A  
HETATM    8  C   UNL     1      -5.531  17.383  67.841  1.00  0.00    -0.132 A  
HETATM    9  C   UNL     1      -7.560  17.791  65.981  1.00  0.00    -0.255 A  
HETATM   10  C   UNL     1      -5.220  17.915  66.597  1.00  0.00    -0.179 A  
HETATM   11  C   UNL     1      -6.235  18.129  65.669  1.00  0.00    -0.279 A  
ENDBRANCH   4   6
BRANCH   4  12
HETATM   12  C   UNL     1      -9.837  15.623  66.790  1.00  0.00    -0.244 C  
HETATM   13  C   UNL     1      -8.729  14.558  66.552  1.00  0.00    -0.079 C  
HETATM   14  C   UNL     1      -8.274  13.959  67.887  1.00  0.00    -0.164 C  
HETATM   15  N   UNL     1      -9.344  13.256  68.607  1.00  0.00    -0.071 NA 
HETATM   16  C   UNL     1     -10.491  14.162  68.812  1.00  0.00    -0.247 C  
HETATM   17  C   UNL     1     -10.968  14.840  67.526  1.00  0.00    -0.304 C  
BRANCH  12  18
HETATM   18  C   UNL     1     -10.496  16.051  65.455  1.00  0.00    -0.392 C  
HETATM   19  O   UNL     1     -10.637  17.211  65.086  1.00  0.00    -0.695 OA 
BRANCH  18  20
HETATM   20  O   UNL     1     -10.866  14.966  64.707  1.00  0.00    -0.394 OA 
HETATM   21  C   UNL     1     -12.237  14.928  64.321  1.00  0.00    -0.344 C  
ENDBRANCH  18  20
ENDBRANCH  12  18
BRANCH  15  22
HETATM   22  C   UNL     1      -9.767  11.988  67.980  1.00  0.00    -0.198 C  
BRANCH  22  23
HETATM   23  C   UNL     1      -9.867  10.812  68.956  1.00  0.00    -0.208 C  
BRANCH  23  24
HETATM   24  C   UNL     1     -11.311  10.471  69.212  1.00  0.00    -0.262 C  
HETATM   25  O   UNL     1     -12.271  11.026  68.695  1.00  0.00    -0.571 OA 
BRANCH  24  26
HETATM   26  O   UNL     1     -11.391   9.426  70.083  1.00  0.00    -0.243 OA 
HETATM   27  C   UNL     1     -11.890   9.794  71.367  1.00  0.00    -0.408 C  
ENDBRANCH  24  26
ENDBRANCH  23  24
ENDBRANCH  22  23
ENDBRANCH  15  22
ENDBRANCH   4  12
ENDBRANCH   2   3
TORSDOF 9
ENDMDL
MODEL       35
REMARK 921   NORMALIZED FREE ENERGY PREDICTED BY IDOCK:   -5.00 KCAL/MOL
REMARK 922        TOTAL FREE ENERGY PREDICTED BY IDOCK:   -7.81 KCAL/MOL
REMARK 923 INTER-LIGAND FREE ENERGY PREDICTED BY IDOCK:   -7.44 KCAL/MOL
REMARK 924 INTRA-LIGAND FREE ENERGY PREDICTED BY IDOCK:   -0.37 KCAL/MOL
REMARK 927      BINDING AFFINITY PREDICTED BY RF-SCORE:    0.00 PKD
ROOT
HETATM    1  C   UNL     1     -11.364   9.353  71.567  1.00  0.00    -0.464 C  
HETATM    2  C   UNL     1     -10.909   8.953  70.171  1.00  0.00    -0.251 C  
ENDROOT
BRANCH   2   3
HETATM    3  C   UNL     1     -10.704  10.180  69.286  1.00  0.00    -0.231 C  
HETATM    4  N   UNL     1     -10.014  10.041  68.070  1.00  0.00    -0.146 N  
HETATM    5  O   UNL     1     -11.158  11.258  69.679  1.00  0.00    -0.249 OA 
BRANCH   4   6
HETATM    6  C   UNL     1      -9.544   8.743  67.633  1.00  0.00    -0.144 A  
HETATM    7  C   UNL     1     -10.376   7.824  66.970  1.00  0.00    -0.405 A  
HETATM    8  C   UNL     1      -9.890   6.586  66.533  1.00  0.00    -0.169 A  
HETATM    9  C   UNL     1      -8.221   8.356  67.885  1.00  0.00    -0.127 A  
HETATM   10  C   UNL     1      -8.566   6.237  66.762  1.00  0.00    -0.116 A  
HETATM   11  C   UNL     1      -7.732   7.116  67.447  1.00  0.00    -0.110 A  
ENDBRANCH   4   6
BRANCH   4  12
HETATM   12  C   UNL     1      -9.465  11.281  67.355  1.00  0.00    -0.165 C  
HETATM   13  C   UNL     1      -9.270  10.999  65.838  1.00  0.00    -0.220 C  
HETATM   14  C   UNL     1     -10.631  10.823  65.153  1.00  0.00    -0.169 C  
HETATM   15  N   UNL     1     -11.479  12.019  65.223  1.00  0.00    -0.328 NA 
HETATM   16  C   UNL     1     -11.658  12.427  66.630  1.00  0.00    -0.385 C  
HETATM   17  C   UNL     1     -10.341  12.572  67.394  1.00  0.00    -0.222 C  
BRANCH  12  18
HETATM   18  C   UNL     1      -8.134  11.721  68.015  1.00  0.00    -0.145 C  
HETATM   19  O   UNL     1      -7.841  11.531  69.190  1.00  0.00    -0.058 OA 
BRANCH  18  20
HETATM   20  O   UNL     1      -7.296  12.314  67.110  1.00  0.00    -0.148 OA 
HETATM   21  C   UNL     1      -6.729  13.555  67.523  1.00  0.00    -0.131 C  
ENDBRANCH  18  20
ENDBRANCH  12  18
BRANCH  15  22
HETATM   22  C   UNL     1     -11.009  13.147  64.393  1.00  0.00    -0.390 C  
BRANCH  22  23
HETATM   23  C   UNL     1     -11.905  14.387  64.459  1.00  0.00    -0.463 C  
BRANCH  23  24
HETATM   24  C   UNL     1     -11.067  15.622  64.664  1.00  0.00    -0.373 C  
HETATM   25  O   UNL     1     -11.327  16.733  64.225  1.00  0.00    -1.170 OA 
BRANCH  24  26
HETATM   26  O   UNL     1      -9.990  15.324  65.445  1.00  0.00    -0.347 OA 
HETATM   27  C   UNL     1      -9.572  16.407  66.272  1.00  0.00    -0.311 C  
ENDBRANCH  24  26
ENDBRANCH  23  24
ENDBRANCH  22  23
ENDBRANCH  15  22
ENDBRANCH   4  12
ENDBRANCH   2   3
TORSDOF 9
ENDMDL
MODEL       36
REMARK 921   NORMALIZED FREE ENERGY PREDICTED BY IDOCK:   -4.98 KCAL/MOL
REMARK 922        TOTAL FREE ENERGY PREDICTED BY IDOCK:   -7.79 KCAL/MOL
REMARK 923 INTER-LIGAND FREE ENERGY PREDICTED BY IDOCK:   -7.64 KCAL/MOL
REMARK 924 INTRA-LIGAND FREE ENERGY PREDICTED BY IDOCK:   -0.15 KCAL/MOL
REMARK 927      BINDING AFFINITY PREDICTED BY RF-SCORE:    0.00 PKD
ROOT
HETATM    1  C   UNL     1      -5.609   9.640  67.885  1.00  0.00    -0.040 C  
HETATM    2  C   UNL     1      -6.883   9.298  67.125  1.00  0.00    -0.084 C  
ENDROOT
BRANCH   2   3
HETATM    3  C   UNL     1      -7.764  10.532  66.943  1.00  0.00    -0.114 C  
HETATM    4  N   UNL     1      -9.143  10.433  67.192  1.00  0.00    -0.139 N  
HETATM    5  O   UNL     1      -7.223  11.579  66.580  1.00  0.00    -0.132 OA 
BRANCH   4   6
HETATM    6  C   UNL     1      -9.720   9.191  67.663  1.00  0.00    -0.159 A  
HETATM    7  C   UNL     1      -9.777   8.855  69.027  1.00  0.00    -0.171 A  
HETATM    8  C   UNL     1     -10.364   7.661  69.458  1.00  0.00    -0.217 A  
HETATM    9  C   UNL     1     -10.231   8.263  66.745  1.00  0.00    -0.375 A  
HETATM   10  C   UNL     1     -10.896   6.771  68.534  1.00  0.00    -0.280 A  
HETATM   11  C   UNL     1     -10.820   7.066  67.176  1.00  0.00    -0.427 A  
ENDBRANCH   4   6
BRANCH   4  12
HETATM   12  C   UNL     1     -10.096  11.513  66.665  1.00  0.00    -0.210 C  
HETATM   13  C   UNL     1     -11.496  11.381  67.330  1.00  0.00    -0.328 C  
HETATM   14  C   UNL     1     -11.412  11.739  68.818  1.00  0.00    -0.291 C  
HETATM   15  N   UNL     1     -10.992  13.125  69.062  1.00  0.00    -0.228 NA 
HETATM   16  C   UNL     1      -9.701  13.384  68.395  1.00  0.00    -0.201 C  
HETATM   17  C   UNL     1      -9.694  12.999  66.914  1.00  0.00    -0.238 C  
BRANCH  12  18
HETATM   18  C   UNL     1     -10.200  11.414  65.123  1.00  0.00    -0.277 C  
HETATM   19  O   UNL     1     -10.045  10.384  64.477  1.00  0.00    -0.346 OA 
BRANCH  18  20
HETATM   20  O   UNL     1     -10.533  12.618  64.564  1.00  0.00    -0.317 OA 
HETATM   21  C   UNL     1     -11.555  12.570  63.572  1.00  0.00    -0.508 C  
ENDBRANCH  18  20
ENDBRANCH  12  18
BRANCH  15  22
HETATM   22  C   UNL     1     -12.000  14.140  68.693  1.00  0.00    -0.338 C  
BRANCH  22  23
HETATM   23  C   UNL     1     -11.837  15.476  69.423  1.00  0.00    -0.392 C  
BRANCH  23  24
HETATM   24  C   UNL     1     -12.557  15.435  70.746  1.00  0.00    -0.442 C  
HETATM   25  O   UNL     1     -13.770  15.489  70.893  1.00  0.00    -0.524 OA 
BRANCH  24  26
HETATM   26  O   UNL     1     -11.654  15.293  71.758  1.00  0.00    -0.371 OA 
HETATM   27  C   UNL     1     -12.114  15.810  73.004  1.00  0.00    -0.495 C  
ENDBRANCH  24  26
ENDBRANCH  23  24
ENDBRANCH  22  23
ENDBRANCH  15  22
ENDBRANCH   4  12
ENDBRANCH   2   3
TORSDOF 9
ENDMDL
MODEL       37
REMARK 921   NORMALIZED FREE ENERGY PREDICTED BY IDOCK:   -4.96 KCAL/MOL
REMARK 922        TOTAL FREE ENERGY PREDICTED BY IDOCK:   -7.75 KCAL/MOL
REMARK 923 INTER-LIGAND FREE ENERGY PREDICTED BY IDOCK:   -7.59 KCAL/MOL
REMARK 924 INTRA-LIGAND FREE ENERGY PREDICTED BY IDOCK:   -0.16 KCAL/MOL
REMARK 927      BINDING AFFINITY PREDICTED BY RF-SCORE:    0.00 PKD
ROOT
HETATM    1  C   UNL     1      -8.606  17.605  66.716  1.00  0.00    -0.276 C  
HETATM    2  C   UNL     1     -10.102  17.411  66.919  1.00  0.00    -0.314 C  
ENDROOT
BRANCH   2   3
HETATM    3  C   UNL     1     -10.596  16.153  66.209  1.00  0.00    -0.274 C  
HETATM    4  N   UNL     1     -11.134  15.102  66.970  1.00  0.00    -0.334 N  
HETATM    5  O   UNL     1     -10.503  16.110  64.980  1.00  0.00    -0.595 OA 
BRANCH   4   6
HETATM    6  C   UNL     1     -11.265  15.224  68.407  1.00  0.00    -0.309 A  
HETATM    7  C   UNL     1     -12.514  15.341  69.043  1.00  0.00     0.079 A  
HETATM    8  C   UNL     1     -12.616  15.430  70.435  1.00  0.00    -0.433 A  
HETATM    9  C   UNL     1     -10.121  15.248  69.215  1.00  0.00    -0.252 A  
HETATM   10  C   UNL     1     -11.471  15.417  71.220  1.00  0.00    -0.444 A  
HETATM   11  C   UNL     1     -10.222  15.336  70.612  1.00  0.00     0.223 A  
ENDBRANCH   4   6
BRANCH   4  12
HETATM   12  C   UNL     1     -11.281  13.706  66.351  1.00  0.00    -0.308 C  
HETATM   13  C   UNL     1      -9.923  13.216  65.772  1.00  0.00    -0.260 C  
HETATM   14  C   UNL     1      -8.929  12.949  66.908  1.00  0.00    -0.210 C  
HETATM   15  N   UNL     1      -9.366  11.892  67.830  1.00  0.00    -0.181 NA 
HETATM   16  C   UNL     1     -10.697  12.220  68.376  1.00  0.00    -0.234 C  
HETATM   17  C   UNL     1     -11.732  12.552  67.299  1.00  0.00    -0.431 C  
BRANCH  12  18
HETATM   18  C   UNL     1     -12.378  13.731  65.257  1.00  0.00    -0.464 C  
HETATM   19  O   UNL     1     -13.528  14.118  65.429  1.00  0.00    -0.648 OA 
BRANCH  18  20
HETATM   20  O   UNL     1     -11.891  13.308  64.050  1.00  0.00    -0.409 OA 
HETATM   21  C   UNL     1     -12.565  12.190  63.477  1.00  0.00    -0.506 C  
ENDBRANCH  18  20
ENDBRANCH  12  18
BRANCH  15  22
HETATM   22  C   UNL     1      -9.343  10.533  67.252  1.00  0.00    -0.146 C  
BRANCH  22  23
HETATM   23  C   UNL     1      -8.043  10.189  66.520  1.00  0.00    -0.121 C  
BRANCH  23  24
HETATM   24  C   UNL     1      -8.331   9.286  65.349  1.00  0.00    -0.137 C  
HETATM   25  O   UNL     1      -8.634   8.104  65.424  1.00  0.00    -0.160 OA 
BRANCH  24  26
HETATM   26  O   UNL     1      -8.238   9.995  64.187  1.00  0.00    -0.145 OA 
HETATM   27  C   UNL     1      -9.504  10.303  63.609  1.00  0.00    -0.299 C  
ENDBRANCH  24  26
ENDBRANCH  23  24
ENDBRANCH  22  23
ENDBRANCH  15  22
ENDBRANCH   4  12
ENDBRANCH   2   3
TORSDOF 9
ENDMDL
MODEL       38
REMARK 921   NORMALIZED FREE ENERGY PREDICTED BY IDOCK:   -4.92 KCAL/MOL
REMARK 922        TOTAL FREE ENERGY PREDICTED BY IDOCK:   -7.70 KCAL/MOL
REMARK 923 INTER-LIGAND FREE ENERGY PREDICTED BY IDOCK:   -7.91 KCAL/MOL
REMARK 924 INTRA-LIGAND FREE ENERGY PREDICTED BY IDOCK:    0.21 KCAL/MOL
REMARK 927      BINDING AFFINITY PREDICTED BY RF-SCORE:    0.00 PKD
ROOT
HETATM    1  C   UNL     1      -5.243  18.873  67.723  1.00  0.00    -0.170 C  
HETATM    2  C   UNL     1      -6.173  18.414  66.610  1.00  0.00    -0.201 C  
ENDROOT
BRANCH   2   3
HETATM    3  C   UNL     1      -6.673  16.992  66.860  1.00  0.00    -0.217 C  
HETATM    4  N   UNL     1      -7.992  16.797  67.301  1.00  0.00    -0.165 N  
HETATM    5  O   UNL     1      -5.888  16.062  66.662  1.00  0.00    -0.178 OA 
BRANCH   4   6
HETATM    6  C   UNL     1      -8.888  17.922  67.471  1.00  0.00    -0.248 A  
HETATM    7  C   UNL     1      -9.599  18.488  66.398  1.00  0.00    -0.322 A  
HETATM    8  C   UNL     1     -10.479  19.558  66.593  1.00  0.00    -0.593 A  
HETATM    9  C   UNL     1      -9.055  18.499  68.737  1.00  0.00    -0.283 A  
HETATM   10  C   UNL     1     -10.657  20.092  67.863  1.00  0.00    -0.379 A  
HETATM   11  C   UNL     1      -9.938  19.571  68.934  1.00  0.00    -0.529 A  
ENDBRANCH   4   6
BRANCH   4  12
HETATM   12  C   UNL     1      -8.402  15.453  67.917  1.00  0.00    -0.144 C  
HETATM   13  C   UNL     1      -9.835  15.539  68.516  1.00  0.00    -0.202 C  
HETATM   14  C   UNL     1     -10.869  15.696  67.395  1.00  0.00    -0.315 C  
HETATM   15  N   UNL     1     -10.901  14.559  66.466  1.00  0.00    -0.308 NA 
HETATM   16  C   UNL     1      -9.556  14.334  65.901  1.00  0.00    -0.196 C  
HETATM   17  C   UNL     1      -8.461  14.221  66.962  1.00  0.00    -0.190 C  
BRANCH  12  18
HETATM   18  C   UNL     1      -7.371  15.034  68.995  1.00  0.00    -0.151 C  
HETATM   19  O   UNL     1      -6.883  13.914  69.096  1.00  0.00    -0.109 OA 
BRANCH  18  20
HETATM   20  O   UNL     1      -7.033  16.086  69.802  1.00  0.00    -0.172 OA 
HETATM   21  C   UNL     1      -5.660  16.152  70.177  1.00  0.00    -0.170 C  
ENDBRANCH  18  20
ENDBRANCH  12  18
BRANCH  15  22
HETATM   22  C   UNL     1     -11.454  13.317  67.044  1.00  0.00    -0.339 C  
BRANCH  22  23
HETATM   23  C   UNL     1     -11.333  12.095  66.130  1.00  0.00    -0.414 C  
BRANCH  23  24
HETATM   24  C   UNL     1     -12.175  12.285  64.896  1.00  0.00    -0.339 C  
HETATM   25  O   UNL     1     -13.281  12.806  64.868  1.00  0.00    -0.808 OA 
BRANCH  24  26
HETATM   26  O   UNL     1     -11.504  11.819  63.804  1.00  0.00    -0.397 OA 
HETATM   27  C   UNL     1     -10.326  11.087  64.132  1.00  0.00    -0.369 C  
ENDBRANCH  24  26
ENDBRANCH  23  24
ENDBRANCH  22  23
ENDBRANCH  15  22
ENDBRANCH   4  12
ENDBRANCH   2   3
TORSDOF 9
ENDMDL
MODEL       39
REMARK 921   NORMALIZED FREE ENERGY PREDICTED BY IDOCK:   -4.92 KCAL/MOL
REMARK 922        TOTAL FREE ENERGY PREDICTED BY IDOCK:   -7.70 KCAL/MOL
REMARK 923 INTER-LIGAND FREE ENERGY PREDICTED BY IDOCK:   -7.52 KCAL/MOL
REMARK 924 INTRA-LIGAND FREE ENERGY PREDICTED BY IDOCK:   -0.18 KCAL/MOL
REMARK 927      BINDING AFFINITY PREDICTED BY RF-SCORE:    0.00 PKD
ROOT
HETATM    1  C   UNL     1     -12.255  12.584  65.023  1.00  0.00    -0.519 C  
HETATM    2  C   UNL     1     -10.860  13.171  64.866  1.00  0.00    -0.348 C  
ENDROOT
BRANCH   2   3
HETATM    3  C   UNL     1     -10.718  14.475  65.648  1.00  0.00    -0.327 C  
HETATM    4  N   UNL     1     -10.035  14.467  66.875  1.00  0.00    -0.254 N  
HETATM    5  O   UNL     1     -11.217  15.495  65.165  1.00  0.00    -0.358 OA 
BRANCH   4   6
HETATM    6  C   UNL     1      -9.426  13.251  67.373  1.00  0.00    -0.218 A  
HETATM    7  C   UNL     1      -8.089  12.911  67.101  1.00  0.00    -0.122 A  
HETATM    8  C   UNL     1      -7.516  11.743  67.617  1.00  0.00    -0.123 A  
HETATM    9  C   UNL     1     -10.180  12.354  68.141  1.00  0.00    -0.225 A  
HETATM   10  C   UNL     1      -8.272  10.885  68.405  1.00  0.00    -0.133 A  
HETATM   11  C   UNL     1      -9.607  11.184  68.659  1.00  0.00    -0.200 A  
ENDBRANCH   4   6
BRANCH   4  12
HETATM   12  C   UNL     1     -10.199  15.640  67.850  1.00  0.00    -0.239 C  
HETATM   13  C   UNL     1      -8.999  15.704  68.838  1.00  0.00    -0.221 C  
HETATM   14  C   UNL     1      -7.719  16.098  68.091  1.00  0.00    -0.141 C  
HETATM   15  N   UNL     1      -7.790  17.428  67.473  1.00  0.00    -0.194 NA 
HETATM   16  C   UNL     1      -8.956  17.504  66.573  1.00  0.00    -0.261 C  
HETATM   17  C   UNL     1     -10.265  17.072  67.236  1.00  0.00    -0.310 C  
BRANCH  12  18
HETATM   18  C   UNL     1     -11.541  15.504  68.612  1.00  0.00    -0.368 C  
HETATM   19  O   UNL     1     -12.496  14.837  68.231  1.00  0.00     0.003 OA 
BRANCH  18  20
HETATM   20  O   UNL     1     -11.517  16.188  69.797  1.00  0.00    -0.321 OA 
HETATM   21  C   UNL     1     -12.311  15.630  70.841  1.00  0.00    -0.429 C  
ENDBRANCH  18  20
ENDBRANCH  12  18
BRANCH  15  22
HETATM   22  C   UNL     1      -7.783  18.547  68.438  1.00  0.00    -0.298 C  
BRANCH  22  23
HETATM   23  C   UNL     1      -6.484  18.673  69.238  1.00  0.00    -0.289 C  
BRANCH  23  24
HETATM   24  C   UNL     1      -6.195  20.122  69.534  1.00  0.00    -0.335 C  
HETATM   25  O   UNL     1      -5.888  20.966  68.704  1.00  0.00    -0.329 OA 
BRANCH  24  26
HETATM   26  O   UNL     1      -6.362  20.362  70.866  1.00  0.00    -0.551 OA 
HETATM   27  C   UNL     1      -5.324  19.815  71.675  1.00  0.00    -0.409 C  
ENDBRANCH  24  26
ENDBRANCH  23  24
ENDBRANCH  22  23
ENDBRANCH  15  22
ENDBRANCH   4  12
ENDBRANCH   2   3
TORSDOF 9
ENDMDL
MODEL       40
REMARK 921   NORMALIZED FREE ENERGY PREDICTED BY IDOCK:   -4.91 KCAL/MOL
REMARK 922        TOTAL FREE ENERGY PREDICTED BY IDOCK:   -7.68 KCAL/MOL
REMARK 923 INTER-LIGAND FREE ENERGY PREDICTED BY IDOCK:   -7.52 KCAL/MOL
REMARK 924 INTRA-LIGAND FREE ENERGY PREDICTED BY IDOCK:   -0.16 KCAL/MOL
REMARK 927      BINDING AFFINITY PREDICTED BY RF-SCORE:    0.00 PKD
ROOT
HETATM    1  C   UNL     1      -9.894  16.090  66.746  1.00  0.00    -0.260 C  
HETATM    2  C   UNL     1      -9.319  14.765  66.267  1.00  0.00    -0.310 C  
ENDROOT
BRANCH   2   3
HETATM    3  C   UNL     1      -9.428  13.693  67.348  1.00  0.00    -0.225 C  
HETATM    4  N   UNL     1     -10.240  12.570  67.121  1.00  0.00    -0.217 N  
HETATM    5  O   UNL     1      -8.791  13.859  68.392  1.00  0.00    -0.184 OA 
BRANCH   4   6
HETATM    6  C   UNL     1     -10.928  12.400  65.858  1.00  0.00    -0.288 A  
HETATM    7  C   UNL     1     -12.258  12.813  65.663  1.00  0.00    -0.503 A  
HETATM    8  C   UNL     1     -12.892  12.662  64.424  1.00  0.00    -0.344 A  
HETATM    9  C   UNL     1     -10.274  11.788  64.780  1.00  0.00    -0.324 A  
HETATM   10  C   UNL     1     -12.213  12.085  63.359  1.00  0.00    -0.627 A  
HETATM   11  C   UNL     1     -10.908  11.637  63.538  1.00  0.00    -0.497 A  
ENDBRANCH   4   6
BRANCH   4  12
HETATM   12  C   UNL     1     -10.670  11.685  68.297  1.00  0.00    -0.213 C  
HETATM   13  C   UNL     1     -11.309  10.363  67.784  1.00  0.00    -0.205 C  
HETATM   14  C   UNL     1     -10.246   9.488  67.110  1.00  0.00    -0.242 C  
HETATM   15  N   UNL     1      -9.168   9.075  68.018  1.00  0.00    -0.135 NA 
HETATM   16  C   UNL     1      -8.545  10.264  68.632  1.00  0.00    -0.128 C  
HETATM   17  C   UNL     1      -9.553  11.214  69.279  1.00  0.00     0.066 C  
BRANCH  12  18
HETATM   18  C   UNL     1     -11.654  12.464  69.206  1.00  0.00    -0.319 C  
HETATM   19  O   UNL     1     -12.091  13.583  68.965  1.00  0.00    -0.341 OA 
BRANCH  18  20
HETATM   20  O   UNL     1     -12.017  11.727  70.300  1.00  0.00    -0.340 OA 
HETATM   21  C   UNL     1     -12.764  12.429  71.291  1.00  0.00    -0.248 C  
ENDBRANCH  18  20
ENDBRANCH  12  18
BRANCH  15  22
HETATM   22  C   UNL     1      -9.579   8.095  69.044  1.00  0.00    -0.156 C  
BRANCH  22  23
HETATM   23  C   UNL     1     -10.474   6.973  68.512  1.00  0.00    -0.226 C  
BRANCH  23  24
HETATM   24  C   UNL     1     -11.140   6.253  69.656  1.00  0.00    -0.412 C  
HETATM   25  O   UNL     1     -12.111   6.660  70.278  1.00  0.00    -0.350 OA 
BRANCH  24  26
HETATM   26  O   UNL     1     -10.518   5.059  69.873  1.00  0.00    -0.280 OA 
HETATM   27  C   UNL     1     -10.031   4.909  71.205  1.00  0.00    -0.208 C  
ENDBRANCH  24  26
ENDBRANCH  23  24
ENDBRANCH  22  23
ENDBRANCH  15  22
ENDBRANCH   4  12
ENDBRANCH   2   3
TORSDOF 9
ENDMDL
MODEL       41
REMARK 921   NORMALIZED FREE ENERGY PREDICTED BY IDOCK:   -4.90 KCAL/MOL
REMARK 922        TOTAL FREE ENERGY PREDICTED BY IDOCK:   -7.67 KCAL/MOL
REMARK 923 INTER-LIGAND FREE ENERGY PREDICTED BY IDOCK:   -7.76 KCAL/MOL
REMARK 924 INTRA-LIGAND FREE ENERGY PREDICTED BY IDOCK:    0.10 KCAL/MOL
REMARK 927      BINDING AFFINITY PREDICTED BY RF-SCORE:    0.00 PKD
ROOT
HETATM    1  C   UNL     1      -7.933  10.109  67.311  1.00  0.00    -0.110 C  
HETATM    2  C   UNL     1      -8.491  11.276  66.509  1.00  0.00    -0.171 C  
ENDROOT
BRANCH   2   3
HETATM    3  C   UNL     1      -8.896  12.430  67.423  1.00  0.00    -0.188 C  
HETATM    4  N   UNL     1      -9.964  13.261  67.047  1.00  0.00    -0.234 N  
HETATM    5  O   UNL     1      -8.261  12.587  68.469  1.00  0.00    -0.147 OA 
BRANCH   4   6
HETATM    6  C   UNL     1     -10.708  13.002  65.831  1.00  0.00    -0.276 A  
HETATM    7  C   UNL     1     -10.089  12.924  64.571  1.00  0.00    -0.259 A  
HETATM    8  C   UNL     1     -10.827  12.645  63.415  1.00  0.00    -0.265 A  
HETATM    9  C   UNL     1     -12.098  12.838  65.883  1.00  0.00    -0.485 A  
HETATM   10  C   UNL     1     -12.200  12.451  63.493  1.00  0.00    -0.661 A  
HETATM   11  C   UNL     1     -12.839  12.558  64.725  1.00  0.00    -0.287 A  
ENDBRANCH   4   6
BRANCH   4  12
HETATM   12  C   UNL     1     -10.150  14.624  67.725  1.00  0.00    -0.228 C  
HETATM   13  C   UNL     1      -8.776  15.318  67.946  1.00  0.00    -0.164 C  
HETATM   14  C   UNL     1      -8.164  15.723  66.600  1.00  0.00    -0.270 C  
HETATM   15  N   UNL     1      -8.979  16.692  65.856  1.00  0.00    -0.505 NA 
HETATM   16  C   UNL     1     -10.342  16.162  65.665  1.00  0.00    -0.382 C  
HETATM   17  C   UNL     1     -10.998  15.688  66.962  1.00  0.00    -0.261 C  
BRANCH  12  18
HETATM   18  C   UNL     1     -10.906  14.443  69.065  1.00  0.00    -0.252 C  
HETATM   19  O   UNL     1     -11.492  13.422  69.405  1.00  0.00    -0.272 OA 
BRANCH  18  20
HETATM   20  O   UNL     1     -10.802  15.557  69.854  1.00  0.00    -0.255 OA 
HETATM   21  C   UNL     1     -11.744  15.641  70.920  1.00  0.00    -0.387 C  
ENDBRANCH  18  20
ENDBRANCH  12  18
BRANCH  15  22
HETATM   22  C   UNL     1      -9.006  18.044  66.449  1.00  0.00    -0.230 C  
BRANCH  22  23
HETATM   23  C   UNL     1      -7.640  18.546  66.924  1.00  0.00    -0.235 C  
BRANCH  23  24
HETATM   24  C   UNL     1      -7.400  19.947  66.425  1.00  0.00    -0.272 C  
HETATM   25  O   UNL     1      -7.425  20.958  67.114  1.00  0.00    -0.339 OA 
BRANCH  24  26
HETATM   26  O   UNL     1      -7.114  19.919  65.092  1.00  0.00    -0.348 OA 
HETATM   27  C   UNL     1      -6.004  19.086  64.767  1.00  0.00    -0.281 C  
ENDBRANCH  24  26
ENDBRANCH  23  24
ENDBRANCH  22  23
ENDBRANCH  15  22
ENDBRANCH   4  12
ENDBRANCH   2   3
TORSDOF 9
ENDMDL
MODEL       42
REMARK 921   NORMALIZED FREE ENERGY PREDICTED BY IDOCK:   -4.90 KCAL/MOL
REMARK 922        TOTAL FREE ENERGY PREDICTED BY IDOCK:   -7.66 KCAL/MOL
REMARK 923 INTER-LIGAND FREE ENERGY PREDICTED BY IDOCK:   -7.73 KCAL/MOL
REMARK 924 INTRA-LIGAND FREE ENERGY PREDICTED BY IDOCK:    0.07 KCAL/MOL
REMARK 927      BINDING AFFINITY PREDICTED BY RF-SCORE:    0.00 PKD
ROOT
HETATM    1  C   UNL     1      -8.522  17.242  66.554  1.00  0.00    -0.306 C  
HETATM    2  C   UNL     1     -10.018  17.100  66.793  1.00  0.00    -0.291 C  
ENDROOT
BRANCH   2   3
HETATM    3  C   UNL     1     -10.544  15.783  66.227  1.00  0.00    -0.310 C  
HETATM    4  N   UNL     1     -11.148  14.857  67.093  1.00  0.00    -0.324 N  
HETATM    5  O   UNL     1     -10.416  15.583  65.016  1.00  0.00    -0.404 OA 
BRANCH   4   6
HETATM    6  C   UNL     1     -11.317  15.162  68.499  1.00  0.00    -0.309 A  
HETATM    7  C   UNL     1     -10.227  15.383  69.359  1.00  0.00    -0.262 A  
HETATM    8  C   UNL     1     -10.418  15.703  70.707  1.00  0.00     0.091 A  
HETATM    9  C   UNL     1     -12.603  15.228  69.051  1.00  0.00     0.243 A  
HETATM   10  C   UNL     1     -11.702  15.798  71.226  1.00  0.00    -0.496 A  
HETATM   11  C   UNL     1     -12.796  15.550  70.403  1.00  0.00    -0.327 A  
ENDBRANCH   4   6
BRANCH   4  12
HETATM   12  C   UNL     1     -11.336  13.401  66.647  1.00  0.00    -0.323 C  
HETATM   13  C   UNL     1      -9.990  12.802  66.147  1.00  0.00    -0.272 C  
HETATM   14  C   UNL     1      -9.013  12.645  67.318  1.00  0.00    -0.194 C  
HETATM   15  N   UNL     1      -9.490  11.723  68.357  1.00  0.00    -0.195 NA 
HETATM   16  C   UNL     1     -10.814  12.156  68.844  1.00  0.00    -0.200 C  
HETATM   17  C   UNL     1     -11.829  12.386  67.724  1.00  0.00    -0.362 C  
BRANCH  12  18
HETATM   18  C   UNL     1     -12.423  13.327  65.546  1.00  0.00    -0.474 C  
HETATM   19  O   UNL     1     -13.332  14.137  65.406  1.00  0.00    -0.705 OA 
BRANCH  18  20
HETATM   20  O   UNL     1     -12.220  12.261  64.712  1.00  0.00    -0.413 OA 
HETATM   21  C   UNL     1     -12.008  12.590  63.341  1.00  0.00    -0.514 C  
ENDBRANCH  18  20
ENDBRANCH  12  18
BRANCH  15  22
HETATM   22  C   UNL     1      -9.506  10.304  67.949  1.00  0.00    -0.141 C  
BRANCH  22  23
HETATM   23  C   UNL     1      -8.946   9.344  69.002  1.00  0.00    -0.141 C  
BRANCH  23  24
HETATM   24  C   UNL     1     -10.061   8.810  69.862  1.00  0.00    -0.191 C  
HETATM   25  O   UNL     1     -10.746   7.829  69.604  1.00  0.00    -0.243 OA 
BRANCH  24  26
HETATM   26  O   UNL     1     -10.173   9.562  70.994  1.00  0.00    -0.297 OA 
HETATM   27  C   UNL     1     -11.522   9.781  71.398  1.00  0.00    -0.365 C  
ENDBRANCH  24  26
ENDBRANCH  23  24
ENDBRANCH  22  23
ENDBRANCH  15  22
ENDBRANCH   4  12
ENDBRANCH   2   3
TORSDOF 9
ENDMDL
MODEL       43
REMARK 921   NORMALIZED FREE ENERGY PREDICTED BY IDOCK:   -4.89 KCAL/MOL
REMARK 922        TOTAL FREE ENERGY PREDICTED BY IDOCK:   -7.65 KCAL/MOL
REMARK 923 INTER-LIGAND FREE ENERGY PREDICTED BY IDOCK:   -7.98 KCAL/MOL
REMARK 924 INTRA-LIGAND FREE ENERGY PREDICTED BY IDOCK:    0.34 KCAL/MOL
REMARK 927      BINDING AFFINITY PREDICTED BY RF-SCORE:    0.00 PKD
ROOT
HETATM    1  C   UNL     1     -12.286  13.234  70.524  1.00  0.00    -0.389 C  
HETATM    2  C   UNL     1     -11.588  12.906  69.212  1.00  0.00    -0.368 C  
ENDROOT
BRANCH   2   3
HETATM    3  C   UNL     1     -11.565  14.116  68.282  1.00  0.00    -0.321 C  
HETATM    4  N   UNL     1     -10.625  14.162  67.239  1.00  0.00    -0.275 N  
HETATM    5  O   UNL     1     -12.383  15.017  68.486  1.00  0.00    -0.086 OA 
BRANCH   4   6
HETATM    6  C   UNL     1      -9.719  13.055  67.013  1.00  0.00    -0.235 A  
HETATM    7  C   UNL     1      -8.616  12.801  67.846  1.00  0.00    -0.181 A  
HETATM    8  C   UNL     1      -7.771  11.708  67.622  1.00  0.00    -0.133 A  
HETATM    9  C   UNL     1      -9.916  12.202  65.919  1.00  0.00    -0.267 A  
HETATM   10  C   UNL     1      -8.005  10.854  66.552  1.00  0.00    -0.152 A  
HETATM   11  C   UNL     1      -9.070  11.105  65.693  1.00  0.00    -0.221 A  
ENDBRANCH   4   6
BRANCH   4  12
HETATM   12  C   UNL     1     -10.320  15.493  66.541  1.00  0.00    -0.288 C  
HETATM   13  C   UNL     1     -10.511  16.684  67.522  1.00  0.00    -0.317 C  
HETATM   14  C   UNL     1      -9.433  16.651  68.612  1.00  0.00    -0.249 C  
HETATM   15  N   UNL     1      -8.069  16.791  68.088  1.00  0.00    -0.191 NA 
HETATM   16  C   UNL     1      -7.810  15.750  67.075  1.00  0.00    -0.236 C  
HETATM   17  C   UNL     1      -8.877  15.688  65.980  1.00  0.00    -0.209 C  
BRANCH  12  18
HETATM   18  C   UNL     1     -11.223  15.649  65.292  1.00  0.00    -0.234 C  
HETATM   19  O   UNL     1     -11.090  16.518  64.437  1.00  0.00    -0.894 OA 
BRANCH  18  20
HETATM   20  O   UNL     1     -12.170  14.664  65.231  1.00  0.00    -0.336 OA 
HETATM   21  C   UNL     1     -12.304  14.021  63.966  1.00  0.00    -0.298 C  
ENDBRANCH  18  20
ENDBRANCH  12  18
BRANCH  15  22
HETATM   22  C   UNL     1      -7.752  18.137  67.568  1.00  0.00    -0.218 C  
BRANCH  22  23
HETATM   23  C   UNL     1      -8.294  19.281  68.429  1.00  0.00    -0.383 C  
BRANCH  23  24
HETATM   24  C   UNL     1      -8.504  20.511  67.585  1.00  0.00    -0.173 C  
HETATM   25  O   UNL     1      -7.627  21.291  67.240  1.00  0.00    -0.408 OA 
BRANCH  24  26
HETATM   26  O   UNL     1      -9.817  20.608  67.230  1.00  0.00    -0.471 OA 
HETATM   27  C   UNL     1     -10.113  19.996  65.977  1.00  0.00    -0.450 C  
ENDBRANCH  24  26
ENDBRANCH  23  24
ENDBRANCH  22  23
ENDBRANCH  15  22
ENDBRANCH   4  12
ENDBRANCH   2   3
TORSDOF 9
ENDMDL
MODEL       44
REMARK 921   NORMALIZED FREE ENERGY PREDICTED BY IDOCK:   -4.88 KCAL/MOL
REMARK 922        TOTAL FREE ENERGY PREDICTED BY IDOCK:   -7.64 KCAL/MOL
REMARK 923 INTER-LIGAND FREE ENERGY PREDICTED BY IDOCK:   -7.47 KCAL/MOL
REMARK 924 INTRA-LIGAND FREE ENERGY PREDICTED BY IDOCK:   -0.17 KCAL/MOL
REMARK 927      BINDING AFFINITY PREDICTED BY RF-SCORE:    0.00 PKD
ROOT
HETATM    1  C   UNL     1     -11.634  15.818  71.457  1.00  0.00    -0.531 C  
HETATM    2  C   UNL     1     -12.258  15.820  70.069  1.00  0.00    -0.309 C  
ENDROOT
BRANCH   2   3
HETATM    3  C   UNL     1     -11.830  14.591  69.270  1.00  0.00    -0.323 C  
HETATM    4  N   UNL     1     -10.829  14.721  68.294  1.00  0.00    -0.243 N  
HETATM    5  O   UNL     1     -12.389  13.519  69.517  1.00  0.00    -0.268 OA 
BRANCH   4   6
HETATM    6  C   UNL     1     -10.171  15.993  68.077  1.00  0.00    -0.245 A  
HETATM    7  C   UNL     1      -9.012  16.371  68.778  1.00  0.00    -0.245 A  
HETATM    8  C   UNL     1      -8.380  17.595  68.531  1.00  0.00    -0.291 A  
HETATM    9  C   UNL     1     -10.698  16.906  67.155  1.00  0.00    -0.180 A  
HETATM   10  C   UNL     1      -8.900  18.470  67.587  1.00  0.00    -0.284 A  
HETATM   11  C   UNL     1     -10.065  18.132  66.905  1.00  0.00    -0.362 A  
ENDBRANCH   4   6
BRANCH   4  12
HETATM   12  C   UNL     1     -10.647  13.629  67.233  1.00  0.00    -0.267 C  
HETATM   13  C   UNL     1      -9.150  13.498  66.832  1.00  0.00    -0.246 C  
HETATM   14  C   UNL     1      -8.335  12.934  68.001  1.00  0.00    -0.169 C  
HETATM   15  N   UNL     1      -8.752  11.585  68.406  1.00  0.00    -0.158 NA 
HETATM   16  C   UNL     1     -10.191  11.578  68.729  1.00  0.00    -0.192 C  
HETATM   17  C   UNL     1     -11.065  12.178  67.626  1.00  0.00    -0.320 C  
BRANCH  12  18
HETATM   18  C   UNL     1     -11.529  13.944  65.999  1.00  0.00    -0.340 C  
HETATM   19  O   UNL     1     -12.733  14.171  66.041  1.00  0.00    -0.469 OA 
BRANCH  18  20
HETATM   20  O   UNL     1     -10.788  13.983  64.849  1.00  0.00    -0.364 OA 
HETATM   21  C   UNL     1     -11.125  13.003  63.871  1.00  0.00    -0.371 C  
ENDBRANCH  18  20
ENDBRANCH  12  18
BRANCH  15  22
HETATM   22  C   UNL     1      -8.416  10.527  67.431  1.00  0.00    -0.122 C  
BRANCH  22  23
HETATM   23  C   UNL     1      -9.030   9.162  67.754  1.00  0.00    -0.132 C  
BRANCH  23  24
HETATM   24  C   UNL     1      -9.839   8.667  66.584  1.00  0.00    -0.266 C  
HETATM   25  O   UNL     1      -9.660   8.983  65.416  1.00  0.00    -0.191 OA 
BRANCH  24  26
HETATM   26  O   UNL     1     -10.782   7.783  67.017  1.00  0.00    -0.347 OA 
HETATM   27  C   UNL     1     -10.458   6.424  66.733  1.00  0.00    -0.234 C  
ENDBRANCH  24  26
ENDBRANCH  23  24
ENDBRANCH  22  23
ENDBRANCH  15  22
ENDBRANCH   4  12
ENDBRANCH   2   3
TORSDOF 9
ENDMDL
MODEL       45
REMARK 921   NORMALIZED FREE ENERGY PREDICTED BY IDOCK:   -4.84 KCAL/MOL
REMARK 922        TOTAL FREE ENERGY PREDICTED BY IDOCK:   -7.57 KCAL/MOL
REMARK 923 INTER-LIGAND FREE ENERGY PREDICTED BY IDOCK:   -7.25 KCAL/MOL
REMARK 924 INTRA-LIGAND FREE ENERGY PREDICTED BY IDOCK:   -0.32 KCAL/MOL
REMARK 927      BINDING AFFINITY PREDICTED BY RF-SCORE:    0.00 PKD
ROOT
HETATM    1  C   UNL     1      -6.064   7.907  70.564  1.00  0.00    -0.033 C  
HETATM    2  C   UNL     1      -7.541   8.241  70.415  1.00  0.00    -0.075 C  
ENDROOT
BRANCH   2   3
HETATM    3  C   UNL     1      -7.914   8.454  68.950  1.00  0.00    -0.115 C  
HETATM    4  N   UNL     1      -9.256   8.691  68.612  1.00  0.00    -0.139 N  
HETATM    5  O   UNL     1      -7.010   8.410  68.112  1.00  0.00    -0.077 OA 
BRANCH   4   6
HETATM    6  C   UNL     1     -10.272   8.782  69.640  1.00  0.00    -0.210 A  
HETATM    7  C   UNL     1     -10.976   7.658  70.107  1.00  0.00    -0.255 A  
HETATM    8  C   UNL     1     -11.934   7.769  71.121  1.00  0.00    -0.312 A  
HETATM    9  C   UNL     1     -10.598  10.028  70.194  1.00  0.00    -0.350 A  
HETATM   10  C   UNL     1     -12.216   9.008  71.681  1.00  0.00    -0.418 A  
HETATM   11  C   UNL     1     -11.557  10.140  71.211  1.00  0.00    -0.387 A  
ENDBRANCH   4   6
BRANCH   4  12
HETATM   12  C   UNL     1      -9.719   8.532  67.158  1.00  0.00    -0.192 C  
HETATM   13  C   UNL     1     -11.009   9.362  66.899  1.00  0.00     0.102 C  
HETATM   14  C   UNL     1     -10.694  10.862  66.962  1.00  0.00    -0.271 C  
HETATM   15  N   UNL     1      -9.734  11.300  65.941  1.00  0.00    -0.215 NA 
HETATM   16  C   UNL     1      -8.493  10.508  66.045  1.00  0.00    -0.156 C  
HETATM   17  C   UNL     1      -8.734   8.998  66.042  1.00  0.00    -0.184 C  
BRANCH  12  18
HETATM   18  C   UNL     1      -9.949   7.032  66.843  1.00  0.00    -0.217 C  
HETATM   19  O   UNL     1     -11.003   6.434  67.025  1.00  0.00    -0.365 OA 
BRANCH  18  20
HETATM   20  O   UNL     1      -8.837   6.460  66.288  1.00  0.00    -0.137 OA 
HETATM   21  C   UNL     1      -8.443   5.214  66.856  1.00  0.00    -0.106 C  
ENDBRANCH  18  20
ENDBRANCH  12  18
BRANCH  15  22
HETATM   22  C   UNL     1     -10.264  11.289  64.563  1.00  0.00    -0.314 C  
BRANCH  22  23
HETATM   23  C   UNL     1     -10.612  12.677  64.017  1.00  0.00    -0.457 C  
BRANCH  23  24
HETATM   24  C   UNL     1     -12.098  12.791  63.800  1.00  0.00    -0.517 C  
HETATM   25  O   UNL     1     -12.813  11.921  63.323  1.00  0.00    -0.702 OA 
BRANCH  24  26
HETATM   26  O   UNL     1     -12.537  14.002  64.248  1.00  0.00    -0.670 OA 
HETATM   27  C   UNL     1     -12.711  14.054  65.662  1.00  0.00    -0.481 C  
ENDBRANCH  24  26
ENDBRANCH  23  24
ENDBRANCH  22  23
ENDBRANCH  15  22
ENDBRANCH   4  12
ENDBRANCH   2   3
TORSDOF 9
ENDMDL
MODEL       46
REMARK 921   NORMALIZED FREE ENERGY PREDICTED BY IDOCK:   -4.84 KCAL/MOL
REMARK 922        TOTAL FREE ENERGY PREDICTED BY IDOCK:   -7.57 KCAL/MOL
REMARK 923 INTER-LIGAND FREE ENERGY PREDICTED BY IDOCK:   -7.34 KCAL/MOL
REMARK 924 INTRA-LIGAND FREE ENERGY PREDICTED BY IDOCK:   -0.23 KCAL/MOL
REMARK 927      BINDING AFFINITY PREDICTED BY RF-SCORE:    0.00 PKD
ROOT
HETATM    1  C   UNL     1      -9.858  11.099  63.316  1.00  0.00    -0.415 C  
HETATM    2  C   UNL     1     -10.230  10.670  64.728  1.00  0.00    -0.401 C  
ENDROOT
BRANCH   2   3
HETATM    3  C   UNL     1     -10.748  11.852  65.544  1.00  0.00    -0.283 C  
HETATM    4  N   UNL     1     -10.090  12.204  66.735  1.00  0.00    -0.199 N  
HETATM    5  O   UNL     1     -11.736  12.457  65.121  1.00  0.00    -0.355 OA 
BRANCH   4   6
HETATM    6  C   UNL     1      -8.905  11.490  67.161  1.00  0.00    -0.168 A  
HETATM    7  C   UNL     1      -7.617  11.827  66.708  1.00  0.00    -0.072 A  
HETATM    8  C   UNL     1      -6.485  11.139  67.157  1.00  0.00    -0.090 A  
HETATM    9  C   UNL     1      -9.019  10.406  68.042  1.00  0.00    -0.129 A  
HETATM   10  C   UNL     1      -6.618  10.090  68.058  1.00  0.00    -0.063 A  
HETATM   11  C   UNL     1      -7.885   9.715  68.493  1.00  0.00    -0.085 A  
ENDBRANCH   4   6
BRANCH   4  12
HETATM   12  C   UNL     1     -10.787  13.113  67.755  1.00  0.00    -0.244 C  
HETATM   13  C   UNL     1      -9.739  13.857  68.631  1.00  0.00    -0.160 C  
HETATM   14  C   UNL     1      -8.968  14.875  67.784  1.00  0.00    -0.177 C  
HETATM   15  N   UNL     1      -9.820  15.927  67.215  1.00  0.00    -0.232 NA 
HETATM   16  C   UNL     1     -10.909  15.320  66.426  1.00  0.00    -0.317 C  
HETATM   17  C   UNL     1     -11.692  14.252  67.192  1.00  0.00    -0.430 C  
BRANCH  12  18
HETATM   18  C   UNL     1     -11.752  12.275  68.630  1.00  0.00    -0.328 C  
HETATM   19  O   UNL     1     -12.306  11.243  68.268  1.00  0.00    -0.542 OA 
BRANCH  18  20
HETATM   20  O   UNL     1     -11.880  12.805  69.885  1.00  0.00    -0.324 OA 
HETATM   21  C   UNL     1     -12.387  11.916  70.876  1.00  0.00    -0.300 C  
ENDBRANCH  18  20
ENDBRANCH  12  18
BRANCH  15  22
HETATM   22  C   UNL     1     -10.346  16.886  68.207  1.00  0.00    -0.335 C  
BRANCH  22  23
HETATM   23  C   UNL     1     -10.701  18.257  67.624  1.00  0.00    -0.373 C  
BRANCH  23  24
HETATM   24  C   UNL     1      -9.482  19.142  67.601  1.00  0.00    -0.304 C  
HETATM   25  O   UNL     1      -8.874  19.533  68.587  1.00  0.00    -0.367 OA 
BRANCH  24  26
HETATM   26  O   UNL     1      -9.134  19.415  66.311  1.00  0.00    -0.346 OA 
HETATM   27  C   UNL     1      -7.725  19.466  66.103  1.00  0.00    -0.303 C  
ENDBRANCH  24  26
ENDBRANCH  23  24
ENDBRANCH  22  23
ENDBRANCH  15  22
ENDBRANCH   4  12
ENDBRANCH   2   3
TORSDOF 9
ENDMDL
MODEL       47
REMARK 921   NORMALIZED FREE ENERGY PREDICTED BY IDOCK:   -4.82 KCAL/MOL
REMARK 922        TOTAL FREE ENERGY PREDICTED BY IDOCK:   -7.54 KCAL/MOL
REMARK 923 INTER-LIGAND FREE ENERGY PREDICTED BY IDOCK:   -8.09 KCAL/MOL
REMARK 924 INTRA-LIGAND FREE ENERGY PREDICTED BY IDOCK:    0.55 KCAL/MOL
REMARK 927      BINDING AFFINITY PREDICTED BY RF-SCORE:    0.00 PKD
ROOT
HETATM    1  C   UNL     1      -7.139  11.134  68.963  1.00  0.00    -0.113 C  
HETATM    2  C   UNL     1      -8.632  11.151  68.669  1.00  0.00    -0.151 C  
ENDROOT
BRANCH   2   3
HETATM    3  C   UNL     1      -9.003  12.329  67.771  1.00  0.00    -0.177 C  
HETATM    4  N   UNL     1     -10.242  12.965  67.951  1.00  0.00    -0.227 N  
HETATM    5  O   UNL     1      -8.190  12.679  66.912  1.00  0.00    -0.145 OA 
BRANCH   4   6
HETATM    6  C   UNL     1     -11.140  12.546  69.008  1.00  0.00    -0.234 A  
HETATM    7  C   UNL     1     -11.537  13.407  70.046  1.00  0.00    -0.219 A  
HETATM    8  C   UNL     1     -12.427  12.985  71.040  1.00  0.00    -0.385 A  
HETATM    9  C   UNL     1     -11.631  11.234  69.030  1.00  0.00    -0.386 A  
HETATM   10  C   UNL     1     -12.929  11.691  71.023  1.00  0.00    -0.227 A  
HETATM   11  C   UNL     1     -12.523  10.810  70.025  1.00  0.00    -0.317 A  
ENDBRANCH   4   6
BRANCH   4  12
HETATM   12  C   UNL     1     -10.803  13.876  66.852  1.00  0.00    -0.286 C  
HETATM   13  C   UNL     1     -11.853  14.862  67.439  1.00  0.00    -0.245 C  
HETATM   14  C   UNL     1     -11.169  15.876  68.363  1.00  0.00    -0.368 C  
HETATM   15  N   UNL     1     -10.181  16.719  67.676  1.00  0.00    -0.280 NA 
HETATM   16  C   UNL     1      -9.176  15.871  67.006  1.00  0.00    -0.214 C  
HETATM   17  C   UNL     1      -9.789  14.797  66.105  1.00  0.00    -0.335 C  
BRANCH  12  18
HETATM   18  C   UNL     1     -11.419  13.015  65.721  1.00  0.00    -0.332 C  
HETATM   19  O   UNL     1     -12.404  12.297  65.847  1.00  0.00    -0.618 OA 
BRANCH  18  20
HETATM   20  O   UNL     1     -10.750  13.186  64.539  1.00  0.00    -0.353 OA 
HETATM   21  C   UNL     1     -10.834  12.096  63.625  1.00  0.00    -0.464 C  
ENDBRANCH  18  20
ENDBRANCH  12  18
BRANCH  15  22
HETATM   22  C   UNL     1     -10.766  17.700  66.740  1.00  0.00    -0.129 C  
BRANCH  22  23
HETATM   23  C   UNL     1     -10.718  19.146  67.242  1.00  0.00    -0.585 C  
BRANCH  23  24
HETATM   24  C   UNL     1      -9.294  19.555  67.510  1.00  0.00    -0.318 C  
HETATM   25  O   UNL     1      -8.760  19.579  68.610  1.00  0.00    -0.364 OA 
BRANCH  24  26
HETATM   26  O   UNL     1      -8.674  19.864  66.336  1.00  0.00    -0.340 OA 
HETATM   27  C   UNL     1      -7.413  19.218  66.174  1.00  0.00    -0.278 C  
ENDBRANCH  24  26
ENDBRANCH  23  24
ENDBRANCH  22  23
ENDBRANCH  15  22
ENDBRANCH   4  12
ENDBRANCH   2   3
TORSDOF 9
ENDMDL
MODEL       48
REMARK 921   NORMALIZED FREE ENERGY PREDICTED BY IDOCK:   -4.82 KCAL/MOL
REMARK 922        TOTAL FREE ENERGY PREDICTED BY IDOCK:   -7.53 KCAL/MOL
REMARK 923 INTER-LIGAND FREE ENERGY PREDICTED BY IDOCK:   -7.45 KCAL/MOL
REMARK 924 INTRA-LIGAND FREE ENERGY PREDICTED BY IDOCK:   -0.09 KCAL/MOL
REMARK 927      BINDING AFFINITY PREDICTED BY RF-SCORE:    0.00 PKD
ROOT
HETATM    1  C   UNL     1     -11.009   6.792  66.716  1.00  0.00    -0.248 C  
HETATM    2  C   UNL     1      -9.884   7.166  67.671  1.00  0.00    -0.183 C  
ENDROOT
BRANCH   2   3
HETATM    3  C   UNL     1      -9.328   8.552  67.352  1.00  0.00    -0.148 C  
HETATM    4  N   UNL     1      -9.388   9.557  68.331  1.00  0.00    -0.133 N  
HETATM    5  O   UNL     1      -8.844   8.736  66.232  1.00  0.00    -0.139 OA 
BRANCH   4   6
HETATM    6  C   UNL     1      -9.923   9.274  69.647  1.00  0.00    -0.191 A  
HETATM    7  C   UNL     1     -11.305   9.226  69.905  1.00  0.00    -0.083 A  
HETATM    8  C   UNL     1     -11.797   8.923  71.179  1.00  0.00    -0.353 A  
HETATM    9  C   UNL     1      -9.054   9.055  70.724  1.00  0.00    -0.297 A  
HETATM   10  C   UNL     1     -10.918   8.676  72.225  1.00  0.00    -0.392 A  
HETATM   11  C   UNL     1      -9.546   8.752  72.002  1.00  0.00    -0.356 A  
ENDBRANCH   4   6
BRANCH   4  12
HETATM   12  C   UNL     1      -9.199  11.026  67.934  1.00  0.00    -0.155 C  
HETATM   13  C   UNL     1      -9.740  11.280  66.498  1.00  0.00    -0.230 C  
HETATM   14  C   UNL     1     -11.268  11.146  66.477  1.00  0.00    -0.079 C  
HETATM   15  N   UNL     1     -11.952  12.125  67.332  1.00  0.00    -0.570 NA 
HETATM   16  C   UNL     1     -11.444  12.026  68.714  1.00  0.00    -0.300 C  
HETATM   17  C   UNL     1      -9.920  12.098  68.809  1.00  0.00    -0.066 C  
BRANCH  12  18
HETATM   18  C   UNL     1      -7.702  11.410  68.042  1.00  0.00    -0.114 C  
HETATM   19  O   UNL     1      -6.828  10.690  68.511  1.00  0.00    -0.062 OA 
BRANCH  18  20
HETATM   20  O   UNL     1      -7.460  12.644  67.503  1.00  0.00    -0.132 OA 
HETATM   21  C   UNL     1      -6.095  13.054  67.501  1.00  0.00    -0.125 C  
ENDBRANCH  18  20
ENDBRANCH  12  18
BRANCH  15  22
HETATM   22  C   UNL     1     -11.889  13.514  66.835  1.00  0.00    -0.407 C  
BRANCH  22  23
HETATM   23  C   UNL     1     -12.872  13.816  65.700  1.00  0.00    -0.456 C  
BRANCH  23  24
HETATM   24  C   UNL     1     -12.142  14.424  64.531  1.00  0.00    -0.481 C  
HETATM   25  O   UNL     1     -11.273  15.282  64.607  1.00  0.00    -0.396 OA 
BRANCH  24  26
HETATM   26  O   UNL     1     -12.570  13.849  63.371  1.00  0.00    -0.853 OA 
HETATM   27  C   UNL     1     -12.389  12.435  63.339  1.00  0.00    -0.499 C  
ENDBRANCH  24  26
ENDBRANCH  23  24
ENDBRANCH  22  23
ENDBRANCH  15  22
ENDBRANCH   4  12
ENDBRANCH   2   3
TORSDOF 9
ENDMDL
MODEL       49
REMARK 921   NORMALIZED FREE ENERGY PREDICTED BY IDOCK:   -4.79 KCAL/MOL
REMARK 922        TOTAL FREE ENERGY PREDICTED BY IDOCK:   -7.49 KCAL/MOL
REMARK 923 INTER-LIGAND FREE ENERGY PREDICTED BY IDOCK:   -7.17 KCAL/MOL
REMARK 924 INTRA-LIGAND FREE ENERGY PREDICTED BY IDOCK:   -0.31 KCAL/MOL
REMARK 927      BINDING AFFINITY PREDICTED BY RF-SCORE:    0.00 PKD
ROOT
HETATM    1  C   UNL     1      -9.178  16.054  67.295  1.00  0.00    -0.215 C  
HETATM    2  C   UNL     1      -9.224  14.788  66.450  1.00  0.00    -0.301 C  
ENDROOT
BRANCH   2   3
HETATM    3  C   UNL     1      -9.124  13.539  67.323  1.00  0.00    -0.225 C  
HETATM    4  N   UNL     1      -9.850  12.392  66.964  1.00  0.00    -0.208 N  
HETATM    5  O   UNL     1      -8.402  13.589  68.322  1.00  0.00    -0.156 OA 
BRANCH   4   6
HETATM    6  C   UNL     1     -10.645  12.371  65.754  1.00  0.00    -0.256 A  
HETATM    7  C   UNL     1     -10.105  12.030  64.501  1.00  0.00    -0.293 A  
HETATM    8  C   UNL     1     -10.901  11.991  63.351  1.00  0.00    -0.471 A  
HETATM    9  C   UNL     1     -12.002  12.718  65.802  1.00  0.00    -0.502 A  
HETATM   10  C   UNL     1     -12.252  12.304  63.428  1.00  0.00    -0.630 A  
HETATM   11  C   UNL     1     -12.802  12.678  64.650  1.00  0.00    -0.361 A  
ENDBRANCH   4   6
BRANCH   4  12
HETATM   12  C   UNL     1     -10.076  11.276  67.991  1.00  0.00    -0.177 C  
HETATM   13  C   UNL     1     -10.442   9.941  67.280  1.00  0.00    -0.319 C  
HETATM   14  C   UNL     1      -9.233   9.407  66.502  1.00  0.00    -0.159 C  
HETATM   15  N   UNL     1      -8.081   9.093  67.357  1.00  0.00    -0.107 NA 
HETATM   16  C   UNL     1      -7.703  10.280  68.148  1.00  0.00    -0.092 C  
HETATM   17  C   UNL     1      -8.873  10.901  68.911  1.00  0.00    -0.143 C  
BRANCH  12  18
HETATM   18  C   UNL     1     -11.184  11.698  68.988  1.00  0.00    -0.262 C  
HETATM   19  O   UNL     1     -11.443  12.855  69.296  1.00  0.00    -0.268 OA 
BRANCH  18  20
HETATM   20  O   UNL     1     -11.878  10.615  69.456  1.00  0.00    -0.286 OA 
HETATM   21  C   UNL     1     -12.034  10.553  70.871  1.00  0.00    -0.377 C  
ENDBRANCH  18  20
ENDBRANCH  12  18
BRANCH  15  22
HETATM   22  C   UNL     1      -8.271   7.910  68.221  1.00  0.00    -0.124 C  
BRANCH  22  23
HETATM   23  C   UNL     1      -8.807   6.679  67.486  1.00  0.00    -0.116 C  
BRANCH  23  24
HETATM   24  C   UNL     1     -10.224   6.396  67.910  1.00  0.00    -0.168 C  
HETATM   25  O   UNL     1     -11.195   6.376  67.166  1.00  0.00    -0.370 OA 
BRANCH  24  26
HETATM   26  O   UNL     1     -10.261   6.130  69.247  1.00  0.00    -0.173 OA 
HETATM   27  C   UNL     1     -11.508   6.457  69.856  1.00  0.00    -0.415 C  
ENDBRANCH  24  26
ENDBRANCH  23  24
ENDBRANCH  22  23
ENDBRANCH  15  22
ENDBRANCH   4  12
ENDBRANCH   2   3
TORSDOF 9
ENDMDL
MODEL       50
REMARK 921   NORMALIZED FREE ENERGY PREDICTED BY IDOCK:   -4.78 KCAL/MOL
REMARK 922        TOTAL FREE ENERGY PREDICTED BY IDOCK:   -7.48 KCAL/MOL
REMARK 923 INTER-LIGAND FREE ENERGY PREDICTED BY IDOCK:   -7.56 KCAL/MOL
REMARK 924 INTRA-LIGAND FREE ENERGY PREDICTED BY IDOCK:    0.08 KCAL/MOL
REMARK 927      BINDING AFFINITY PREDICTED BY RF-SCORE:    0.00 PKD
ROOT
HETATM    1  C   UNL     1     -12.894  14.160  65.330  1.00  0.00    -0.370 C  
HETATM    2  C   UNL     1     -12.228  12.978  66.019  1.00  0.00    -0.463 C  
ENDROOT
BRANCH   2   3
HETATM    3  C   UNL     1     -10.731  13.217  66.199  1.00  0.00    -0.278 C  
HETATM    4  N   UNL     1     -10.215  13.399  67.493  1.00  0.00    -0.225 N  
HETATM    5  O   UNL     1     -10.025  13.240  65.188  1.00  0.00    -0.246 OA 
BRANCH   4   6
HETATM    6  C   UNL     1     -11.081  13.313  68.651  1.00  0.00    -0.268 A  
HETATM    7  C   UNL     1     -11.265  12.118  69.369  1.00  0.00    -0.248 A  
HETATM    8  C   UNL     1     -12.086  12.068  70.500  1.00  0.00    -0.402 A  
HETATM    9  C   UNL     1     -11.789  14.444  69.081  1.00  0.00    -0.359 A  
HETATM   10  C   UNL     1     -12.751  13.209  70.930  1.00  0.00    -0.313 A  
HETATM   11  C   UNL     1     -12.612  14.395  70.215  1.00  0.00    -0.380 A  
ENDBRANCH   4   6
BRANCH   4  12
HETATM   12  C   UNL     1      -8.821  14.007  67.683  1.00  0.00    -0.190 C  
HETATM   13  C   UNL     1      -8.552  15.109  66.618  1.00  0.00    -0.279 C  
HETATM   14  C   UNL     1      -9.457  16.321  66.871  1.00  0.00    -0.230 C  
HETATM   15  N   UNL     1      -9.221  16.965  68.169  1.00  0.00    -0.228 NA 
HETATM   16  C   UNL     1      -9.367  15.977  69.255  1.00  0.00    -0.244 C  
HETATM   17  C   UNL     1      -8.532  14.713  69.044  1.00  0.00    -0.095 C  
BRANCH  12  18
HETATM   18  C   UNL     1      -7.748  12.891  67.614  1.00  0.00    -0.162 C  
HETATM   19  O   UNL     1      -6.784  12.895  66.856  1.00  0.00    -0.020 OA 
BRANCH  18  20
HETATM   20  O   UNL     1      -7.982  11.912  68.540  1.00  0.00    -0.144 OA 
HETATM   21  C   UNL     1      -6.818  11.310  69.101  1.00  0.00    -0.109 C  
ENDBRANCH  18  20
ENDBRANCH  12  18
BRANCH  15  22
HETATM   22  C   UNL     1      -7.934  17.683  68.266  1.00  0.00    -0.272 C  
BRANCH  22  23
HETATM   23  C   UNL     1      -8.067  19.152  68.675  1.00  0.00    -0.405 C  
BRANCH  23  24
HETATM   24  C   UNL     1      -9.346  19.729  68.125  1.00  0.00    -0.340 C  
HETATM   25  O   UNL     1     -10.351  19.971  68.778  1.00  0.00    -0.433 OA 
BRANCH  24  26
HETATM   26  O   UNL     1      -9.204  19.977  66.792  1.00  0.00    -0.347 OA 
HETATM   27  C   UNL     1     -10.396  19.750  66.043  1.00  0.00    -0.511 C  
ENDBRANCH  24  26
ENDBRANCH  23  24
ENDBRANCH  22  23
ENDBRANCH  15  22
ENDBRANCH   4  12
ENDBRANCH   2   3
TORSDOF 9
ENDMDL
MODEL       51
REMARK 921   NORMALIZED FREE ENERGY PREDICTED BY IDOCK:   -4.77 KCAL/MOL
REMARK 922        TOTAL FREE ENERGY PREDICTED BY IDOCK:   -7.47 KCAL/MOL
REMARK 923 INTER-LIGAND FREE ENERGY PREDICTED BY IDOCK:   -7.14 KCAL/MOL
REMARK 924 INTRA-LIGAND FREE ENERGY PREDICTED BY IDOCK:   -0.33 KCAL/MOL
REMARK 927      BINDING AFFINITY PREDICTED BY RF-SCORE:    0.00 PKD
ROOT
HETATM    1  C   UNL     1     -12.294  12.085  63.451  1.00  0.00    -0.635 C  
HETATM    2  C   UNL     1     -10.826  12.380  63.726  1.00  0.00    -0.500 C  
ENDROOT
BRANCH   2   3
HETATM    3  C   UNL     1     -10.199  11.294  64.597  1.00  0.00    -0.301 C  
HETATM    4  N   UNL     1      -9.988  11.547  65.963  1.00  0.00    -0.216 N  
HETATM    5  O   UNL     1      -9.899  10.225  64.060  1.00  0.00    -0.311 OA 
BRANCH   4   6
HETATM    6  C   UNL     1     -10.405  12.802  66.554  1.00  0.00    -0.251 A  
HETATM    7  C   UNL     1      -9.536  13.901  66.681  1.00  0.00    -0.297 A  
HETATM    8  C   UNL     1      -9.971  15.112  67.231  1.00  0.00    -0.230 A  
HETATM    9  C   UNL     1     -11.710  12.947  67.042  1.00  0.00    -0.447 A  
HETATM   10  C   UNL     1     -11.279  15.245  67.677  1.00  0.00    -0.320 A  
HETATM   11  C   UNL     1     -12.147  14.161  67.593  1.00  0.00    -0.337 A  
ENDBRANCH   4   6
BRANCH   4  12
HETATM   12  C   UNL     1      -9.036  10.656  66.769  1.00  0.00    -0.152 C  
HETATM   13  C   UNL     1      -9.277  10.834  68.295  1.00  0.00    -0.157 C  
HETATM   14  C   UNL     1     -10.644  10.262  68.686  1.00  0.00    -0.208 C  
HETATM   15  N   UNL     1     -10.767   8.819  68.436  1.00  0.00    -0.123 NA 
HETATM   16  C   UNL     1     -10.470   8.527  67.021  1.00  0.00    -0.292 C  
HETATM   17  C   UNL     1      -9.142   9.115  66.543  1.00  0.00    -0.194 C  
BRANCH  12  18
HETATM   18  C   UNL     1      -7.569  10.982  66.394  1.00  0.00    -0.135 C  
HETATM   19  O   UNL     1      -6.893  11.859  66.919  1.00  0.00    -0.138 OA 
BRANCH  18  20
HETATM   20  O   UNL     1      -7.097  10.136  65.428  1.00  0.00    -0.131 OA 
HETATM   21  C   UNL     1      -5.779  10.414  64.961  1.00  0.00    -0.139 C  
ENDBRANCH  18  20
ENDBRANCH  12  18
BRANCH  15  22
HETATM   22  C   UNL     1      -9.957   7.976  69.339  1.00  0.00    -0.190 C  
BRANCH  22  23
HETATM   23  C   UNL     1     -10.482   6.546  69.495  1.00  0.00    -0.265 C  
BRANCH  23  24
HETATM   24  C   UNL     1     -11.379   6.451  70.701  1.00  0.00    -0.357 C  
HETATM   25  O   UNL     1     -12.446   7.033  70.837  1.00  0.00    -0.366 OA 
BRANCH  24  26
HETATM   26  O   UNL     1     -10.840   5.589  71.610  1.00  0.00    -0.245 OA 
HETATM   27  C   UNL     1      -9.963   4.627  71.028  1.00  0.00    -0.200 C  
ENDBRANCH  24  26
ENDBRANCH  23  24
ENDBRANCH  22  23
ENDBRANCH  15  22
ENDBRANCH   4  12
ENDBRANCH   2   3
TORSDOF 9
ENDMDL
MODEL       52
REMARK 921   NORMALIZED FREE ENERGY PREDICTED BY IDOCK:   -4.77 KCAL/MOL
REMARK 922        TOTAL FREE ENERGY PREDICTED BY IDOCK:   -7.47 KCAL/MOL
REMARK 923 INTER-LIGAND FREE ENERGY PREDICTED BY IDOCK:   -7.12 KCAL/MOL
REMARK 924 INTRA-LIGAND FREE ENERGY PREDICTED BY IDOCK:   -0.35 KCAL/MOL
REMARK 927      BINDING AFFINITY PREDICTED BY RF-SCORE:    0.00 PKD
ROOT
HETATM    1  C   UNL     1     -10.193  20.032  66.135  1.00  0.00    -0.589 C  
HETATM    2  C   UNL     1      -9.448  19.223  67.187  1.00  0.00    -0.388 C  
ENDROOT
BRANCH   2   3
HETATM    3  C   UNL     1     -10.298  18.060  67.693  1.00  0.00    -0.388 C  
HETATM    4  N   UNL     1      -9.668  16.865  68.077  1.00  0.00    -0.250 N  
HETATM    5  O   UNL     1     -11.521  18.219  67.743  1.00  0.00     0.316 OA 
BRANCH   4   6
HETATM    6  C   UNL     1      -8.224  16.749  68.044  1.00  0.00    -0.192 A  
HETATM    7  C   UNL     1      -7.458  16.535  69.203  1.00  0.00    -0.218 A  
HETATM    8  C   UNL     1      -6.067  16.400  69.141  1.00  0.00    -0.161 A  
HETATM    9  C   UNL     1      -7.540  16.870  66.827  1.00  0.00    -0.280 A  
HETATM   10  C   UNL     1      -5.412  16.488  67.920  1.00  0.00    -0.131 A  
HETATM   11  C   UNL     1      -6.146  16.733  66.763  1.00  0.00    -0.171 A  
ENDBRANCH   4   6
BRANCH   4  12
HETATM   12  C   UNL     1     -10.488  15.578  68.221  1.00  0.00    -0.242 C  
HETATM   13  C   UNL     1     -11.531  15.461  67.072  1.00  0.00    -0.103 C  
HETATM   14  C   UNL     1     -10.821  15.229  65.734  1.00  0.00    -0.358 C  
HETATM   15  N   UNL     1     -10.049  13.980  65.691  1.00  0.00    -0.324 NA 
HETATM   16  C   UNL     1      -9.079  13.950  66.802  1.00  0.00    -0.223 C  
HETATM   17  C   UNL     1      -9.709  14.227  68.168  1.00  0.00    -0.226 C  
BRANCH  12  18
HETATM   18  C   UNL     1     -11.180  15.549  69.607  1.00  0.00    -0.300 C  
HETATM   19  O   UNL     1     -10.928  16.315  70.530  1.00  0.00    -0.316 OA 
BRANCH  18  20
HETATM   20  O   UNL     1     -12.149  14.584  69.664  1.00  0.00    -0.308 OA 
HETATM   21  C   UNL     1     -12.932  14.574  70.855  1.00  0.00    -0.361 C  
ENDBRANCH  18  20
ENDBRANCH  12  18
BRANCH  15  22
HETATM   22  C   UNL     1     -10.875  12.756  65.667  1.00  0.00    -0.273 C  
BRANCH  22  23
HETATM   23  C   UNL     1     -10.074  11.459  65.814  1.00  0.00    -0.289 C  
BRANCH  23  24
HETATM   24  C   UNL     1     -10.731  10.555  66.823  1.00  0.00    -0.188 C  
HETATM   25  O   UNL     1     -10.419   9.392  67.040  1.00  0.00    -0.251 OA 
BRANCH  24  26
HETATM   26  O   UNL     1     -11.707  11.237  67.487  1.00  0.00    -0.574 OA 
HETATM   27  C   UNL     1     -11.693  11.019  68.896  1.00  0.00    -0.330 C  
ENDBRANCH  24  26
ENDBRANCH  23  24
ENDBRANCH  22  23
ENDBRANCH  15  22
ENDBRANCH   4  12
ENDBRANCH   2   3
TORSDOF 9
ENDMDL
MODEL       53
REMARK 921   NORMALIZED FREE ENERGY PREDICTED BY IDOCK:   -4.77 KCAL/MOL
REMARK 922        TOTAL FREE ENERGY PREDICTED BY IDOCK:   -7.46 KCAL/MOL
REMARK 923 INTER-LIGAND FREE ENERGY PREDICTED BY IDOCK:   -7.30 KCAL/MOL
REMARK 924 INTRA-LIGAND FREE ENERGY PREDICTED BY IDOCK:   -0.16 KCAL/MOL
REMARK 927      BINDING AFFINITY PREDICTED BY RF-SCORE:    0.00 PKD
ROOT
HETATM    1  C   UNL     1     -12.165  14.933  64.096  1.00  0.00    -0.280 C  
HETATM    2  C   UNL     1     -11.069  15.553  64.950  1.00  0.00    -0.428 C  
ENDROOT
BRANCH   2   3
HETATM    3  C   UNL     1     -11.002  14.894  66.325  1.00  0.00    -0.338 C  
HETATM    4  N   UNL     1     -10.471  15.616  67.407  1.00  0.00    -0.284 N  
HETATM    5  O   UNL     1     -11.422  13.739  66.433  1.00  0.00    -0.316 OA 
BRANCH   4   6
HETATM    6  C   UNL     1     -10.037  16.987  67.237  1.00  0.00    -0.295 A  
HETATM    7  C   UNL     1      -8.873  17.326  66.525  1.00  0.00    -0.290 A  
HETATM    8  C   UNL     1      -8.489  18.661  66.352  1.00  0.00    -0.286 A  
HETATM    9  C   UNL     1     -10.775  18.031  67.809  1.00  0.00    -0.350 A  
HETATM   10  C   UNL     1      -9.255  19.683  66.898  1.00  0.00    -0.431 A  
HETATM   11  C   UNL     1     -10.392  19.370  67.636  1.00  0.00    -0.550 A  
ENDBRANCH   4   6
BRANCH   4  12
HETATM   12  C   UNL     1     -10.041  14.880  68.682  1.00  0.00    -0.237 C  
HETATM   13  C   UNL     1      -9.538  13.447  68.345  1.00  0.00    -0.188 C  
HETATM   14  C   UNL     1      -8.218  13.519  67.568  1.00  0.00    -0.183 C  
HETATM   15  N   UNL     1      -7.128  14.150  68.325  1.00  0.00    -0.100 NA 
HETATM   16  C   UNL     1      -7.539  15.495  68.770  1.00  0.00    -0.152 C  
HETATM   17  C   UNL     1      -8.878  15.509  69.509  1.00  0.00    -0.229 C  
BRANCH  12  18
HETATM   18  C   UNL     1     -11.222  14.834  69.684  1.00  0.00    -0.275 C  
HETATM   19  O   UNL     1     -12.150  14.035  69.635  1.00  0.00    -0.321 OA 
BRANCH  18  20
HETATM   20  O   UNL     1     -11.081  15.774  70.669  1.00  0.00    -0.318 OA 
HETATM   21  C   UNL     1     -12.193  15.909  71.549  1.00  0.00    -0.465 C  
ENDBRANCH  18  20
ENDBRANCH  12  18
BRANCH  15  22
HETATM   22  C   UNL     1      -6.625  13.341  69.453  1.00  0.00    -0.069 C  
BRANCH  22  23
HETATM   23  C   UNL     1      -6.162  11.936  69.057  1.00  0.00    -0.077 C  
BRANCH  23  24
HETATM   24  C   UNL     1      -6.866  10.902  69.896  1.00  0.00    -0.125 C  
HETATM   25  O   UNL     1      -6.520  10.542  71.013  1.00  0.00    -0.346 OA 
BRANCH  24  26
HETATM   26  O   UNL     1      -7.971  10.449  69.239  1.00  0.00    -0.133 OA 
HETATM   27  C   UNL     1      -8.814   9.629  70.044  1.00  0.00    -0.232 C  
ENDBRANCH  24  26
ENDBRANCH  23  24
ENDBRANCH  22  23
ENDBRANCH  15  22
ENDBRANCH   4  12
ENDBRANCH   2   3
TORSDOF 9
ENDMDL
MODEL       54
REMARK 921   NORMALIZED FREE ENERGY PREDICTED BY IDOCK:   -4.77 KCAL/MOL
REMARK 922        TOTAL FREE ENERGY PREDICTED BY IDOCK:   -7.46 KCAL/MOL
REMARK 923 INTER-LIGAND FREE ENERGY PREDICTED BY IDOCK:   -7.22 KCAL/MOL
REMARK 924 INTRA-LIGAND FREE ENERGY PREDICTED BY IDOCK:   -0.24 KCAL/MOL
REMARK 927      BINDING AFFINITY PREDICTED BY RF-SCORE:    0.00 PKD
ROOT
HETATM    1  C   UNL     1     -11.784  15.448  71.675  1.00  0.00    -0.483 C  
HETATM    2  C   UNL     1     -12.274  15.592  70.242  1.00  0.00    -0.432 C  
ENDROOT
BRANCH   2   3
HETATM    3  C   UNL     1     -11.823  14.412  69.384  1.00  0.00    -0.325 C  
HETATM    4  N   UNL     1     -10.910  14.632  68.339  1.00  0.00    -0.239 N  
HETATM    5  O   UNL     1     -12.285  13.298  69.646  1.00  0.00    -0.279 OA 
BRANCH   4   6
HETATM    6  C   UNL     1     -10.361  15.952  68.106  1.00  0.00    -0.256 A  
HETATM    7  C   UNL     1     -10.875  16.820  67.127  1.00  0.00    -0.102 A  
HETATM    8  C   UNL     1     -10.344  18.101  66.939  1.00  0.00    -0.386 A  
HETATM    9  C   UNL     1      -9.264  16.397  68.856  1.00  0.00    -0.259 A  
HETATM   10  C   UNL     1      -9.279  18.535  67.718  1.00  0.00    -0.295 A  
HETATM   11  C   UNL     1      -8.731  17.681  68.669  1.00  0.00    -0.266 A  
ENDBRANCH   4   6
BRANCH   4  12
HETATM   12  C   UNL     1     -10.732  13.576  67.242  1.00  0.00    -0.267 C  
HETATM   13  C   UNL     1      -9.467  13.879  66.389  1.00  0.00    -0.268 C  
HETATM   14  C   UNL     1      -8.201  13.671  67.228  1.00  0.00    -0.152 C  
HETATM   15  N   UNL     1      -8.034  12.290  67.701  1.00  0.00    -0.149 NA 
HETATM   16  C   UNL     1      -9.229  11.869  68.457  1.00  0.00    -0.134 C  
HETATM   17  C   UNL     1     -10.539  12.098  67.701  1.00  0.00    -0.236 C  
BRANCH  12  18
HETATM   18  C   UNL     1     -12.002  13.523  66.355  1.00  0.00    -0.414 C  
HETATM   19  O   UNL     1     -12.779  14.456  66.192  1.00  0.00    -0.334 OA 
BRANCH  18  20
HETATM   20  O   UNL     1     -12.129  12.310  65.734  1.00  0.00    -0.587 OA 
HETATM   21  C   UNL     1     -12.431  12.365  64.342  1.00  0.00    -0.433 C  
ENDBRANCH  18  20
ENDBRANCH  12  18
BRANCH  15  22
HETATM   22  C   UNL     1      -7.702  11.320  66.638  1.00  0.00    -0.148 C  
BRANCH  22  23
HETATM   23  C   UNL     1      -7.994   9.863  67.009  1.00  0.00    -0.109 C  
BRANCH  23  24
HETATM   24  C   UNL     1      -8.617   9.145  65.841  1.00  0.00    -0.151 C  
HETATM   25  O   UNL     1      -9.295   8.130  65.915  1.00  0.00    -0.155 OA 
BRANCH  24  26
HETATM   26  O   UNL     1      -8.341   9.816  64.686  1.00  0.00    -0.141 OA 
HETATM   27  C   UNL     1      -9.495  10.063  63.885  1.00  0.00    -0.220 C  
ENDBRANCH  24  26
ENDBRANCH  23  24
ENDBRANCH  22  23
ENDBRANCH  15  22
ENDBRANCH   4  12
ENDBRANCH   2   3
TORSDOF 9
ENDMDL
MODEL       55
REMARK 921   NORMALIZED FREE ENERGY PREDICTED BY IDOCK:   -4.76 KCAL/MOL
REMARK 922        TOTAL FREE ENERGY PREDICTED BY IDOCK:   -7.44 KCAL/MOL
REMARK 923 INTER-LIGAND FREE ENERGY PREDICTED BY IDOCK:   -7.16 KCAL/MOL
REMARK 924 INTRA-LIGAND FREE ENERGY PREDICTED BY IDOCK:   -0.28 KCAL/MOL
REMARK 927      BINDING AFFINITY PREDICTED BY RF-SCORE:    0.00 PKD
ROOT
HETATM    1  C   UNL     1      -5.334  19.109  66.869  1.00  0.00    -0.163 C  
HETATM    2  C   UNL     1      -6.200  18.192  66.017  1.00  0.00    -0.264 C  
ENDROOT
BRANCH   2   3
HETATM    3  C   UNL     1      -6.534  16.902  66.760  1.00  0.00    -0.212 C  
HETATM    4  N   UNL     1      -7.770  16.790  67.419  1.00  0.00    -0.162 N  
HETATM    5  O   UNL     1      -5.695  15.997  66.753  1.00  0.00    -0.267 OA 
BRANCH   4   6
HETATM    6  C   UNL     1      -8.740  17.864  67.355  1.00  0.00    -0.237 A  
HETATM    7  C   UNL     1      -8.869  18.825  68.373  1.00  0.00    -0.375 A  
HETATM    8  C   UNL     1      -9.795  19.869  68.275  1.00  0.00    -0.514 A  
HETATM    9  C   UNL     1      -9.607  17.960  66.258  1.00  0.00    -0.252 A  
HETATM   10  C   UNL     1     -10.621  19.966  67.163  1.00  0.00    -0.527 A  
HETATM   11  C   UNL     1     -10.536  19.007  66.158  1.00  0.00    -0.541 A  
ENDBRANCH   4   6
BRANCH   4  12
HETATM   12  C   UNL     1      -7.982  15.694  68.470  1.00  0.00    -0.138 C  
HETATM   13  C   UNL     1      -9.398  15.807  69.103  1.00  0.00    -0.258 C  
HETATM   14  C   UNL     1     -10.471  15.454  68.066  1.00  0.00    -0.257 C  
HETATM   15  N   UNL     1     -10.372  14.075  67.570  1.00  0.00    -0.244 NA 
HETATM   16  C   UNL     1      -9.024  13.834  67.020  1.00  0.00    -0.238 C  
HETATM   17  C   UNL     1      -7.898  14.214  67.982  1.00  0.00    -0.146 C  
BRANCH  12  18
HETATM   18  C   UNL     1      -6.878  15.786  69.554  1.00  0.00    -0.187 C  
HETATM   19  O   UNL     1      -6.451  16.832  70.028  1.00  0.00    -0.122 OA 
BRANCH  18  20
HETATM   20  O   UNL     1      -6.463  14.545  69.955  1.00  0.00    -0.143 OA 
HETATM   21  C   UNL     1      -5.647  14.522  71.123  1.00  0.00    -0.161 C  
ENDBRANCH  18  20
ENDBRANCH  12  18
BRANCH  15  22
HETATM   22  C   UNL     1     -10.740  13.044  68.561  1.00  0.00    -0.255 C  
BRANCH  22  23
HETATM   23  C   UNL     1     -12.181  13.152  69.069  1.00  0.00    -0.114 C  
BRANCH  23  24
HETATM   24  C   UNL     1     -12.247  12.776  70.526  1.00  0.00    -0.307 C  
HETATM   25  O   UNL     1     -12.287  11.633  70.960  1.00  0.00    -0.360 OA 
BRANCH  24  26
HETATM   26  O   UNL     1     -12.220  13.901  71.295  1.00  0.00    -0.345 OA 
HETATM   27  C   UNL     1     -13.103  14.922  70.836  1.00  0.00    -0.376 C  
ENDBRANCH  24  26
ENDBRANCH  23  24
ENDBRANCH  22  23
ENDBRANCH  15  22
ENDBRANCH   4  12
ENDBRANCH   2   3
TORSDOF 9
ENDMDL
MODEL       56
REMARK 921   NORMALIZED FREE ENERGY PREDICTED BY IDOCK:   -4.75 KCAL/MOL
REMARK 922        TOTAL FREE ENERGY PREDICTED BY IDOCK:   -7.43 KCAL/MOL
REMARK 923 INTER-LIGAND FREE ENERGY PREDICTED BY IDOCK:   -7.24 KCAL/MOL
REMARK 924 INTRA-LIGAND FREE ENERGY PREDICTED BY IDOCK:   -0.19 KCAL/MOL
REMARK 927      BINDING AFFINITY PREDICTED BY RF-SCORE:    0.00 PKD
ROOT
HETATM    1  C   UNL     1      -9.888   3.867  74.540  1.00  0.00    -0.179 C  
HETATM    2  C   UNL     1     -10.383   5.302  74.430  1.00  0.00    -0.302 C  
ENDROOT
BRANCH   2   3
HETATM    3  C   UNL     1     -10.964   5.580  73.046  1.00  0.00    -0.290 C  
HETATM    4  N   UNL     1     -10.218   6.340  72.129  1.00  0.00    -0.183 N  
HETATM    5  O   UNL     1     -12.079   5.121  72.785  1.00  0.00    -0.132 OA 
BRANCH   4   6
HETATM    6  C   UNL     1      -8.893   6.814  72.470  1.00  0.00    -0.126 A  
HETATM    7  C   UNL     1      -8.670   7.776  73.471  1.00  0.00    -0.296 A  
HETATM    8  C   UNL     1      -7.377   8.198  73.800  1.00  0.00    -0.199 A  
HETATM    9  C   UNL     1      -7.776   6.327  71.778  1.00  0.00    -0.100 A  
HETATM   10  C   UNL     1      -6.281   7.676  73.126  1.00  0.00    -0.061 A  
HETATM   11  C   UNL     1      -6.479   6.749  72.107  1.00  0.00    -0.053 A  
ENDBRANCH   4   6
BRANCH   4  12
HETATM   12  C   UNL     1     -10.906   6.952  70.903  1.00  0.00    -0.244 C  
HETATM   13  C   UNL     1     -12.383   7.316  71.227  1.00  0.00    -0.401 C  
HETATM   14  C   UNL     1     -12.435   8.479  72.224  1.00  0.00    -0.387 C  
HETATM   15  N   UNL     1     -11.830   9.715  71.712  1.00  0.00    -0.375 NA 
HETATM   16  C   UNL     1     -10.439   9.458  71.291  1.00  0.00    -0.315 C  
HETATM   17  C   UNL     1     -10.302   8.273  70.334  1.00  0.00    -0.214 C  
BRANCH  12  18
HETATM   18  C   UNL     1     -10.823   5.967  69.710  1.00  0.00    -0.377 C  
HETATM   19  O   UNL     1     -10.256   4.881  69.739  1.00  0.00    -0.252 OA 
BRANCH  18  20
HETATM   20  O   UNL     1     -11.506   6.438  68.621  1.00  0.00    -0.254 OA 
HETATM   21  C   UNL     1     -10.996   6.028  67.355  1.00  0.00    -0.246 C  
ENDBRANCH  18  20
ENDBRANCH  12  18
BRANCH  15  22
HETATM   22  C   UNL     1     -12.603  10.370  70.637  1.00  0.00    -0.348 C  
BRANCH  22  23
HETATM   23  C   UNL     1     -12.103  11.771  70.273  1.00  0.00    -0.426 C  
BRANCH  23  24
HETATM   24  C   UNL     1     -11.974  11.903  68.778  1.00  0.00    -0.249 C  
HETATM   25  O   UNL     1     -11.884  10.971  67.990  1.00  0.00    -0.593 OA 
BRANCH  24  26
HETATM   26  O   UNL     1     -12.008  13.220  68.427  1.00  0.00    -0.340 OA 
HETATM   27  C   UNL     1     -11.263  13.512  67.247  1.00  0.00    -0.298 C  
ENDBRANCH  24  26
ENDBRANCH  23  24
ENDBRANCH  22  23
ENDBRANCH  15  22
ENDBRANCH   4  12
ENDBRANCH   2   3
TORSDOF 9
ENDMDL
MODEL       57
REMARK 921   NORMALIZED FREE ENERGY PREDICTED BY IDOCK:   -4.73 KCAL/MOL
REMARK 922        TOTAL FREE ENERGY PREDICTED BY IDOCK:   -7.41 KCAL/MOL
REMARK 923 INTER-LIGAND FREE ENERGY PREDICTED BY IDOCK:   -6.97 KCAL/MOL
REMARK 924 INTRA-LIGAND FREE ENERGY PREDICTED BY IDOCK:   -0.44 KCAL/MOL
REMARK 927      BINDING AFFINITY PREDICTED BY RF-SCORE:    0.00 PKD
ROOT
HETATM    1  C   UNL     1     -10.967   5.928  71.937  1.00  0.00    -0.321 C  
HETATM    2  C   UNL     1     -11.857   6.508  70.847  1.00  0.00    -0.391 C  
ENDROOT
BRANCH   2   3
HETATM    3  C   UNL     1     -11.471   7.951  70.530  1.00  0.00    -0.195 C  
HETATM    4  N   UNL     1     -10.635   8.213  69.432  1.00  0.00    -0.223 N  
HETATM    5  O   UNL     1     -11.915   8.841  71.261  1.00  0.00    -0.288 OA 
BRANCH   4   6
HETATM    6  C   UNL     1     -10.182   7.135  68.576  1.00  0.00    -0.175 A  
HETATM    7  C   UNL     1      -8.895   6.579  68.682  1.00  0.00    -0.121 A  
HETATM    8  C   UNL     1      -8.491   5.521  67.861  1.00  0.00    -0.098 A  
HETATM    9  C   UNL     1     -11.031   6.623  67.587  1.00  0.00    -0.392 A  
HETATM   10  C   UNL     1      -9.360   5.004  66.910  1.00  0.00    -0.134 A  
HETATM   11  C   UNL     1     -10.628   5.561  66.764  1.00  0.00    -0.360 A  
ENDBRANCH   4   6
BRANCH   4  12
HETATM   12  C   UNL     1      -9.931   9.569  69.311  1.00  0.00    -0.187 C  
HETATM   13  C   UNL     1      -9.603   9.887  67.824  1.00  0.00    -0.163 C  
HETATM   14  C   UNL     1     -10.895  10.137  67.038  1.00  0.00    -0.151 C  
HETATM   15  N   UNL     1     -11.661  11.292  67.525  1.00  0.00    -0.559 NA 
HETATM   16  C   UNL     1     -11.954  11.131  68.962  1.00  0.00    -0.320 C  
HETATM   17  C   UNL     1     -10.715  10.825  69.806  1.00  0.00    -0.241 C  
BRANCH  12  18
HETATM   18  C   UNL     1      -8.647   9.573  70.179  1.00  0.00    -0.224 C  
HETATM   19  O   UNL     1      -8.583   9.166  71.333  1.00  0.00    -0.314 OA 
BRANCH  18  20
HETATM   20  O   UNL     1      -7.570  10.047  69.480  1.00  0.00    -0.101 OA 
HETATM   21  C   UNL     1      -6.424  10.364  70.265  1.00  0.00    -0.141 C  
ENDBRANCH  18  20
ENDBRANCH  12  18
BRANCH  15  22
HETATM   22  C   UNL     1     -11.031  12.599  67.249  1.00  0.00    -0.256 C  
BRANCH  22  23
HETATM   23  C   UNL     1     -12.022  13.761  67.151  1.00  0.00    -0.442 C  
BRANCH  23  24
HETATM   24  C   UNL     1     -11.561  14.910  68.009  1.00  0.00    -0.341 C  
HETATM   25  O   UNL     1     -11.378  16.055  67.619  1.00  0.00    -0.244 OA 
BRANCH  24  26
HETATM   26  O   UNL     1     -11.410  14.492  69.298  1.00  0.00    -0.257 OA 
HETATM   27  C   UNL     1     -12.410  14.999  70.179  1.00  0.00    -0.333 C  
ENDBRANCH  24  26
ENDBRANCH  23  24
ENDBRANCH  22  23
ENDBRANCH  15  22
ENDBRANCH   4  12
ENDBRANCH   2   3
TORSDOF 9
ENDMDL
MODEL       58
REMARK 921   NORMALIZED FREE ENERGY PREDICTED BY IDOCK:   -4.73 KCAL/MOL
REMARK 922        TOTAL FREE ENERGY PREDICTED BY IDOCK:   -7.40 KCAL/MOL
REMARK 923 INTER-LIGAND FREE ENERGY PREDICTED BY IDOCK:   -7.56 KCAL/MOL
REMARK 924 INTRA-LIGAND FREE ENERGY PREDICTED BY IDOCK:    0.16 KCAL/MOL
REMARK 927      BINDING AFFINITY PREDICTED BY RF-SCORE:    0.00 PKD
ROOT
HETATM    1  C   UNL     1     -10.008   6.145  67.007  1.00  0.00    -0.200 C  
HETATM    2  C   UNL     1     -10.662   7.519  66.990  1.00  0.00    -0.367 C  
ENDROOT
BRANCH   2   3
HETATM    3  C   UNL     1      -9.669   8.597  66.563  1.00  0.00    -0.255 C  
HETATM    4  N   UNL     1      -9.504   9.736  67.369  1.00  0.00    -0.150 N  
HETATM    5  O   UNL     1      -9.045   8.423  65.513  1.00  0.00    -0.152 OA 
BRANCH   4   6
HETATM    6  C   UNL     1     -10.227   9.868  68.617  1.00  0.00    -0.178 A  
HETATM    7  C   UNL     1     -11.534  10.384  68.680  1.00  0.00    -0.238 A  
HETATM    8  C   UNL     1     -12.221  10.476  69.896  1.00  0.00    -0.289 A  
HETATM    9  C   UNL     1      -9.619   9.492  69.822  1.00  0.00    -0.235 A  
HETATM   10  C   UNL     1     -11.611  10.066  71.074  1.00  0.00    -0.476 A  
HETATM   11  C   UNL     1     -10.307   9.583  71.040  1.00  0.00    -0.353 A  
ENDBRANCH   4   6
BRANCH   4  12
HETATM   12  C   UNL     1      -8.824  10.986  66.798  1.00  0.00    -0.156 C  
HETATM   13  C   UNL     1      -9.261  11.224  65.324  1.00  0.00    -0.191 C  
HETATM   14  C   UNL     1     -10.740  11.623  65.269  1.00  0.00    -0.291 C  
HETATM   15  N   UNL     1     -11.034  12.878  65.972  1.00  0.00    -0.273 NA 
HETATM   16  C   UNL     1     -10.575  12.789  67.372  1.00  0.00    -0.229 C  
HETATM   17  C   UNL     1      -9.119  12.344  67.508  1.00  0.00    -0.185 C  
BRANCH  12  18
HETATM   18  C   UNL     1      -7.285  10.841  66.906  1.00  0.00    -0.115 C  
HETATM   19  O   UNL     1      -6.521  10.772  65.951  1.00  0.00    -0.125 OA 
BRANCH  18  20
HETATM   20  O   UNL     1      -6.871  10.846  68.211  1.00  0.00    -0.065 OA 
HETATM   21  C   UNL     1      -5.543  11.314  68.429  1.00  0.00    -0.042 C  
ENDBRANCH  18  20
ENDBRANCH  12  18
BRANCH  15  22
HETATM   22  C   UNL     1     -10.501  14.085  65.308  1.00  0.00    -0.382 C  
BRANCH  22  23
HETATM   23  C   UNL     1     -10.773  15.387  66.068  1.00  0.00    -0.326 C  
BRANCH  23  24
HETATM   24  C   UNL     1     -10.740  16.557  65.120  1.00  0.00    -0.244 C  
HETATM   25  O   UNL     1     -11.313  16.609  64.040  1.00  0.00    -1.120 OA 
BRANCH  24  26
HETATM   26  O   UNL     1     -10.004  17.569  65.661  1.00  0.00    -0.561 OA 
HETATM   27  C   UNL     1     -10.344  17.856  67.015  1.00  0.00    -0.362 C  
ENDBRANCH  24  26
ENDBRANCH  23  24
ENDBRANCH  22  23
ENDBRANCH  15  22
ENDBRANCH   4  12
ENDBRANCH   2   3
TORSDOF 9
ENDMDL
MODEL       59
REMARK 921   NORMALIZED FREE ENERGY PREDICTED BY IDOCK:   -4.72 KCAL/MOL
REMARK 922        TOTAL FREE ENERGY PREDICTED BY IDOCK:   -7.39 KCAL/MOL
REMARK 923 INTER-LIGAND FREE ENERGY PREDICTED BY IDOCK:   -7.16 KCAL/MOL
REMARK 924 INTRA-LIGAND FREE ENERGY PREDICTED BY IDOCK:   -0.23 KCAL/MOL
REMARK 927      BINDING AFFINITY PREDICTED BY RF-SCORE:    0.00 PKD
ROOT
HETATM    1  C   UNL     1      -8.697  17.873  66.688  1.00  0.00    -0.280 C  
HETATM    2  C   UNL     1     -10.138  17.483  66.983  1.00  0.00    -0.323 C  
ENDROOT
BRANCH   2   3
HETATM    3  C   UNL     1     -10.528  16.208  66.239  1.00  0.00    -0.315 C  
HETATM    4  N   UNL     1     -11.039  15.119  66.965  1.00  0.00    -0.334 N  
HETATM    5  O   UNL     1     -10.376  16.184  65.015  1.00  0.00    -0.573 OA 
BRANCH   4   6
HETATM    6  C   UNL     1     -11.244  15.218  68.396  1.00  0.00    -0.309 A  
HETATM    7  C   UNL     1     -12.525  15.263  68.973  1.00  0.00     0.079 A  
HETATM    8  C   UNL     1     -12.696  15.330  70.360  1.00  0.00    -0.400 A  
HETATM    9  C   UNL     1     -10.141  15.292  69.257  1.00  0.00    -0.252 A  
HETATM   10  C   UNL     1     -11.589  15.367  71.198  1.00  0.00    -0.425 A  
HETATM   11  C   UNL     1     -10.311  15.359  70.648  1.00  0.00     0.065 A  
ENDBRANCH   4   6
BRANCH   4  12
HETATM   12  C   UNL     1     -11.080  13.725  66.329  1.00  0.00    -0.302 C  
HETATM   13  C   UNL     1      -9.681  13.336  65.771  1.00  0.00    -0.149 C  
HETATM   14  C   UNL     1      -8.691  13.123  66.922  1.00  0.00    -0.148 C  
HETATM   15  N   UNL     1      -9.072  12.028  67.824  1.00  0.00    -0.179 NA 
HETATM   16  C   UNL     1     -10.432  12.257  68.348  1.00  0.00    -0.233 C  
HETATM   17  C   UNL     1     -11.467  12.531  67.255  1.00  0.00    -0.416 C  
BRANCH  12  18
HETATM   18  C   UNL     1     -12.155  13.688  65.214  1.00  0.00    -0.406 C  
HETATM   19  O   UNL     1     -13.283  14.155  65.316  1.00  0.00    -0.760 OA 
BRANCH  18  20
HETATM   20  O   UNL     1     -11.674  13.106  64.072  1.00  0.00    -0.390 OA 
HETATM   21  C   UNL     1     -12.375  11.944  63.637  1.00  0.00    -0.481 C  
ENDBRANCH  18  20
ENDBRANCH  12  18
BRANCH  15  22
HETATM   22  C   UNL     1      -8.945  10.681  67.231  1.00  0.00    -0.136 C  
BRANCH  22  23
HETATM   23  C   UNL     1      -8.988   9.543  68.254  1.00  0.00    -0.124 C  
BRANCH  23  24
HETATM   24  C   UNL     1      -7.967   9.779  69.336  1.00  0.00    -0.125 C  
HETATM   25  O   UNL     1      -8.221   9.988  70.514  1.00  0.00    -0.160 OA 
BRANCH  24  26
HETATM   26  O   UNL     1      -6.711   9.690  68.813  1.00  0.00    -0.051 OA 
HETATM   27  C   UNL     1      -5.828   8.887  69.593  1.00  0.00    -0.033 C  
ENDBRANCH  24  26
ENDBRANCH  23  24
ENDBRANCH  22  23
ENDBRANCH  15  22
ENDBRANCH   4  12
ENDBRANCH   2   3
TORSDOF 9
ENDMDL
MODEL       60
REMARK 921   NORMALIZED FREE ENERGY PREDICTED BY IDOCK:   -4.68 KCAL/MOL
REMARK 922        TOTAL FREE ENERGY PREDICTED BY IDOCK:   -7.32 KCAL/MOL
REMARK 923 INTER-LIGAND FREE ENERGY PREDICTED BY IDOCK:   -7.36 KCAL/MOL
REMARK 924 INTRA-LIGAND FREE ENERGY PREDICTED BY IDOCK:    0.04 KCAL/MOL
REMARK 927      BINDING AFFINITY PREDICTED BY RF-SCORE:    0.00 PKD
ROOT
HETATM    1  C   UNL     1      -9.294  16.009  65.857  1.00  0.00    -0.335 C  
HETATM    2  C   UNL     1     -10.052  15.032  66.746  1.00  0.00    -0.257 C  
ENDROOT
BRANCH   2   3
HETATM    3  C   UNL     1      -9.180  13.835  67.117  1.00  0.00    -0.243 C  
HETATM    4  N   UNL     1      -9.426  12.593  66.508  1.00  0.00    -0.246 N  
HETATM    5  O   UNL     1      -8.284  14.008  67.946  1.00  0.00    -0.134 OA 
BRANCH   4   6
HETATM    6  C   UNL     1     -10.460  12.455  65.504  1.00  0.00    -0.275 A  
HETATM    7  C   UNL     1     -11.808  12.760  65.762  1.00  0.00    -0.484 A  
HETATM    8  C   UNL     1     -12.784  12.644  64.767  1.00  0.00    -0.460 A  
HETATM    9  C   UNL     1     -10.136  11.984  64.225  1.00  0.00    -0.319 A  
HETATM   10  C   UNL     1     -12.435  12.209  63.495  1.00  0.00    -0.666 A  
HETATM   11  C   UNL     1     -11.113  11.868  63.225  1.00  0.00    -0.390 A  
ENDBRANCH   4   6
BRANCH   4  12
HETATM   12  C   UNL     1      -8.843  11.312  67.119  1.00  0.00    -0.153 C  
HETATM   13  C   UNL     1      -8.858  11.389  68.672  1.00  0.00    -0.126 C  
HETATM   14  C   UNL     1     -10.300  11.352  69.191  1.00  0.00    -0.094 C  
HETATM   15  N   UNL     1     -11.010  10.111  68.854  1.00  0.00    -0.227 NA 
HETATM   16  C   UNL     1     -10.981   9.896  67.394  1.00  0.00    -0.145 C  
HETATM   17  C   UNL     1      -9.575   9.973  66.796  1.00  0.00    -0.228 C  
BRANCH  12  18
HETATM   18  C   UNL     1      -7.407  11.083  66.585  1.00  0.00    -0.143 C  
HETATM   19  O   UNL     1      -6.414  11.690  66.970  1.00  0.00    -0.124 OA 
BRANCH  18  20
HETATM   20  O   UNL     1      -7.371  10.081  65.654  1.00  0.00    -0.113 OA 
HETATM   21  C   UNL     1      -6.380  10.224  64.639  1.00  0.00    -0.108 C  
ENDBRANCH  18  20
ENDBRANCH  12  18
BRANCH  15  22
HETATM   22  C   UNL     1     -10.530   8.919  69.581  1.00  0.00    -0.216 C  
BRANCH  22  23
HETATM   23  C   UNL     1     -10.330   9.143  71.083  1.00  0.00    -0.387 C  
BRANCH  23  24
HETATM   24  C   UNL     1     -11.661   9.152  71.788  1.00  0.00    -0.387 C  
HETATM   25  O   UNL     1     -12.458  10.080  71.783  1.00  0.00    -0.389 OA 
BRANCH  24  26
HETATM   26  O   UNL     1     -11.863   7.954  72.407  1.00  0.00    -0.335 OA 
HETATM   27  C   UNL     1     -12.701   7.069  71.668  1.00  0.00    -0.377 C  
ENDBRANCH  24  26
ENDBRANCH  23  24
ENDBRANCH  22  23
ENDBRANCH  15  22
ENDBRANCH   4  12
ENDBRANCH   2   3
TORSDOF 9
ENDMDL
MODEL       61
REMARK 921   NORMALIZED FREE ENERGY PREDICTED BY IDOCK:   -4.65 KCAL/MOL
REMARK 922        TOTAL FREE ENERGY PREDICTED BY IDOCK:   -7.28 KCAL/MOL
REMARK 923 INTER-LIGAND FREE ENERGY PREDICTED BY IDOCK:   -7.39 KCAL/MOL
REMARK 924 INTRA-LIGAND FREE ENERGY PREDICTED BY IDOCK:    0.11 KCAL/MOL
REMARK 927      BINDING AFFINITY PREDICTED BY RF-SCORE:    0.00 PKD
ROOT
HETATM    1  C   UNL     1      -9.128  19.834  66.610  1.00  0.00    -0.452 C  
HETATM    2  C   UNL     1      -8.697  18.674  67.497  1.00  0.00    -0.284 C  
ENDROOT
BRANCH   2   3
HETATM    3  C   UNL     1      -9.846  17.694  67.721  1.00  0.00    -0.292 C  
HETATM    4  N   UNL     1      -9.556  16.369  68.087  1.00  0.00    -0.224 N  
HETATM    5  O   UNL     1     -10.997  18.111  67.571  1.00  0.00    -0.324 OA 
BRANCH   4   6
HETATM    6  C   UNL     1      -8.187  15.945  68.298  1.00  0.00    -0.152 A  
HETATM    7  C   UNL     1      -7.241  15.905  67.259  1.00  0.00    -0.251 A  
HETATM    8  C   UNL     1      -5.918  15.516  67.495  1.00  0.00    -0.099 A  
HETATM    9  C   UNL     1      -7.770  15.536  69.572  1.00  0.00    -0.197 A  
HETATM   10  C   UNL     1      -5.516  15.148  68.772  1.00  0.00    -0.091 A  
HETATM   11  C   UNL     1      -6.444  15.147  69.810  1.00  0.00    -0.166 A  
ENDBRANCH   4   6
BRANCH   4  12
HETATM   12  C   UNL     1     -10.631  15.284  67.949  1.00  0.00    -0.260 C  
HETATM   13  C   UNL     1     -11.549  15.573  66.727  1.00  0.00     0.132 C  
HETATM   14  C   UNL     1     -10.764  15.400  65.422  1.00  0.00    -0.400 C  
HETATM   15  N   UNL     1     -10.261  14.035  65.219  1.00  0.00    -0.360 NA 
HETATM   16  C   UNL     1      -9.439  13.626  66.375  1.00  0.00    -0.234 C  
HETATM   17  C   UNL     1     -10.140  13.821  67.720  1.00  0.00    -0.245 C  
BRANCH  12  18
HETATM   18  C   UNL     1     -11.456  15.194  69.257  1.00  0.00    -0.311 C  
HETATM   19  O   UNL     1     -12.355  14.387  69.462  1.00  0.00    -0.305 OA 
BRANCH  18  20
HETATM   20  O   UNL     1     -11.026  16.104  70.185  1.00  0.00    -0.337 OA 
HETATM   21  C   UNL     1     -11.635  16.000  71.470  1.00  0.00    -0.456 C  
ENDBRANCH  18  20
ENDBRANCH  12  18
BRANCH  15  22
HETATM   22  C   UNL     1     -11.310  13.038  64.927  1.00  0.00    -0.303 C  
BRANCH  22  23
HETATM   23  C   UNL     1     -11.148  12.339  63.575  1.00  0.00    -0.533 C  
BRANCH  23  24
HETATM   24  C   UNL     1     -10.387  11.050  63.745  1.00  0.00    -0.364 C  
HETATM   25  O   UNL     1      -9.733  10.495  62.873  1.00  0.00    -0.317 OA 
BRANCH  24  26
HETATM   26  O   UNL     1     -10.507  10.610  65.030  1.00  0.00    -0.295 OA 
HETATM   27  C   UNL     1      -9.574   9.586  65.367  1.00  0.00    -0.272 C  
ENDBRANCH  24  26
ENDBRANCH  23  24
ENDBRANCH  22  23
ENDBRANCH  15  22
ENDBRANCH   4  12
ENDBRANCH   2   3
TORSDOF 9
ENDMDL
MODEL       62
REMARK 921   NORMALIZED FREE ENERGY PREDICTED BY IDOCK:   -4.62 KCAL/MOL
REMARK 922        TOTAL FREE ENERGY PREDICTED BY IDOCK:   -7.23 KCAL/MOL
REMARK 923 INTER-LIGAND FREE ENERGY PREDICTED BY IDOCK:   -7.14 KCAL/MOL
REMARK 924 INTRA-LIGAND FREE ENERGY PREDICTED BY IDOCK:   -0.09 KCAL/MOL
REMARK 927      BINDING AFFINITY PREDICTED BY RF-SCORE:    0.00 PKD
ROOT
HETATM    1  C   UNL     1     -10.344  15.326  67.987  1.00  0.00    -0.244 C  
HETATM    2  C   UNL     1      -9.661  14.815  66.726  1.00  0.00    -0.267 C  
ENDROOT
BRANCH   2   3
HETATM    3  C   UNL     1      -8.855  13.549  67.009  1.00  0.00    -0.211 C  
HETATM    4  N   UNL     1      -9.212  12.352  66.368  1.00  0.00    -0.221 N  
HETATM    5  O   UNL     1      -7.912  13.630  67.801  1.00  0.00    -0.142 OA 
BRANCH   4   6
HETATM    6  C   UNL     1     -10.298  12.323  65.410  1.00  0.00    -0.269 A  
HETATM    7  C   UNL     1     -11.632  12.576  65.775  1.00  0.00    -0.439 A  
HETATM    8  C   UNL     1     -12.660  12.569  64.825  1.00  0.00    -0.493 A  
HETATM    9  C   UNL     1     -10.040  12.014  64.068  1.00  0.00    -0.361 A  
HETATM   10  C   UNL     1     -12.377  12.295  63.494  1.00  0.00    -0.670 A  
HETATM   11  C   UNL     1     -11.069  12.007  63.115  1.00  0.00    -0.265 A  
ENDBRANCH   4   6
BRANCH   4  12
HETATM   12  C   UNL     1      -8.690  11.012  66.901  1.00  0.00    -0.148 C  
HETATM   13  C   UNL     1      -8.602  11.036  68.453  1.00  0.00    -0.149 C  
HETATM   14  C   UNL     1     -10.008  11.085  69.063  1.00  0.00    -0.167 C  
HETATM   15  N   UNL     1     -10.828   9.912  68.735  1.00  0.00    -0.221 NA 
HETATM   16  C   UNL     1     -10.905   9.746  67.271  1.00  0.00    -0.177 C  
HETATM   17  C   UNL     1      -9.538   9.741  66.585  1.00  0.00    -0.239 C  
BRANCH  12  18
HETATM   18  C   UNL     1      -7.310  10.699  66.269  1.00  0.00    -0.137 C  
HETATM   19  O   UNL     1      -6.241  11.148  66.667  1.00  0.00    -0.108 OA 
BRANCH  18  20
HETATM   20  O   UNL     1      -7.422   9.814  65.231  1.00  0.00    -0.108 OA 
HETATM   21  C   UNL     1      -6.469   9.976  64.184  1.00  0.00    -0.131 C  
ENDBRANCH  18  20
ENDBRANCH  12  18
BRANCH  15  22
HETATM   22  C   UNL     1     -10.394   8.664  69.394  1.00  0.00    -0.218 C  
BRANCH  22  23
HETATM   23  C   UNL     1     -11.103   8.380  70.721  1.00  0.00    -0.286 C  
BRANCH  23  24
HETATM   24  C   UNL     1     -11.765   7.028  70.677  1.00  0.00    -0.338 C  
HETATM   25  O   UNL     1     -11.586   6.180  69.813  1.00  0.00    -0.405 OA 
BRANCH  24  26
HETATM   26  O   UNL     1     -12.570   6.872  71.766  1.00  0.00    -0.350 OA 
HETATM   27  C   UNL     1     -13.890   7.374  71.571  1.00  0.00    -0.374 C  
ENDBRANCH  24  26
ENDBRANCH  23  24
ENDBRANCH  22  23
ENDBRANCH  15  22
ENDBRANCH   4  12
ENDBRANCH   2   3
TORSDOF 9
ENDMDL
MODEL       63
REMARK 921   NORMALIZED FREE ENERGY PREDICTED BY IDOCK:   -4.60 KCAL/MOL
REMARK 922        TOTAL FREE ENERGY PREDICTED BY IDOCK:   -7.21 KCAL/MOL
REMARK 923 INTER-LIGAND FREE ENERGY PREDICTED BY IDOCK:   -6.91 KCAL/MOL
REMARK 924 INTRA-LIGAND FREE ENERGY PREDICTED BY IDOCK:   -0.29 KCAL/MOL
REMARK 927      BINDING AFFINITY PREDICTED BY RF-SCORE:    0.00 PKD
ROOT
HETATM    1  C   UNL     1      -5.995   5.188  71.849  1.00  0.00    -0.025 C  
HETATM    2  C   UNL     1      -7.183   5.585  72.713  1.00  0.00    -0.090 C  
ENDROOT
BRANCH   2   3
HETATM    3  C   UNL     1      -8.130   6.514  71.956  1.00  0.00    -0.107 C  
HETATM    4  N   UNL     1      -9.433   6.076  71.666  1.00  0.00    -0.149 N  
HETATM    5  O   UNL     1      -7.707   7.624  71.626  1.00  0.00    -0.081 OA 
BRANCH   4   6
HETATM    6  C   UNL     1      -9.895   4.781  72.120  1.00  0.00    -0.172 A  
HETATM    7  C   UNL     1      -9.701   3.606  71.372  1.00  0.00    -0.241 A  
HETATM    8  C   UNL     1     -10.133   2.363  71.846  1.00  0.00    -0.174 A  
HETATM    9  C   UNL     1     -10.580   4.669  73.337  1.00  0.00    -0.293 A  
HETATM   10  C   UNL     1     -10.779   2.270  73.071  1.00  0.00    -0.246 A  
HETATM   11  C   UNL     1     -11.014   3.423  73.813  1.00  0.00    -0.307 A  
ENDBRANCH   4   6
BRANCH   4  12
HETATM   12  C   UNL     1     -10.265   6.803  70.603  1.00  0.00    -0.195 C  
HETATM   13  C   UNL     1     -11.785   6.650  70.897  1.00  0.00    -0.431 C  
HETATM   14  C   UNL     1     -12.159   7.424  72.166  1.00  0.00    -0.252 C  
HETATM   15  N   UNL     1     -11.924   8.870  72.060  1.00  0.00    -0.362 NA 
HETATM   16  C   UNL     1     -10.517   9.125  71.695  1.00  0.00    -0.332 C  
HETATM   17  C   UNL     1     -10.056   8.343  70.464  1.00  0.00    -0.211 C  
BRANCH  12  18
HETATM   18  C   UNL     1      -9.912   6.257  69.196  1.00  0.00    -0.150 C  
HETATM   19  O   UNL     1      -8.774   6.039  68.797  1.00  0.00    -0.111 OA 
BRANCH  18  20
HETATM   20  O   UNL     1     -11.037   6.001  68.460  1.00  0.00    -0.313 OA 
HETATM   21  C   UNL     1     -10.974   6.393  67.091  1.00  0.00    -0.399 C  
ENDBRANCH  18  20
ENDBRANCH  12  18
BRANCH  15  22
HETATM   22  C   UNL     1     -12.851   9.570  71.147  1.00  0.00    -0.284 C  
BRANCH  22  23
HETATM   23  C   UNL     1     -12.730  11.096  71.185  1.00  0.00    -0.510 C  
BRANCH  23  24
HETATM   24  C   UNL     1     -12.278  11.614  69.844  1.00  0.00    -0.239 C  
HETATM   25  O   UNL     1     -12.261  10.968  68.805  1.00  0.00    -0.546 OA 
BRANCH  24  26
HETATM   26  O   UNL     1     -11.920  12.925  69.953  1.00  0.00    -0.324 OA 
HETATM   27  C   UNL     1     -12.532  13.589  71.056  1.00  0.00    -0.369 C  
ENDBRANCH  24  26
ENDBRANCH  23  24
ENDBRANCH  22  23
ENDBRANCH  15  22
ENDBRANCH   4  12
ENDBRANCH   2   3
TORSDOF 9
ENDMDL
MODEL       64
REMARK 921   NORMALIZED FREE ENERGY PREDICTED BY IDOCK:   -4.58 KCAL/MOL
REMARK 922        TOTAL FREE ENERGY PREDICTED BY IDOCK:   -7.17 KCAL/MOL
REMARK 923 INTER-LIGAND FREE ENERGY PREDICTED BY IDOCK:   -7.01 KCAL/MOL
REMARK 924 INTRA-LIGAND FREE ENERGY PREDICTED BY IDOCK:   -0.16 KCAL/MOL
REMARK 927      BINDING AFFINITY PREDICTED BY RF-SCORE:    0.00 PKD
ROOT
HETATM    1  C   UNL     1     -10.779   5.890  67.274  1.00  0.00    -0.380 C  
HETATM    2  C   UNL     1      -9.642   6.306  68.196  1.00  0.00    -0.115 C  
ENDROOT
BRANCH   2   3
HETATM    3  C   UNL     1      -9.071   7.663  67.790  1.00  0.00    -0.130 C  
HETATM    4  N   UNL     1      -9.215   8.756  68.660  1.00  0.00    -0.141 N  
HETATM    5  O   UNL     1      -8.499   7.745  66.700  1.00  0.00    -0.120 OA 
BRANCH   4   6
HETATM    6  C   UNL     1      -9.852   8.593  69.950  1.00  0.00    -0.183 A  
HETATM    7  C   UNL     1     -11.237   8.390  70.088  1.00  0.00    -0.136 A  
HETATM    8  C   UNL     1     -11.824   8.209  71.345  1.00  0.00    -0.329 A  
HETATM    9  C   UNL     1      -9.086   8.655  71.122  1.00  0.00    -0.263 A  
HETATM   10  C   UNL     1     -11.041   8.238  72.491  1.00  0.00    -0.439 A  
HETATM   11  C   UNL     1      -9.673   8.472  72.383  1.00  0.00    -0.357 A  
ENDBRANCH   4   6
BRANCH   4  12
HETATM   12  C   UNL     1      -9.004  10.183  68.139  1.00  0.00    -0.122 C  
HETATM   13  C   UNL     1      -9.584  10.334  66.704  1.00  0.00    -0.220 C  
HETATM   14  C   UNL     1     -11.114  10.239  66.738  1.00  0.00     0.099 C  
HETATM   15  N   UNL     1     -11.747  11.301  67.531  1.00  0.00    -0.599 NA 
HETATM   16  C   UNL     1     -11.199  11.301  68.901  1.00  0.00    -0.253 C  
HETATM   17  C   UNL     1      -9.671  11.341  68.945  1.00  0.00    -0.141 C  
BRANCH  12  18
HETATM   18  C   UNL     1      -7.495  10.535  68.171  1.00  0.00    -0.090 C  
HETATM   19  O   UNL     1      -6.675  10.167  67.338  1.00  0.00    -0.071 OA 
BRANCH  18  20
HETATM   20  O   UNL     1      -7.192  11.352  69.226  1.00  0.00    -0.118 OA 
HETATM   21  C   UNL     1      -6.077  10.945  70.014  1.00  0.00    -0.121 C  
ENDBRANCH  18  20
ENDBRANCH  12  18
BRANCH  15  22
HETATM   22  C   UNL     1     -11.668  12.644  66.921  1.00  0.00    -0.383 C  
BRANCH  22  23
HETATM   23  C   UNL     1     -12.131  12.696  65.463  1.00  0.00    -0.515 C  
BRANCH  23  24
HETATM   24  C   UNL     1     -12.052  14.107  64.943  1.00  0.00    -0.428 C  
HETATM   25  O   UNL     1     -12.694  14.551  64.001  1.00  0.00    -0.759 OA 
BRANCH  24  26
HETATM   26  O   UNL     1     -11.181  14.831  65.703  1.00  0.00    -0.332 OA 
HETATM   27  C   UNL     1     -10.870  16.107  65.149  1.00  0.00    -0.361 C  
ENDBRANCH  24  26
ENDBRANCH  23  24
ENDBRANCH  22  23
ENDBRANCH  15  22
ENDBRANCH   4  12
ENDBRANCH   2   3
TORSDOF 9
ENDMDL
MODEL       65
REMARK 921   NORMALIZED FREE ENERGY PREDICTED BY IDOCK:   -4.58 KCAL/MOL
REMARK 922        TOTAL FREE ENERGY PREDICTED BY IDOCK:   -7.17 KCAL/MOL
REMARK 923 INTER-LIGAND FREE ENERGY PREDICTED BY IDOCK:   -7.00 KCAL/MOL
REMARK 924 INTRA-LIGAND FREE ENERGY PREDICTED BY IDOCK:   -0.17 KCAL/MOL
REMARK 927      BINDING AFFINITY PREDICTED BY RF-SCORE:    0.00 PKD
ROOT
HETATM    1  C   UNL     1      -7.295   6.771  70.930  1.00  0.00    -0.082 C  
HETATM    2  C   UNL     1      -7.131   7.836  69.855  1.00  0.00    -0.062 C  
ENDROOT
BRANCH   2   3
HETATM    3  C   UNL     1      -8.178   8.937  70.005  1.00  0.00    -0.122 C  
HETATM    4  N   UNL     1      -9.315   8.919  69.181  1.00  0.00    -0.148 N  
HETATM    5  O   UNL     1      -7.981   9.809  70.855  1.00  0.00    -0.279 OA 
BRANCH   4   6
HETATM    6  C   UNL     1      -9.522   7.844  68.232  1.00  0.00    -0.144 A  
HETATM    7  C   UNL     1     -10.553   6.898  68.377  1.00  0.00    -0.249 A  
HETATM    8  C   UNL     1     -10.748   5.885  67.432  1.00  0.00    -0.370 A  
HETATM    9  C   UNL     1      -8.665   7.707  67.132  1.00  0.00    -0.125 A  
HETATM   10  C   UNL     1      -9.909   5.789  66.330  1.00  0.00    -0.136 A  
HETATM   11  C   UNL     1      -8.860   6.692  66.183  1.00  0.00    -0.160 A  
ENDBRANCH   4   6
BRANCH   4  12
HETATM   12  C   UNL     1     -10.176  10.180  69.035  1.00  0.00    -0.206 C  
HETATM   13  C   UNL     1      -9.284  11.454  69.015  1.00  0.00     0.055 C  
HETATM   14  C   UNL     1      -8.450  11.497  67.729  1.00  0.00    -0.137 C  
HETATM   15  N   UNL     1      -9.263  11.569  66.509  1.00  0.00    -0.189 NA 
HETATM   16  C   UNL     1     -10.214  10.441  66.470  1.00  0.00    -0.229 C  
HETATM   17  C   UNL     1     -11.046  10.302  67.746  1.00  0.00    -0.335 C  
BRANCH  12  18
HETATM   18  C   UNL     1     -11.212  10.242  70.185  1.00  0.00    -0.318 C  
HETATM   19  O   UNL     1     -11.108   9.650  71.253  1.00  0.00    -0.346 OA 
BRANCH  18  20
HETATM   20  O   UNL     1     -12.249  11.083  69.881  1.00  0.00    -0.325 OA 
HETATM   21  C   UNL     1     -12.464  12.147  70.805  1.00  0.00    -0.271 C  
ENDBRANCH  18  20
ENDBRANCH  12  18
BRANCH  15  22
HETATM   22  C   UNL     1      -9.954  12.860  66.314  1.00  0.00    -0.270 C  
BRANCH  22  23
HETATM   23  C   UNL     1     -10.885  12.893  65.099  1.00  0.00    -0.320 C  
BRANCH  23  24
HETATM   24  C   UNL     1     -12.282  13.261  65.525  1.00  0.00    -0.457 C  
HETATM   25  O   UNL     1     -12.566  14.075  66.393  1.00  0.00    -0.428 OA 
BRANCH  24  26
HETATM   26  O   UNL     1     -13.189  12.575  64.773  1.00  0.00    -0.839 OA 
HETATM   27  C   UNL     1     -12.646  12.061  63.559  1.00  0.00    -0.507 C  
ENDBRANCH  24  26
ENDBRANCH  23  24
ENDBRANCH  22  23
ENDBRANCH  15  22
ENDBRANCH   4  12
ENDBRANCH   2   3
TORSDOF 9
ENDMDL
MODEL       66
REMARK 921   NORMALIZED FREE ENERGY PREDICTED BY IDOCK:   -4.57 KCAL/MOL
REMARK 922        TOTAL FREE ENERGY PREDICTED BY IDOCK:   -7.15 KCAL/MOL
REMARK 923 INTER-LIGAND FREE ENERGY PREDICTED BY IDOCK:   -6.80 KCAL/MOL
REMARK 924 INTRA-LIGAND FREE ENERGY PREDICTED BY IDOCK:   -0.35 KCAL/MOL
REMARK 927      BINDING AFFINITY PREDICTED BY RF-SCORE:    0.00 PKD
ROOT
HETATM    1  C   UNL     1     -11.965  12.257  63.687  1.00  0.00    -0.633 C  
HETATM    2  C   UNL     1     -10.492  12.288  64.068  1.00  0.00    -0.427 C  
ENDROOT
BRANCH   2   3
HETATM    3  C   UNL     1     -10.297  12.860  65.470  1.00  0.00    -0.291 C  
HETATM    4  N   UNL     1      -9.567  12.123  66.417  1.00  0.00    -0.230 N  
HETATM    5  O   UNL     1     -10.796  13.961  65.718  1.00  0.00    -0.283 OA 
BRANCH   4   6
HETATM    6  C   UNL     1      -8.961  10.858  66.058  1.00  0.00    -0.186 A  
HETATM    7  C   UNL     1      -9.721   9.703  65.801  1.00  0.00    -0.350 A  
HETATM    8  C   UNL     1      -9.112   8.499  65.431  1.00  0.00    -0.103 A  
HETATM    9  C   UNL     1      -7.566  10.747  65.977  1.00  0.00    -0.130 A  
HETATM   10  C   UNL     1      -7.731   8.421  65.321  1.00  0.00    -0.098 A  
HETATM   11  C   UNL     1      -6.955   9.541  65.604  1.00  0.00    -0.092 A  
ENDBRANCH   4   6
BRANCH   4  12
HETATM   12  C   UNL     1      -9.672  12.472  67.906  1.00  0.00    -0.205 C  
HETATM   13  C   UNL     1     -11.147  12.778  68.295  1.00  0.00    -0.288 C  
HETATM   14  C   UNL     1     -11.990  11.500  68.216  1.00  0.00    -0.169 C  
HETATM   15  N   UNL     1     -11.550  10.450  69.143  1.00  0.00    -0.205 NA 
HETATM   16  C   UNL     1     -10.125  10.143  68.914  1.00  0.00    -0.200 C  
HETATM   17  C   UNL     1      -9.226  11.380  68.926  1.00  0.00    -0.035 C  
BRANCH  12  18
HETATM   18  C   UNL     1      -8.750  13.675  68.229  1.00  0.00    -0.171 C  
HETATM   19  O   UNL     1      -9.117  14.843  68.278  1.00  0.00    -0.169 OA 
BRANCH  18  20
HETATM   20  O   UNL     1      -7.472  13.269  68.502  1.00  0.00    -0.109 OA 
HETATM   21  C   UNL     1      -6.452  13.899  67.730  1.00  0.00    -0.168 C  
ENDBRANCH  18  20
ENDBRANCH  12  18
BRANCH  15  22
HETATM   22  C   UNL     1     -11.813  10.746  70.566  1.00  0.00    -0.356 C  
BRANCH  22  23
HETATM   23  C   UNL     1     -11.587   9.557  71.503  1.00  0.00    -0.465 C  
BRANCH  23  24
HETATM   24  C   UNL     1     -12.894   8.864  71.786  1.00  0.00    -0.365 C  
HETATM   25  O   UNL     1     -13.831   9.347  72.406  1.00  0.00    -0.451 OA 
BRANCH  24  26
HETATM   26  O   UNL     1     -12.892   7.625  71.216  1.00  0.00    -0.318 OA 
HETATM   27  C   UNL     1     -11.583   7.096  71.016  1.00  0.00    -0.309 C  
ENDBRANCH  24  26
ENDBRANCH  23  24
ENDBRANCH  22  23
ENDBRANCH  15  22
ENDBRANCH   4  12
ENDBRANCH   2   3
TORSDOF 9
ENDMDL
MODEL       67
REMARK 921   NORMALIZED FREE ENERGY PREDICTED BY IDOCK:   -4.54 KCAL/MOL
REMARK 922        TOTAL FREE ENERGY PREDICTED BY IDOCK:   -7.11 KCAL/MOL
REMARK 923 INTER-LIGAND FREE ENERGY PREDICTED BY IDOCK:   -6.87 KCAL/MOL
REMARK 924 INTRA-LIGAND FREE ENERGY PREDICTED BY IDOCK:   -0.25 KCAL/MOL
REMARK 927      BINDING AFFINITY PREDICTED BY RF-SCORE:    0.00 PKD
ROOT
HETATM    1  C   UNL     1     -12.948   8.491  71.502  1.00  0.00    -0.328 C  
HETATM    2  C   UNL     1     -11.455   8.280  71.290  1.00  0.00    -0.314 C  
ENDROOT
BRANCH   2   3
HETATM    3  C   UNL     1     -10.879   9.331  70.343  1.00  0.00    -0.254 C  
HETATM    4  N   UNL     1     -10.075   8.918  69.268  1.00  0.00    -0.197 N  
HETATM    5  O   UNL     1     -11.146  10.515  70.564  1.00  0.00    -0.300 OA 
BRANCH   4   6
HETATM    6  C   UNL     1      -9.833   7.511  69.026  1.00  0.00    -0.170 A  
HETATM    7  C   UNL     1     -10.706   6.716  68.264  1.00  0.00    -0.317 A  
HETATM    8  C   UNL     1     -10.435   5.364  68.022  1.00  0.00    -0.192 A  
HETATM    9  C   UNL     1      -8.703   6.890  69.576  1.00  0.00    -0.133 A  
HETATM   10  C   UNL     1      -9.292   4.778  68.547  1.00  0.00    -0.181 A  
HETATM   11  C   UNL     1      -8.430   5.536  69.333  1.00  0.00    -0.105 A  
ENDBRANCH   4   6
BRANCH   4  12
HETATM   12  C   UNL     1      -9.186   9.935  68.542  1.00  0.00    -0.136 C  
HETATM   13  C   UNL     1      -8.695   9.362  67.182  1.00  0.00    -0.134 C  
HETATM   14  C   UNL     1      -9.871   9.227  66.208  1.00  0.00    -0.291 C  
HETATM   15  N   UNL     1     -10.512  10.509  65.885  1.00  0.00    -0.197 NA 
HETATM   16  C   UNL     1     -10.943  11.183  67.125  1.00  0.00    -0.291 C  
HETATM   17  C   UNL     1      -9.831  11.306  68.169  1.00  0.00    -0.190 C  
BRANCH  12  18
HETATM   18  C   UNL     1      -7.990  10.326  69.447  1.00  0.00    -0.159 C  
HETATM   19  O   UNL     1      -7.835   9.947  70.601  1.00  0.00    -0.278 OA 
BRANCH  18  20
HETATM   20  O   UNL     1      -7.095  11.119  68.781  1.00  0.00    -0.078 OA 
HETATM   21  C   UNL     1      -5.811  11.234  69.387  1.00  0.00    -0.057 C  
ENDBRANCH  18  20
ENDBRANCH  12  18
BRANCH  15  22
HETATM   22  C   UNL     1      -9.690  11.404  65.046  1.00  0.00    -0.250 C  
BRANCH  22  23
HETATM   23  C   UNL     1     -10.281  11.677  63.660  1.00  0.00    -0.451 C  
BRANCH  23  24
HETATM   24  C   UNL     1     -11.283  12.799  63.734  1.00  0.00    -0.443 C  
HETATM   25  O   UNL     1     -12.389  12.796  63.212  1.00  0.00    -0.630 OA 
BRANCH  24  26
HETATM   26  O   UNL     1     -10.786  13.810  64.503  1.00  0.00    -0.393 OA 
HETATM   27  C   UNL     1     -11.719  14.866  64.722  1.00  0.00    -0.402 C  
ENDBRANCH  24  26
ENDBRANCH  23  24
ENDBRANCH  22  23
ENDBRANCH  15  22
ENDBRANCH   4  12
ENDBRANCH   2   3
TORSDOF 9
ENDMDL
MODEL       68
REMARK 921   NORMALIZED FREE ENERGY PREDICTED BY IDOCK:   -4.53 KCAL/MOL
REMARK 922        TOTAL FREE ENERGY PREDICTED BY IDOCK:   -7.10 KCAL/MOL
REMARK 923 INTER-LIGAND FREE ENERGY PREDICTED BY IDOCK:   -7.42 KCAL/MOL
REMARK 924 INTRA-LIGAND FREE ENERGY PREDICTED BY IDOCK:    0.32 KCAL/MOL
REMARK 927      BINDING AFFINITY PREDICTED BY RF-SCORE:    0.00 PKD
ROOT
HETATM    1  C   UNL     1     -12.659  11.700  71.277  1.00  0.00    -0.425 C  
HETATM    2  C   UNL     1     -11.760  11.376  70.092  1.00  0.00    -0.414 C  
ENDROOT
BRANCH   2   3
HETATM    3  C   UNL     1     -11.956  12.381  68.960  1.00  0.00    -0.241 C  
HETATM    4  N   UNL     1     -11.311  12.165  67.731  1.00  0.00    -0.284 N  
HETATM    5  O   UNL     1     -12.683  13.355  69.173  1.00  0.00     0.243 OA 
BRANCH   4   6
HETATM    6  C   UNL     1     -10.508  10.979  67.518  1.00  0.00    -0.209 A  
HETATM    7  C   UNL     1     -10.952   9.898  66.737  1.00  0.00     0.009 A  
HETATM    8  C   UNL     1     -10.145   8.774  66.524  1.00  0.00    -0.349 A  
HETATM    9  C   UNL     1      -9.246  10.870  68.119  1.00  0.00    -0.158 A  
HETATM   10  C   UNL     1      -8.884   8.703  67.100  1.00  0.00    -0.138 A  
HETATM   11  C   UNL     1      -8.436   9.745  67.906  1.00  0.00    -0.125 A  
ENDBRANCH   4   6
BRANCH   4  12
HETATM   12  C   UNL     1     -11.174  13.314  66.725  1.00  0.00    -0.304 C  
HETATM   13  C   UNL     1     -11.110  14.683  67.461  1.00  0.00    -0.319 C  
HETATM   14  C   UNL     1      -9.799  14.801  68.247  1.00  0.00    -0.222 C  
HETATM   15  N   UNL     1      -8.602  14.757  67.397  1.00  0.00    -0.183 NA 
HETATM   16  C   UNL     1      -8.608  13.525  66.584  1.00  0.00     0.077 C  
HETATM   17  C   UNL     1      -9.910  13.312  65.811  1.00  0.00    -0.210 C  
BRANCH  12  18
HETATM   18  C   UNL     1     -12.354  13.275  65.721  1.00  0.00    -0.447 C  
HETATM   19  O   UNL     1     -13.222  14.136  65.631  1.00  0.00    -0.615 OA 
BRANCH  18  20
HETATM   20  O   UNL     1     -12.285  12.177  64.908  1.00  0.00    -0.358 OA 
HETATM   21  C   UNL     1     -12.522  12.424  63.525  1.00  0.00    -0.500 C  
ENDBRANCH  18  20
ENDBRANCH  12  18
BRANCH  15  22
HETATM   22  C   UNL     1      -8.411  15.955  66.555  1.00  0.00    -0.313 C  
BRANCH  22  23
HETATM   23  C   UNL     1      -8.611  17.279  67.298  1.00  0.00    -0.214 C  
BRANCH  23  24
HETATM   24  C   UNL     1      -9.842  17.980  66.786  1.00  0.00    -0.335 C  
HETATM   25  O   UNL     1     -10.149  18.100  65.608  1.00  0.00    -0.544 OA 
BRANCH  24  26
HETATM   26  O   UNL     1     -10.584  18.433  67.836  1.00  0.00    -0.394 OA 
HETATM   27  C   UNL     1      -9.894  19.374  68.654  1.00  0.00    -0.443 C  
ENDBRANCH  24  26
ENDBRANCH  23  24
ENDBRANCH  22  23
ENDBRANCH  15  22
ENDBRANCH   4  12
ENDBRANCH   2   3
TORSDOF 9
ENDMDL
MODEL       69
REMARK 921   NORMALIZED FREE ENERGY PREDICTED BY IDOCK:   -4.46 KCAL/MOL
REMARK 922        TOTAL FREE ENERGY PREDICTED BY IDOCK:   -7.00 KCAL/MOL
REMARK 923 INTER-LIGAND FREE ENERGY PREDICTED BY IDOCK:   -6.80 KCAL/MOL
REMARK 924 INTRA-LIGAND FREE ENERGY PREDICTED BY IDOCK:   -0.19 KCAL/MOL
REMARK 927      BINDING AFFINITY PREDICTED BY RF-SCORE:    0.00 PKD
ROOT
HETATM    1  C   UNL     1     -10.609  18.194  67.919  1.00  0.00    -0.389 C  
HETATM    2  C   UNL     1     -10.614  17.077  68.952  1.00  0.00    -0.328 C  
ENDROOT
BRANCH   2   3
HETATM    3  C   UNL     1     -11.116  15.768  68.346  1.00  0.00    -0.341 C  
HETATM    4  N   UNL     1     -10.192  14.872  67.784  1.00  0.00    -0.235 N  
HETATM    5  O   UNL     1     -12.330  15.548  68.374  1.00  0.00     0.047 OA 
BRANCH   4   6
HETATM    6  C   UNL     1      -8.772  15.158  67.821  1.00  0.00    -0.166 A  
HETATM    7  C   UNL     1      -8.110  15.826  66.776  1.00  0.00    -0.297 A  
HETATM    8  C   UNL     1      -6.743  16.113  66.847  1.00  0.00    -0.100 A  
HETATM    9  C   UNL     1      -8.004  14.747  68.918  1.00  0.00    -0.160 A  
HETATM   10  C   UNL     1      -6.007  15.728  67.960  1.00  0.00    -0.150 A  
HETATM   11  C   UNL     1      -6.633  15.036  68.992  1.00  0.00    -0.109 A  
ENDBRANCH   4   6
BRANCH   4  12
HETATM   12  C   UNL     1     -10.676  13.759  66.848  1.00  0.00    -0.280 C  
HETATM   13  C   UNL     1      -9.552  12.708  66.618  1.00  0.00    -0.249 C  
HETATM   14  C   UNL     1      -9.281  11.931  67.911  1.00  0.00    -0.187 C  
HETATM   15  N   UNL     1     -10.441  11.166  68.386  1.00  0.00    -0.180 NA 
HETATM   16  C   UNL     1     -11.600  12.063  68.557  1.00  0.00    -0.309 C  
HETATM   17  C   UNL     1     -11.899  12.913  67.321  1.00  0.00    -0.416 C  
BRANCH  12  18
HETATM   18  C   UNL     1     -11.150  14.371  65.506  1.00  0.00    -0.326 C  
HETATM   19  O   UNL     1     -10.628  15.334  64.955  1.00  0.00    -0.407 OA 
BRANCH  18  20
HETATM   20  O   UNL     1     -12.203  13.674  64.980  1.00  0.00    -0.380 OA 
HETATM   21  C   UNL     1     -12.017  13.194  63.651  1.00  0.00    -0.514 C  
ENDBRANCH  18  20
ENDBRANCH  12  18
BRANCH  15  22
HETATM   22  C   UNL     1     -10.785   9.999  67.548  1.00  0.00    -0.281 C  
BRANCH  22  23
HETATM   23  C   UNL     1      -9.624   9.025  67.328  1.00  0.00    -0.206 C  
BRANCH  23  24
HETATM   24  C   UNL     1     -10.087   7.609  67.546  1.00  0.00    -0.202 C  
HETATM   25  O   UNL     1     -11.023   7.073  66.968  1.00  0.00    -0.375 OA 
BRANCH  24  26
HETATM   26  O   UNL     1      -9.284   6.996  68.461  1.00  0.00    -0.138 OA 
HETATM   27  C   UNL     1      -8.099   7.732  68.758  1.00  0.00    -0.126 C  
ENDBRANCH  24  26
ENDBRANCH  23  24
ENDBRANCH  22  23
ENDBRANCH  15  22
ENDBRANCH   4  12
ENDBRANCH   2   3
TORSDOF 9
ENDMDL
MODEL       70
REMARK 921   NORMALIZED FREE ENERGY PREDICTED BY IDOCK:   -4.46 KCAL/MOL
REMARK 922        TOTAL FREE ENERGY PREDICTED BY IDOCK:   -6.99 KCAL/MOL
REMARK 923 INTER-LIGAND FREE ENERGY PREDICTED BY IDOCK:   -6.84 KCAL/MOL
REMARK 924 INTRA-LIGAND FREE ENERGY PREDICTED BY IDOCK:   -0.14 KCAL/MOL
REMARK 927      BINDING AFFINITY PREDICTED BY RF-SCORE:    0.00 PKD
ROOT
HETATM    1  C   UNL     1      -6.887   7.702  74.317  1.00  0.00    -0.119 C  
HETATM    2  C   UNL     1      -7.748   6.800  73.445  1.00  0.00    -0.092 C  
ENDROOT
BRANCH   2   3
HETATM    3  C   UNL     1      -8.804   7.606  72.692  1.00  0.00    -0.149 C  
HETATM    4  N   UNL     1      -9.919   6.943  72.154  1.00  0.00    -0.163 N  
HETATM    5  O   UNL     1      -8.632   8.823  72.585  1.00  0.00    -0.411 OA 
BRANCH   4   6
HETATM    6  C   UNL     1     -10.096   5.519  72.352  1.00  0.00    -0.179 A  
HETATM    7  C   UNL     1     -11.064   4.993  73.225  1.00  0.00    -0.406 A  
HETATM    8  C   UNL     1     -11.234   3.612  73.378  1.00  0.00    -0.264 A  
HETATM    9  C   UNL     1      -9.272   4.610  71.674  1.00  0.00    -0.183 A  
HETATM   10  C   UNL     1     -10.430   2.729  72.669  1.00  0.00    -0.184 A  
HETATM   11  C   UNL     1      -9.441   3.226  71.825  1.00  0.00    -0.215 A  
ENDBRANCH   4   6
BRANCH   4  12
HETATM   12  C   UNL     1     -10.781   7.633  71.091  1.00  0.00    -0.227 C  
HETATM   13  C   UNL     1      -9.896   8.473  70.127  1.00  0.00    -0.184 C  
HETATM   14  C   UNL     1      -9.023   7.549  69.268  1.00  0.00    -0.136 C  
HETATM   15  N   UNL     1      -9.799   6.650  68.404  1.00  0.00    -0.136 NA 
HETATM   16  C   UNL     1     -10.742   5.860  69.218  1.00  0.00    -0.331 C  
HETATM   17  C   UNL     1     -11.612   6.713  70.142  1.00  0.00    -0.446 C  
BRANCH  12  18
HETATM   18  C   UNL     1     -11.853   8.517  71.777  1.00  0.00    -0.331 C  
HETATM   19  O   UNL     1     -12.214   8.399  72.942  1.00  0.00    -0.274 OA 
BRANCH  18  20
HETATM   20  O   UNL     1     -12.321   9.485  70.931  1.00  0.00    -0.288 OA 
HETATM   21  C   UNL     1     -12.908  10.619  71.564  1.00  0.00    -0.462 C  
ENDBRANCH  18  20
ENDBRANCH  12  18
BRANCH  15  22
HETATM   22  C   UNL     1     -10.490   7.328  67.288  1.00  0.00    -0.310 C  
BRANCH  22  23
HETATM   23  C   UNL     1      -9.598   8.280  66.487  1.00  0.00    -0.312 C  
BRANCH  23  24
HETATM   24  C   UNL     1     -10.240   9.640  66.398  1.00  0.00    -0.217 C  
HETATM   25  O   UNL     1     -10.867  10.186  67.295  1.00  0.00    -0.271 OA 
BRANCH  24  26
HETATM   26  O   UNL     1      -9.988  10.190  65.176  1.00  0.00    -0.310 OA 
HETATM   27  C   UNL     1     -10.890  11.238  64.830  1.00  0.00    -0.244 C  
ENDBRANCH  24  26
ENDBRANCH  23  24
ENDBRANCH  22  23
ENDBRANCH  15  22
ENDBRANCH   4  12
ENDBRANCH   2   3
TORSDOF 9
ENDMDL
MODEL       71
REMARK 921   NORMALIZED FREE ENERGY PREDICTED BY IDOCK:   -4.44 KCAL/MOL
REMARK 922        TOTAL FREE ENERGY PREDICTED BY IDOCK:   -6.96 KCAL/MOL
REMARK 923 INTER-LIGAND FREE ENERGY PREDICTED BY IDOCK:   -6.96 KCAL/MOL
REMARK 924 INTRA-LIGAND FREE ENERGY PREDICTED BY IDOCK:   -0.01 KCAL/MOL
REMARK 927      BINDING AFFINITY PREDICTED BY RF-SCORE:    0.00 PKD
ROOT
HETATM    1  C   UNL     1     -12.162  13.639  63.248  1.00  0.00    -0.096 C  
HETATM    2  C   UNL     1     -12.179  14.380  64.577  1.00  0.00    -0.483 C  
ENDROOT
BRANCH   2   3
HETATM    3  C   UNL     1     -12.023  13.415  65.749  1.00  0.00    -0.407 C  
HETATM    4  N   UNL     1     -11.198  13.774  66.828  1.00  0.00    -0.309 N  
HETATM    5  O   UNL     1     -12.635  12.345  65.701  1.00  0.00    -0.575 OA 
BRANCH   4   6
HETATM    6  C   UNL     1     -10.540  15.064  66.857  1.00  0.00    -0.297 A  
HETATM    7  C   UNL     1      -9.476  15.387  65.997  1.00  0.00    -0.381 A  
HETATM    8  C   UNL     1      -8.875  16.650  66.027  1.00  0.00    -0.242 A  
HETATM    9  C   UNL     1     -10.948  16.037  67.780  1.00  0.00    -0.307 A  
HETATM   10  C   UNL     1      -9.318  17.612  66.925  1.00  0.00    -0.268 A  
HETATM   11  C   UNL     1     -10.347  17.304  67.810  1.00  0.00    -0.356 A  
ENDBRANCH   4   6
BRANCH   4  12
HETATM   12  C   UNL     1     -10.721  12.703  67.817  1.00  0.00    -0.220 C  
HETATM   13  C   UNL     1     -10.572  11.327  67.106  1.00  0.00    -0.274 C  
HETATM   14  C   UNL     1      -9.409  11.369  66.109  1.00  0.00    -0.215 C  
HETATM   15  N   UNL     1      -8.108  11.627  66.740  1.00  0.00    -0.163 NA 
HETATM   16  C   UNL     1      -8.166  12.879  67.519  1.00  0.00    -0.184 C  
HETATM   17  C   UNL     1      -9.337  12.931  68.500  1.00  0.00    -0.075 C  
BRANCH  12  18
HETATM   18  C   UNL     1     -11.708  12.611  69.007  1.00  0.00    -0.318 C  
HETATM   19  O   UNL     1     -12.483  13.500  69.342  1.00  0.00    -0.199 OA 
BRANCH  18  20
HETATM   20  O   UNL     1     -11.644  11.389  69.621  1.00  0.00    -0.274 OA 
HETATM   21  C   UNL     1     -12.478  11.235  70.766  1.00  0.00    -0.376 C  
ENDBRANCH  18  20
ENDBRANCH  12  18
BRANCH  15  22
HETATM   22  C   UNL     1      -7.598  10.508  67.559  1.00  0.00    -0.093 C  
BRANCH  22  23
HETATM   23  C   UNL     1      -7.960   9.123  67.017  1.00  0.00    -0.102 C  
BRANCH  23  24
HETATM   24  C   UNL     1      -8.479   8.251  68.131  1.00  0.00    -0.132 C  
HETATM   25  O   UNL     1      -7.786   7.648  68.939  1.00  0.00    -0.117 OA 
BRANCH  24  26
HETATM   26  O   UNL     1      -9.842   8.260  68.126  1.00  0.00    -0.161 OA 
HETATM   27  C   UNL     1     -10.410   7.624  66.984  1.00  0.00    -0.330 C  
ENDBRANCH  24  26
ENDBRANCH  23  24
ENDBRANCH  22  23
ENDBRANCH  15  22
ENDBRANCH   4  12
ENDBRANCH   2   3
TORSDOF 9
ENDMDL
MODEL       72
REMARK 921   NORMALIZED FREE ENERGY PREDICTED BY IDOCK:   -4.43 KCAL/MOL
REMARK 922        TOTAL FREE ENERGY PREDICTED BY IDOCK:   -6.95 KCAL/MOL
REMARK 923 INTER-LIGAND FREE ENERGY PREDICTED BY IDOCK:   -6.69 KCAL/MOL
REMARK 924 INTRA-LIGAND FREE ENERGY PREDICTED BY IDOCK:   -0.26 KCAL/MOL
REMARK 927      BINDING AFFINITY PREDICTED BY RF-SCORE:    0.00 PKD
ROOT
HETATM    1  C   UNL     1      -9.737   3.935  70.447  1.00  0.00    -0.245 C  
HETATM    2  C   UNL     1     -10.409   5.047  71.239  1.00  0.00    -0.255 C  
ENDROOT
BRANCH   2   3
HETATM    3  C   UNL     1     -10.663   6.272  70.363  1.00  0.00    -0.271 C  
HETATM    4  N   UNL     1     -10.012   7.479  70.667  1.00  0.00    -0.183 N  
HETATM    5  O   UNL     1     -11.439   6.150  69.413  1.00  0.00    -0.423 OA 
BRANCH   4   6
HETATM    6  C   UNL     1      -9.072   7.555  71.766  1.00  0.00    -0.125 A  
HETATM    7  C   UNL     1      -9.440   8.015  73.043  1.00  0.00    -0.345 A  
HETATM    8  C   UNL     1      -8.519   8.052  74.096  1.00  0.00    -0.293 A  
HETATM    9  C   UNL     1      -7.736   7.180  71.572  1.00  0.00    -0.089 A  
HETATM   10  C   UNL     1      -7.208   7.643  73.890  1.00  0.00    -0.135 A  
HETATM   11  C   UNL     1      -6.812   7.216  72.626  1.00  0.00    -0.068 A  
ENDBRANCH   4   6
BRANCH   4  12
HETATM   12  C   UNL     1     -10.519   8.795  70.065  1.00  0.00    -0.212 C  
HETATM   13  C   UNL     1      -9.387   9.861  70.044  1.00  0.00    -0.232 C  
HETATM   14  C   UNL     1      -8.299   9.460  69.040  1.00  0.00    -0.124 C  
HETATM   15  N   UNL     1      -8.784   9.376  67.657  1.00  0.00    -0.116 NA 
HETATM   16  C   UNL     1      -9.927   8.445  67.580  1.00  0.00    -0.200 C  
HETATM   17  C   UNL     1     -11.031   8.753  68.592  1.00  0.00     0.091 C  
BRANCH  12  18
HETATM   18  C   UNL     1     -11.745   9.300  70.866  1.00  0.00    -0.296 C  
HETATM   19  O   UNL     1     -12.597   8.577  71.368  1.00  0.00    -0.309 OA 
BRANCH  18  20
HETATM   20  O   UNL     1     -11.740  10.663  70.986  1.00  0.00    -0.325 OA 
HETATM   21  C   UNL     1     -12.867  11.223  71.655  1.00  0.00    -0.405 C  
ENDBRANCH  18  20
ENDBRANCH  12  18
BRANCH  15  22
HETATM   22  C   UNL     1      -9.112  10.681  67.048  1.00  0.00    -0.144 C  
BRANCH  22  23
HETATM   23  C   UNL     1     -10.089  10.593  65.872  1.00  0.00    -0.321 C  
BRANCH  23  24
HETATM   24  C   UNL     1     -11.071  11.733  65.926  1.00  0.00    -0.302 C  
HETATM   25  O   UNL     1     -11.933  11.884  66.781  1.00  0.00    -0.613 OA 
BRANCH  24  26
HETATM   26  O   UNL     1     -10.834  12.596  64.898  1.00  0.00    -0.280 OA 
HETATM   27  C   UNL     1     -11.554  12.275  63.710  1.00  0.00    -0.471 C  
ENDBRANCH  24  26
ENDBRANCH  23  24
ENDBRANCH  22  23
ENDBRANCH  15  22
ENDBRANCH   4  12
ENDBRANCH   2   3
TORSDOF 9
ENDMDL
MODEL       73
REMARK 921   NORMALIZED FREE ENERGY PREDICTED BY IDOCK:   -4.39 KCAL/MOL
REMARK 922        TOTAL FREE ENERGY PREDICTED BY IDOCK:   -6.88 KCAL/MOL
REMARK 923 INTER-LIGAND FREE ENERGY PREDICTED BY IDOCK:   -6.52 KCAL/MOL
REMARK 924 INTRA-LIGAND FREE ENERGY PREDICTED BY IDOCK:   -0.37 KCAL/MOL
REMARK 927      BINDING AFFINITY PREDICTED BY RF-SCORE:    0.00 PKD
ROOT
HETATM    1  C   UNL     1     -10.193   4.864  69.411  1.00  0.00    -0.229 C  
HETATM    2  C   UNL     1     -11.081   6.063  69.110  1.00  0.00    -0.405 C  
ENDROOT
BRANCH   2   3
HETATM    3  C   UNL     1     -10.496   6.914  67.986  1.00  0.00    -0.211 C  
HETATM    4  N   UNL     1      -9.561   7.914  68.299  1.00  0.00    -0.153 N  
HETATM    5  O   UNL     1     -10.873   6.687  66.833  1.00  0.00    -0.341 OA 
BRANCH   4   6
HETATM    6  C   UNL     1      -9.115   8.107  69.663  1.00  0.00    -0.151 A  
HETATM    7  C   UNL     1      -9.953   8.633  70.663  1.00  0.00    -0.230 A  
HETATM    8  C   UNL     1      -9.507   8.784  71.980  1.00  0.00    -0.336 A  
HETATM    9  C   UNL     1      -7.800   7.784  70.023  1.00  0.00    -0.103 A  
HETATM   10  C   UNL     1      -8.210   8.424  72.323  1.00  0.00    -0.202 A  
HETATM   11  C   UNL     1      -7.352   7.934  71.343  1.00  0.00    -0.066 A  
ENDBRANCH   4   6
BRANCH   4  12
HETATM   12  C   UNL     1      -9.247   9.016  67.279  1.00  0.00    -0.134 C  
HETATM   13  C   UNL     1     -10.560   9.650  66.735  1.00  0.00    -0.209 C  
HETATM   14  C   UNL     1     -11.264  10.443  67.843  1.00  0.00    -0.263 C  
HETATM   15  N   UNL     1     -10.468  11.567  68.352  1.00  0.00    -0.199 NA 
HETATM   16  C   UNL     1      -9.155  11.082  68.819  1.00  0.00    -0.157 C  
HETATM   17  C   UNL     1      -8.415  10.236  67.783  1.00  0.00    -0.114 C  
BRANCH  12  18
HETATM   18  C   UNL     1      -8.389   8.436  66.127  1.00  0.00    -0.125 C  
HETATM   19  O   UNL     1      -8.633   8.579  64.934  1.00  0.00    -0.171 OA 
BRANCH  18  20
HETATM   20  O   UNL     1      -7.290   7.775  66.604  1.00  0.00    -0.084 OA 
HETATM   21  C   UNL     1      -7.157   6.422  66.176  1.00  0.00    -0.067 C  
ENDBRANCH  18  20
ENDBRANCH  12  18
BRANCH  15  22
HETATM   22  C   UNL     1     -10.320  12.687  67.401  1.00  0.00    -0.220 C  
BRANCH  22  23
HETATM   23  C   UNL     1     -11.610  13.475  67.158  1.00  0.00    -0.393 C  
BRANCH  23  24
HETATM   24  C   UNL     1     -12.056  13.313  65.729  1.00  0.00    -0.441 C  
HETATM   25  O   UNL     1     -13.105  13.735  65.263  1.00  0.00    -0.756 OA 
BRANCH  24  26
HETATM   26  O   UNL     1     -11.097  12.653  65.019  1.00  0.00    -0.279 OA 
HETATM   27  C   UNL     1     -11.590  12.052  63.823  1.00  0.00    -0.476 C  
ENDBRANCH  24  26
ENDBRANCH  23  24
ENDBRANCH  22  23
ENDBRANCH  15  22
ENDBRANCH   4  12
ENDBRANCH   2   3
TORSDOF 9
ENDMDL
MODEL       74
REMARK 921   NORMALIZED FREE ENERGY PREDICTED BY IDOCK:   -4.38 KCAL/MOL
REMARK 922        TOTAL FREE ENERGY PREDICTED BY IDOCK:   -6.87 KCAL/MOL
REMARK 923 INTER-LIGAND FREE ENERGY PREDICTED BY IDOCK:   -6.93 KCAL/MOL
REMARK 924 INTRA-LIGAND FREE ENERGY PREDICTED BY IDOCK:    0.06 KCAL/MOL
REMARK 927      BINDING AFFINITY PREDICTED BY RF-SCORE:    0.00 PKD
ROOT
HETATM    1  C   UNL     1      -5.314  19.000  67.239  1.00  0.00    -0.154 C  
HETATM    2  C   UNL     1      -6.152  18.205  66.247  1.00  0.00    -0.229 C  
ENDROOT
BRANCH   2   3
HETATM    3  C   UNL     1      -6.597  16.873  66.845  1.00  0.00    -0.214 C  
HETATM    4  N   UNL     1      -7.891  16.758  67.379  1.00  0.00    -0.165 N  
HETATM    5  O   UNL     1      -5.792  15.938  66.835  1.00  0.00    -0.297 OA 
BRANCH   4   6
HETATM    6  C   UNL     1      -8.815  17.873  67.321  1.00  0.00    -0.243 A  
HETATM    7  C   UNL     1      -9.013  18.745  68.406  1.00  0.00    -0.367 A  
HETATM    8  C   UNL     1      -9.891  19.830  68.316  1.00  0.00    -0.537 A  
HETATM    9  C   UNL     1      -9.564  18.102  66.159  1.00  0.00    -0.180 A  
HETATM   10  C   UNL     1     -10.598  20.059  67.143  1.00  0.00    -0.447 A  
HETATM   11  C   UNL     1     -10.444  19.190  66.067  1.00  0.00    -0.546 A  
ENDBRANCH   4   6
BRANCH   4  12
HETATM   12  C   UNL     1      -8.236  15.589  68.310  1.00  0.00    -0.142 C  
HETATM   13  C   UNL     1      -9.673  15.749  68.883  1.00  0.00    -0.225 C  
HETATM   14  C   UNL     1     -10.710  15.574  67.768  1.00  0.00    -0.297 C  
HETATM   15  N   UNL     1     -10.682  14.243  67.147  1.00  0.00    -0.279 NA 
HETATM   16  C   UNL     1      -9.326  13.953  66.641  1.00  0.00    -0.268 C  
HETATM   17  C   UNL     1      -8.229  14.158  67.687  1.00  0.00    -0.193 C  
BRANCH  12  18
HETATM   18  C   UNL     1      -7.188  15.499  69.448  1.00  0.00    -0.204 C  
HETATM   19  O   UNL     1      -6.657  16.463  69.987  1.00  0.00    -0.110 OA 
BRANCH  18  20
HETATM   20  O   UNL     1      -6.956  14.201  69.815  1.00  0.00    -0.072 OA 
HETATM   21  C   UNL     1      -5.770  13.983  70.574  1.00  0.00    -0.162 C  
ENDBRANCH  18  20
ENDBRANCH  12  18
BRANCH  15  22
HETATM   22  C   UNL     1     -11.174  13.156  68.018  1.00  0.00    -0.277 C  
BRANCH  22  23
HETATM   23  C   UNL     1     -11.643  11.912  67.258  1.00  0.00    -0.364 C  
BRANCH  23  24
HETATM   24  C   UNL     1     -11.395  10.676  68.083  1.00  0.00    -0.284 C  
HETATM   25  O   UNL     1     -11.666  10.551  69.269  1.00  0.00    -0.260 OA 
BRANCH  24  26
HETATM   26  O   UNL     1     -10.853   9.701  67.300  1.00  0.00    -0.254 OA 
HETATM   27  C   UNL     1      -9.507   9.967  66.913  1.00  0.00    -0.163 C  
ENDBRANCH  24  26
ENDBRANCH  23  24
ENDBRANCH  22  23
ENDBRANCH  15  22
ENDBRANCH   4  12
ENDBRANCH   2   3
TORSDOF 9
ENDMDL
MODEL       75
REMARK 921   NORMALIZED FREE ENERGY PREDICTED BY IDOCK:   -4.38 KCAL/MOL
REMARK 922        TOTAL FREE ENERGY PREDICTED BY IDOCK:   -6.86 KCAL/MOL
REMARK 923 INTER-LIGAND FREE ENERGY PREDICTED BY IDOCK:   -7.26 KCAL/MOL
REMARK 924 INTRA-LIGAND FREE ENERGY PREDICTED BY IDOCK:    0.40 KCAL/MOL
REMARK 927      BINDING AFFINITY PREDICTED BY RF-SCORE:    0.00 PKD
ROOT
HETATM    1  C   UNL     1      -9.529  16.270  67.194  1.00  0.00    -0.231 C  
HETATM    2  C   UNL     1      -9.146  14.944  66.553  1.00  0.00    -0.309 C  
ENDROOT
BRANCH   2   3
HETATM    3  C   UNL     1      -9.241  13.798  67.558  1.00  0.00    -0.216 C  
HETATM    4  N   UNL     1     -10.028  12.677  67.249  1.00  0.00    -0.210 N  
HETATM    5  O   UNL     1      -8.614  13.905  68.615  1.00  0.00    -0.155 OA 
BRANCH   4   6
HETATM    6  C   UNL     1     -10.705  12.581  65.972  1.00  0.00    -0.262 A  
HETATM    7  C   UNL     1     -10.045  12.177  64.798  1.00  0.00    -0.276 A  
HETATM    8  C   UNL     1     -10.728  12.066  63.581  1.00  0.00    -0.506 A  
HETATM    9  C   UNL     1     -12.062  12.914  65.872  1.00  0.00    -0.503 A  
HETATM   10  C   UNL     1     -12.082  12.368  63.512  1.00  0.00    -0.651 A  
HETATM   11  C   UNL     1     -12.748  12.803  64.654  1.00  0.00    -0.439 A  
ENDBRANCH   4   6
BRANCH   4  12
HETATM   12  C   UNL     1     -10.448  11.706  68.359  1.00  0.00    -0.213 C  
HETATM   13  C   UNL     1     -11.036  10.400  67.752  1.00  0.00    -0.369 C  
HETATM   14  C   UNL     1      -9.934   9.603  67.043  1.00  0.00    -0.206 C  
HETATM   15  N   UNL     1      -8.858   9.168  67.942  1.00  0.00    -0.128 NA 
HETATM   16  C   UNL     1      -8.283  10.334  68.641  1.00  0.00    -0.116 C  
HETATM   17  C   UNL     1      -9.332  11.209  69.329  1.00  0.00     0.123 C  
BRANCH  12  18
HETATM   18  C   UNL     1     -11.471  12.394  69.298  1.00  0.00    -0.288 C  
HETATM   19  O   UNL     1     -11.846  11.942  70.374  1.00  0.00    -0.332 OA 
BRANCH  18  20
HETATM   20  O   UNL     1     -11.877  13.602  68.799  1.00  0.00    -0.323 OA 
HETATM   21  C   UNL     1     -12.303  14.553  69.771  1.00  0.00    -0.272 C  
ENDBRANCH  18  20
ENDBRANCH  12  18
BRANCH  15  22
HETATM   22  C   UNL     1      -9.253   8.112  68.896  1.00  0.00    -0.147 C  
BRANCH  22  23
HETATM   23  C   UNL     1      -8.351   8.016  70.130  1.00  0.00    -0.126 C  
BRANCH  23  24
HETATM   24  C   UNL     1      -9.140   8.323  71.375  1.00  0.00    -0.170 C  
HETATM   25  O   UNL     1      -8.745   9.001  72.314  1.00  0.00    -0.367 OA 
BRANCH  24  26
HETATM   26  O   UNL     1     -10.379   7.761  71.286  1.00  0.00    -0.198 OA 
HETATM   27  C   UNL     1     -11.181   7.971  72.446  1.00  0.00    -0.369 C  
ENDBRANCH  24  26
ENDBRANCH  23  24
ENDBRANCH  22  23
ENDBRANCH  15  22
ENDBRANCH   4  12
ENDBRANCH   2   3
TORSDOF 9
ENDMDL
MODEL       76
REMARK 921   NORMALIZED FREE ENERGY PREDICTED BY IDOCK:   -4.37 KCAL/MOL
REMARK 922        TOTAL FREE ENERGY PREDICTED BY IDOCK:   -6.86 KCAL/MOL
REMARK 923 INTER-LIGAND FREE ENERGY PREDICTED BY IDOCK:   -6.50 KCAL/MOL
REMARK 924 INTRA-LIGAND FREE ENERGY PREDICTED BY IDOCK:   -0.35 KCAL/MOL
REMARK 927      BINDING AFFINITY PREDICTED BY RF-SCORE:    0.00 PKD
ROOT
HETATM    1  C   UNL     1     -12.044  12.982  70.255  1.00  0.00    -0.388 C  
HETATM    2  C   UNL     1     -11.165  12.485  69.117  1.00  0.00    -0.297 C  
ENDROOT
BRANCH   2   3
HETATM    3  C   UNL     1     -11.458  13.240  67.823  1.00  0.00    -0.317 C  
HETATM    4  N   UNL     1     -10.389  13.755  67.072  1.00  0.00    -0.258 N  
HETATM    5  O   UNL     1     -12.637  13.370  67.485  1.00  0.00     0.027 OA 
BRANCH   4   6
HETATM    6  C   UNL     1      -9.020  13.533  67.489  1.00  0.00    -0.210 A  
HETATM    7  C   UNL     1      -8.174  12.614  66.842  1.00  0.00    -0.048 A  
HETATM    8  C   UNL     1      -6.847  12.437  67.247  1.00  0.00    -0.127 A  
HETATM    9  C   UNL     1      -8.500  14.232  68.586  1.00  0.00    -0.142 A  
HETATM   10  C   UNL     1      -6.341  13.166  68.316  1.00  0.00    -0.096 A  
HETATM   11  C   UNL     1      -7.169  14.056  68.993  1.00  0.00    -0.092 A  
ENDBRANCH   4   6
BRANCH   4  12
HETATM   12  C   UNL     1     -10.649  14.821  66.001  1.00  0.00    -0.312 C  
HETATM   13  C   UNL     1     -11.594  15.929  66.547  1.00  0.00     0.498 C  
HETATM   14  C   UNL     1     -10.882  16.746  67.632  1.00  0.00    -0.252 C  
HETATM   15  N   UNL     1      -9.692  17.453  67.143  1.00  0.00    -0.259 NA 
HETATM   16  C   UNL     1      -8.757  16.495  66.522  1.00  0.00    -0.282 C  
HETATM   17  C   UNL     1      -9.412  15.606  65.463  1.00  0.00    -0.164 C  
BRANCH  12  18
HETATM   18  C   UNL     1     -11.242  14.157  64.733  1.00  0.00    -0.378 C  
HETATM   19  O   UNL     1     -12.314  14.461  64.222  1.00  0.00    -0.602 OA 
BRANCH  18  20
HETATM   20  O   UNL     1     -10.396  13.212  64.219  1.00  0.00    -0.421 OA 
HETATM   21  C   UNL     1     -10.990  11.946  63.943  1.00  0.00    -0.406 C  
ENDBRANCH  18  20
ENDBRANCH  12  18
BRANCH  15  22
HETATM   22  C   UNL     1      -9.985  18.582  66.237  1.00  0.00    -0.365 C  
BRANCH  22  23
HETATM   23  C   UNL     1      -9.686  19.958  66.837  1.00  0.00    -0.532 C  
BRANCH  23  24
HETATM   24  C   UNL     1      -8.199  20.189  66.892  1.00  0.00    -0.316 C  
HETATM   25  O   UNL     1      -7.435  20.106  65.940  1.00  0.00    -0.304 OA 
BRANCH  24  26
HETATM   26  O   UNL     1      -7.832  20.540  68.157  1.00  0.00    -0.104 OA 
HETATM   27  C   UNL     1      -7.092  19.527  68.834  1.00  0.00    -0.359 C  
ENDBRANCH  24  26
ENDBRANCH  23  24
ENDBRANCH  22  23
ENDBRANCH  15  22
ENDBRANCH   4  12
ENDBRANCH   2   3
TORSDOF 9
ENDMDL
MODEL       77
REMARK 921   NORMALIZED FREE ENERGY PREDICTED BY IDOCK:   -4.34 KCAL/MOL
REMARK 922        TOTAL FREE ENERGY PREDICTED BY IDOCK:   -6.81 KCAL/MOL
REMARK 923 INTER-LIGAND FREE ENERGY PREDICTED BY IDOCK:   -6.82 KCAL/MOL
REMARK 924 INTRA-LIGAND FREE ENERGY PREDICTED BY IDOCK:    0.01 KCAL/MOL
REMARK 927      BINDING AFFINITY PREDICTED BY RF-SCORE:    0.00 PKD
ROOT
HETATM    1  C   UNL     1     -12.409  15.383  63.984  1.00  0.00     0.093 C  
HETATM    2  C   UNL     1     -12.985  14.716  65.225  1.00  0.00     0.139 C  
ENDROOT
BRANCH   2   3
HETATM    3  C   UNL     1     -12.349  13.348  65.460  1.00  0.00    -0.480 C  
HETATM    4  N   UNL     1     -11.110  13.270  66.117  1.00  0.00    -0.283 N  
HETATM    5  O   UNL     1     -12.957  12.352  65.058  1.00  0.00    -0.705 OA 
BRANCH   4   6
HETATM    6  C   UNL     1     -10.462  14.467  66.612  1.00  0.00    -0.274 A  
HETATM    7  C   UNL     1     -10.831  15.078  67.824  1.00  0.00    -0.284 A  
HETATM    8  C   UNL     1     -10.171  16.219  68.293  1.00  0.00    -0.253 A  
HETATM    9  C   UNL     1      -9.440  15.069  65.867  1.00  0.00    -0.313 A  
HETATM   10  C   UNL     1      -9.136  16.779  67.556  1.00  0.00    -0.211 A  
HETATM   11  C   UNL     1      -8.776  16.212  66.337  1.00  0.00    -0.360 A  
ENDBRANCH   4   6
BRANCH   4  12
HETATM   12  C   UNL     1     -10.278  11.985  66.033  1.00  0.00    -0.226 C  
HETATM   13  C   UNL     1      -8.988  12.111  66.893  1.00  0.00    -0.201 C  
HETATM   14  C   UNL     1      -9.346  12.152  68.383  1.00  0.00    -0.170 C  
HETATM   15  N   UNL     1     -10.015  10.934  68.857  1.00  0.00    -0.196 NA 
HETATM   16  C   UNL     1     -11.219  10.672  68.044  1.00  0.00    -0.307 C  
HETATM   17  C   UNL     1     -10.947  10.670  66.538  1.00  0.00    -0.098 C  
BRANCH  12  18
HETATM   18  C   UNL     1      -9.934  11.678  64.554  1.00  0.00    -0.253 C  
HETATM   19  O   UNL     1     -10.000  12.491  63.639  1.00  0.00    -0.355 OA 
BRANCH  18  20
HETATM   20  O   UNL     1      -9.501  10.390  64.396  1.00  0.00    -0.236 OA 
HETATM   21  C   UNL     1      -9.157  10.019  63.064  1.00  0.00    -0.279 C  
ENDBRANCH  18  20
ENDBRANCH  12  18
BRANCH  15  22
HETATM   22  C   UNL     1      -9.141   9.745  68.919  1.00  0.00    -0.148 C  
BRANCH  22  23
HETATM   23  C   UNL     1      -9.807   8.512  69.536  1.00  0.00    -0.187 C  
BRANCH  23  24
HETATM   24  C   UNL     1     -10.154   8.777  70.978  1.00  0.00    -0.237 C  
HETATM   25  O   UNL     1      -9.354   9.063  71.857  1.00  0.00    -0.341 OA 
BRANCH  24  26
HETATM   26  O   UNL     1     -11.503   8.686  71.151  1.00  0.00    -0.262 OA 
HETATM   27  C   UNL     1     -11.879   8.226  72.447  1.00  0.00    -0.396 C  
ENDBRANCH  24  26
ENDBRANCH  23  24
ENDBRANCH  22  23
ENDBRANCH  15  22
ENDBRANCH   4  12
ENDBRANCH   2   3
TORSDOF 9
ENDMDL
MODEL       78
REMARK 921   NORMALIZED FREE ENERGY PREDICTED BY IDOCK:   -4.30 KCAL/MOL
REMARK 922        TOTAL FREE ENERGY PREDICTED BY IDOCK:   -6.75 KCAL/MOL
REMARK 923 INTER-LIGAND FREE ENERGY PREDICTED BY IDOCK:   -6.67 KCAL/MOL
REMARK 924 INTRA-LIGAND FREE ENERGY PREDICTED BY IDOCK:   -0.08 KCAL/MOL
REMARK 927      BINDING AFFINITY PREDICTED BY RF-SCORE:    0.00 PKD
ROOT
HETATM    1  C   UNL     1      -6.968   7.670  71.040  1.00  0.00    -0.049 C  
HETATM    2  C   UNL     1      -7.857   8.845  71.422  1.00  0.00    -0.141 C  
ENDROOT
BRANCH   2   3
HETATM    3  C   UNL     1      -8.201   9.696  70.202  1.00  0.00    -0.187 C  
HETATM    4  N   UNL     1      -9.500   9.641  69.672  1.00  0.00    -0.196 N  
HETATM    5  O   UNL     1      -7.312  10.406  69.725  1.00  0.00    -0.138 OA 
BRANCH   4   6
HETATM    6  C   UNL     1     -10.520   8.827  70.301  1.00  0.00    -0.208 A  
HETATM    7  C   UNL     1     -11.345   9.314  71.331  1.00  0.00    -0.434 A  
HETATM    8  C   UNL     1     -12.341   8.516  71.903  1.00  0.00    -0.407 A  
HETATM    9  C   UNL     1     -10.700   7.497  69.900  1.00  0.00    -0.254 A  
HETATM   10  C   UNL     1     -12.525   7.211  71.467  1.00  0.00    -0.418 A  
HETATM   11  C   UNL     1     -11.699   6.696  70.472  1.00  0.00    -0.453 A  
ENDBRANCH   4   6
BRANCH   4  12
HETATM   12  C   UNL     1      -9.773  10.168  68.258  1.00  0.00    -0.141 C  
HETATM   13  C   UNL     1     -11.257  10.613  68.115  1.00  0.00    -0.366 C  
HETATM   14  C   UNL     1     -11.520  11.860  68.967  1.00  0.00    -0.297 C  
HETATM   15  N   UNL     1     -10.722  13.024  68.562  1.00  0.00    -0.250 NA 
HETATM   16  C   UNL     1      -9.287  12.680  68.580  1.00  0.00    -0.080 C  
HETATM   17  C   UNL     1      -8.955  11.412  67.792  1.00  0.00    -0.147 C  
BRANCH  12  18
HETATM   18  C   UNL     1      -9.415   9.080  67.215  1.00  0.00    -0.149 C  
HETATM   19  O   UNL     1      -8.605   8.178  67.396  1.00  0.00    -0.124 OA 
BRANCH  18  20
HETATM   20  O   UNL     1     -10.151   9.221  66.069  1.00  0.00    -0.297 OA 
HETATM   21  C   UNL     1      -9.419   9.636  64.919  1.00  0.00    -0.220 C  
ENDBRANCH  18  20
ENDBRANCH  12  18
BRANCH  15  22
HETATM   22  C   UNL     1     -11.117  13.610  67.265  1.00  0.00    -0.293 C  
BRANCH  22  23
HETATM   23  C   UNL     1     -11.686  15.028  67.369  1.00  0.00    -0.255 C  
BRANCH  23  24
HETATM   24  C   UNL     1     -10.581  16.042  67.230  1.00  0.00    -0.313 C  
HETATM   25  O   UNL     1      -9.644  16.177  68.004  1.00  0.00    -0.217 OA 
BRANCH  24  26
HETATM   26  O   UNL     1     -10.761  16.767  66.089  1.00  0.00    -0.240 OA 
HETATM   27  C   UNL     1     -10.391  18.137  66.225  1.00  0.00    -0.397 C  
ENDBRANCH  24  26
ENDBRANCH  23  24
ENDBRANCH  22  23
ENDBRANCH  15  22
ENDBRANCH   4  12
ENDBRANCH   2   3
TORSDOF 9
ENDMDL
MODEL       79
REMARK 921   NORMALIZED FREE ENERGY PREDICTED BY IDOCK:   -4.25 KCAL/MOL
REMARK 922        TOTAL FREE ENERGY PREDICTED BY IDOCK:   -6.66 KCAL/MOL
REMARK 923 INTER-LIGAND FREE ENERGY PREDICTED BY IDOCK:   -6.70 KCAL/MOL
REMARK 924 INTRA-LIGAND FREE ENERGY PREDICTED BY IDOCK:    0.03 KCAL/MOL
REMARK 927      BINDING AFFINITY PREDICTED BY RF-SCORE:    0.00 PKD
ROOT
HETATM    1  C   UNL     1      -6.317   9.041  69.459  1.00  0.00    -0.043 C  
HETATM    2  C   UNL     1      -6.908   8.859  68.069  1.00  0.00    -0.070 C  
ENDROOT
BRANCH   2   3
HETATM    3  C   UNL     1      -7.680  10.101  67.630  1.00  0.00    -0.091 C  
HETATM    4  N   UNL     1      -9.073  10.020  67.467  1.00  0.00    -0.134 N  
HETATM    5  O   UNL     1      -7.042  11.138  67.435  1.00  0.00    -0.091 OA 
BRANCH   4   6
HETATM    6  C   UNL     1      -9.780   8.790  67.758  1.00  0.00    -0.158 A  
HETATM    7  C   UNL     1     -10.194   7.902  66.749  1.00  0.00    -0.358 A  
HETATM    8  C   UNL     1     -10.852   6.706  67.058  1.00  0.00    -0.467 A  
HETATM    9  C   UNL     1     -10.092   8.458  69.083  1.00  0.00    -0.206 A  
HETATM   10  C   UNL     1     -11.120   6.380  68.381  1.00  0.00    -0.374 A  
HETATM   11  C   UNL     1     -10.751   7.259  69.394  1.00  0.00    -0.236 A  
ENDBRANCH   4   6
BRANCH   4  12
HETATM   12  C   UNL     1      -9.816  11.106  66.679  1.00  0.00    -0.199 C  
HETATM   13  C   UNL     1     -11.259  11.293  67.229  1.00  0.00    -0.364 C  
HETATM   14  C   UNL     1     -11.215  11.904  68.635  1.00  0.00    -0.257 C  
HETATM   15  N   UNL     1     -10.605  13.240  68.671  1.00  0.00    -0.256 NA 
HETATM   16  C   UNL     1      -9.251  13.191  68.087  1.00  0.00    -0.215 C  
HETATM   17  C   UNL     1      -9.209  12.543  66.702  1.00  0.00    -0.223 C  
BRANCH  12  18
HETATM   18  C   UNL     1      -9.836  10.740  65.174  1.00  0.00    -0.277 C  
HETATM   19  O   UNL     1     -10.803  10.883  64.433  1.00  0.00    -0.299 OA 
BRANCH  18  20
HETATM   20  O   UNL     1      -8.620  10.274  64.754  1.00  0.00    -0.168 OA 
HETATM   21  C   UNL     1      -8.417  10.281  63.343  1.00  0.00    -0.185 C  
ENDBRANCH  18  20
ENDBRANCH  12  18
BRANCH  15  22
HETATM   22  C   UNL     1     -11.423  14.298  68.044  1.00  0.00    -0.314 C  
BRANCH  22  23
HETATM   23  C   UNL     1     -11.597  15.548  68.911  1.00  0.00    -0.384 C  
BRANCH  23  24
HETATM   24  C   UNL     1     -10.754  16.674  68.373  1.00  0.00    -0.353 C  
HETATM   25  O   UNL     1     -10.186  17.519  69.051  1.00  0.00    -0.345 OA 
BRANCH  24  26
HETATM   26  O   UNL     1     -10.688  16.592  67.014  1.00  0.00    -0.278 OA 
HETATM   27  C   UNL     1     -10.380  17.834  66.385  1.00  0.00    -0.351 C  
ENDBRANCH  24  26
ENDBRANCH  23  24
ENDBRANCH  22  23
ENDBRANCH  15  22
ENDBRANCH   4  12
ENDBRANCH   2   3
TORSDOF 9
ENDMDL
MODEL       80
REMARK 921   NORMALIZED FREE ENERGY PREDICTED BY IDOCK:   -4.23 KCAL/MOL
REMARK 922        TOTAL FREE ENERGY PREDICTED BY IDOCK:   -6.65 KCAL/MOL
REMARK 923 INTER-LIGAND FREE ENERGY PREDICTED BY IDOCK:   -6.69 KCAL/MOL
REMARK 924 INTRA-LIGAND FREE ENERGY PREDICTED BY IDOCK:    0.04 KCAL/MOL
REMARK 927      BINDING AFFINITY PREDICTED BY RF-SCORE:    0.00 PKD
ROOT
HETATM    1  C   UNL     1     -11.934  12.307  63.239  1.00  0.00    -0.499 C  
HETATM    2  C   UNL     1     -10.501  12.121  63.716  1.00  0.00    -0.470 C  
ENDROOT
BRANCH   2   3
HETATM    3  C   UNL     1     -10.290  12.758  65.088  1.00  0.00    -0.295 C  
HETATM    4  N   UNL     1      -9.533  12.074  66.053  1.00  0.00    -0.234 N  
HETATM    5  O   UNL     1     -10.799  13.862  65.295  1.00  0.00    -0.304 OA 
BRANCH   4   6
HETATM    6  C   UNL     1      -8.916  10.801  65.740  1.00  0.00    -0.187 A  
HETATM    7  C   UNL     1      -9.664   9.625  65.559  1.00  0.00    -0.372 A  
HETATM    8  C   UNL     1      -9.046   8.413  65.231  1.00  0.00     0.015 A  
HETATM    9  C   UNL     1      -7.522  10.708  65.629  1.00  0.00    -0.093 A  
HETATM   10  C   UNL     1      -7.666   8.350  65.091  1.00  0.00    -0.097 A  
HETATM   11  C   UNL     1      -6.901   9.494  65.300  1.00  0.00    -0.087 A  
ENDBRANCH   4   6
BRANCH   4  12
HETATM   12  C   UNL     1      -9.617  12.488  67.527  1.00  0.00    -0.187 C  
HETATM   13  C   UNL     1     -11.095  12.495  68.012  1.00  0.00    -0.285 C  
HETATM   14  C   UNL     1     -11.643  11.064  68.060  1.00  0.00    -0.249 C  
HETATM   15  N   UNL     1     -10.926  10.195  69.002  1.00  0.00    -0.226 NA 
HETATM   16  C   UNL     1      -9.486  10.186  68.680  1.00  0.00    -0.164 C  
HETATM   17  C   UNL     1      -8.879  11.585  68.563  1.00  0.00    -0.139 C  
BRANCH  12  18
HETATM   18  C   UNL     1      -8.961  13.878  67.719  1.00  0.00    -0.188 C  
HETATM   19  O   UNL     1      -7.935  14.250  67.161  1.00  0.00    -0.185 OA 
BRANCH  18  20
HETATM   20  O   UNL     1      -9.696  14.668  68.561  1.00  0.00    -0.213 OA 
HETATM   21  C   UNL     1      -9.957  15.988  68.089  1.00  0.00    -0.228 C  
ENDBRANCH  18  20
ENDBRANCH  12  18
BRANCH  15  22
HETATM   22  C   UNL     1     -11.156  10.520  70.424  1.00  0.00    -0.244 C  
BRANCH  22  23
HETATM   23  C   UNL     1     -12.619  10.815  70.768  1.00  0.00    -0.476 C  
BRANCH  23  24
HETATM   24  C   UNL     1     -12.735  12.168  71.419  1.00  0.00    -0.263 C  
HETATM   25  O   UNL     1     -13.467  12.439  72.361  1.00  0.00    -0.503 OA 
BRANCH  24  26
HETATM   26  O   UNL     1     -11.874  13.042  70.825  1.00  0.00    -0.167 OA 
HETATM   27  C   UNL     1     -12.231  14.409  71.017  1.00  0.00    -0.351 C  
ENDBRANCH  24  26
ENDBRANCH  23  24
ENDBRANCH  22  23
ENDBRANCH  15  22
ENDBRANCH   4  12
ENDBRANCH   2   3
TORSDOF 9
ENDMDL
MODEL       81
REMARK 921   NORMALIZED FREE ENERGY PREDICTED BY IDOCK:   -4.23 KCAL/MOL
REMARK 922        TOTAL FREE ENERGY PREDICTED BY IDOCK:   -6.65 KCAL/MOL
REMARK 923 INTER-LIGAND FREE ENERGY PREDICTED BY IDOCK:   -6.27 KCAL/MOL
REMARK 924 INTRA-LIGAND FREE ENERGY PREDICTED BY IDOCK:   -0.38 KCAL/MOL
REMARK 927      BINDING AFFINITY PREDICTED BY RF-SCORE:    0.00 PKD
ROOT
HETATM    1  C   UNL     1      -5.764   5.653  68.905  1.00  0.00    -0.015 C  
HETATM    2  C   UNL     1      -6.509   5.808  70.223  1.00  0.00    -0.036 C  
ENDROOT
BRANCH   2   3
HETATM    3  C   UNL     1      -7.730   6.710  70.063  1.00  0.00    -0.102 C  
HETATM    4  N   UNL     1      -9.001   6.126  69.926  1.00  0.00    -0.139 N  
HETATM    5  O   UNL     1      -7.550   7.930  70.059  1.00  0.00    -0.080 OA 
BRANCH   4   6
HETATM    6  C   UNL     1      -9.163   4.688  69.986  1.00  0.00    -0.123 A  
HETATM    7  C   UNL     1      -9.330   3.998  71.200  1.00  0.00    -0.216 A  
HETATM    8  C   UNL     1      -9.511   2.611  71.229  1.00  0.00    -0.218 A  
HETATM    9  C   UNL     1      -9.136   3.931  68.807  1.00  0.00    -0.195 A  
HETATM   10  C   UNL     1      -9.516   1.884  70.046  1.00  0.00    -0.133 A  
HETATM   11  C   UNL     1      -9.318   2.541  68.835  1.00  0.00    -0.218 A  
ENDBRANCH   4   6
BRANCH   4  12
HETATM   12  C   UNL     1     -10.173   6.959  69.392  1.00  0.00    -0.182 C  
HETATM   13  C   UNL     1     -11.530   6.354  69.851  1.00  0.00    -0.483 C  
HETATM   14  C   UNL     1     -11.698   6.519  71.366  1.00  0.00    -0.324 C  
HETATM   15  N   UNL     1     -11.727   7.921  71.801  1.00  0.00    -0.274 NA 
HETATM   16  C   UNL     1     -10.511   8.617  71.338  1.00  0.00    -0.257 C  
HETATM   17  C   UNL     1     -10.248   8.451  69.840  1.00  0.00    -0.201 C  
BRANCH  12  18
HETATM   18  C   UNL     1     -10.094   7.043  67.847  1.00  0.00    -0.169 C  
HETATM   19  O   UNL     1     -10.665   6.279  67.076  1.00  0.00    -0.281 OA 
BRANCH  18  20
HETATM   20  O   UNL     1      -9.341   8.110  67.440  1.00  0.00    -0.137 OA 
HETATM   21  C   UNL     1      -9.772   8.740  66.236  1.00  0.00    -0.272 C  
ENDBRANCH  18  20
ENDBRANCH  12  18
BRANCH  15  22
HETATM   22  C   UNL     1     -12.947   8.654  71.408  1.00  0.00    -0.254 C  
BRANCH  22  23
HETATM   23  C   UNL     1     -13.322   9.796  72.356  1.00  0.00    -0.374 C  
BRANCH  23  24
HETATM   24  C   UNL     1     -13.155  11.123  71.662  1.00  0.00    -0.424 C  
HETATM   25  O   UNL     1     -13.313  12.218  72.183  1.00  0.00    -0.526 OA 
BRANCH  24  26
HETATM   26  O   UNL     1     -12.766  10.922  70.371  1.00  0.00    -0.309 OA 
HETATM   27  C   UNL     1     -11.921  11.954  69.867  1.00  0.00    -0.325 C  
ENDBRANCH  24  26
ENDBRANCH  23  24
ENDBRANCH  22  23
ENDBRANCH  15  22
ENDBRANCH   4  12
ENDBRANCH   2   3
TORSDOF 9
ENDMDL
MODEL       82
REMARK 921   NORMALIZED FREE ENERGY PREDICTED BY IDOCK:   -4.22 KCAL/MOL
REMARK 922        TOTAL FREE ENERGY PREDICTED BY IDOCK:   -6.62 KCAL/MOL
REMARK 923 INTER-LIGAND FREE ENERGY PREDICTED BY IDOCK:   -6.35 KCAL/MOL
REMARK 924 INTRA-LIGAND FREE ENERGY PREDICTED BY IDOCK:   -0.27 KCAL/MOL
REMARK 927      BINDING AFFINITY PREDICTED BY RF-SCORE:    0.00 PKD
ROOT
HETATM    1  C   UNL     1      -5.927  10.066  70.766  1.00  0.00    -0.095 C  
HETATM    2  C   UNL     1      -6.445   8.636  70.712  1.00  0.00    -0.043 C  
ENDROOT
BRANCH   2   3
HETATM    3  C   UNL     1      -7.970   8.603  70.655  1.00  0.00    -0.110 C  
HETATM    4  N   UNL     1      -8.603   8.159  69.482  1.00  0.00    -0.133 N  
HETATM    5  O   UNL     1      -8.593   8.973  71.653  1.00  0.00    -0.333 OA 
BRANCH   4   6
HETATM    6  C   UNL     1      -7.824   7.689  68.355  1.00  0.00    -0.121 A  
HETATM    7  C   UNL     1      -7.031   8.550  67.576  1.00  0.00    -0.079 A  
HETATM    8  C   UNL     1      -6.266   8.067  66.509  1.00  0.00    -0.050 A  
HETATM    9  C   UNL     1      -7.859   6.336  67.995  1.00  0.00    -0.104 A  
HETATM   10  C   UNL     1      -6.288   6.715  66.191  1.00  0.00    -0.042 A  
HETATM   11  C   UNL     1      -7.093   5.850  66.926  1.00  0.00    -0.070 A  
ENDBRANCH   4   6
BRANCH   4  12
HETATM   12  C   UNL     1     -10.088   8.466  69.250  1.00  0.00    -0.202 C  
HETATM   13  C   UNL     1     -10.453   9.868  69.816  1.00  0.00    -0.292 C  
HETATM   14  C   UNL     1      -9.776  10.966  68.987  1.00  0.00    -0.166 C  
HETATM   15  N   UNL     1     -10.205  10.986  67.583  1.00  0.00    -0.177 NA 
HETATM   16  C   UNL     1      -9.979   9.663  66.969  1.00  0.00    -0.206 C  
HETATM   17  C   UNL     1     -10.583   8.509  67.771  1.00  0.00    -0.242 C  
BRANCH  12  18
HETATM   18  C   UNL     1     -10.959   7.359  69.896  1.00  0.00    -0.223 C  
HETATM   19  O   UNL     1     -11.121   6.237  69.432  1.00  0.00    -0.342 OA 
BRANCH  18  20
HETATM   20  O   UNL     1     -11.496   7.774  71.085  1.00  0.00    -0.266 OA 
HETATM   21  C   UNL     1     -12.776   7.231  71.400  1.00  0.00    -0.389 C  
ENDBRANCH  18  20
ENDBRANCH  12  18
BRANCH  15  22
HETATM   22  C   UNL     1     -11.595  11.442  67.378  1.00  0.00    -0.184 C  
BRANCH  22  23
HETATM   23  C   UNL     1     -11.709  12.814  66.707  1.00  0.00    -0.459 C  
BRANCH  23  24
HETATM   24  C   UNL     1     -12.059  12.652  65.251  1.00  0.00    -0.467 C  
HETATM   25  O   UNL     1     -13.194  12.576  64.801  1.00  0.00    -0.839 OA 
BRANCH  24  26
HETATM   26  O   UNL     1     -10.920  12.638  64.502  1.00  0.00    -0.299 OA 
HETATM   27  C   UNL     1     -10.849  11.537  63.599  1.00  0.00    -0.415 C  
ENDBRANCH  24  26
ENDBRANCH  23  24
ENDBRANCH  22  23
ENDBRANCH  15  22
ENDBRANCH   4  12
ENDBRANCH   2   3
TORSDOF 9
ENDMDL
MODEL       83
REMARK 921   NORMALIZED FREE ENERGY PREDICTED BY IDOCK:   -4.21 KCAL/MOL
REMARK 922        TOTAL FREE ENERGY PREDICTED BY IDOCK:   -6.61 KCAL/MOL
REMARK 923 INTER-LIGAND FREE ENERGY PREDICTED BY IDOCK:   -6.30 KCAL/MOL
REMARK 924 INTRA-LIGAND FREE ENERGY PREDICTED BY IDOCK:   -0.31 KCAL/MOL
REMARK 927      BINDING AFFINITY PREDICTED BY RF-SCORE:    0.00 PKD
ROOT
HETATM    1  C   UNL     1     -10.387   5.737  66.858  1.00  0.00    -0.306 C  
HETATM    2  C   UNL     1     -10.800   7.077  67.448  1.00  0.00    -0.371 C  
ENDROOT
BRANCH   2   3
HETATM    3  C   UNL     1      -9.911   8.206  66.930  1.00  0.00    -0.273 C  
HETATM    4  N   UNL     1      -9.480   9.203  67.820  1.00  0.00    -0.139 N  
HETATM    5  O   UNL     1      -9.605   8.196  65.735  1.00  0.00    -0.037 OA 
BRANCH   4   6
HETATM    6  C   UNL     1      -9.829   9.140  69.225  1.00  0.00    -0.175 A  
HETATM    7  C   UNL     1     -11.141   9.347  69.686  1.00  0.00    -0.163 A  
HETATM    8  C   UNL     1     -11.457   9.253  71.046  1.00  0.00    -0.387 A  
HETATM    9  C   UNL     1      -8.837   8.884  70.181  1.00  0.00    -0.172 A  
HETATM   10  C   UNL     1     -10.466   8.964  71.974  1.00  0.00    -0.383 A  
HETATM   11  C   UNL     1      -9.153   8.789  71.545  1.00  0.00    -0.322 A  
ENDBRANCH   4   6
BRANCH   4  12
HETATM   12  C   UNL     1      -8.922  10.525  67.278  1.00  0.00    -0.139 C  
HETATM   13  C   UNL     1      -9.724  10.986  66.028  1.00  0.00    -0.265 C  
HETATM   14  C   UNL     1     -11.147  11.391  66.430  1.00  0.00    -0.240 C  
HETATM   15  N   UNL     1     -11.190  12.524  67.363  1.00  0.00    -0.276 NA 
HETATM   16  C   UNL     1     -10.381  12.222  68.560  1.00  0.00    -0.223 C  
HETATM   17  C   UNL     1      -8.961  11.758  68.233  1.00  0.00    -0.180 C  
BRANCH  12  18
HETATM   18  C   UNL     1      -7.418  10.363  66.947  1.00  0.00    -0.107 C  
HETATM   19  O   UNL     1      -6.557  10.029  67.754  1.00  0.00    -0.066 OA 
BRANCH  18  20
HETATM   20  O   UNL     1      -7.167  10.596  65.622  1.00  0.00    -0.144 OA 
HETATM   21  C   UNL     1      -6.390   9.600  64.963  1.00  0.00    -0.089 C  
ENDBRANCH  18  20
ENDBRANCH  12  18
BRANCH  15  22
HETATM   22  C   UNL     1     -10.801  13.818  66.766  1.00  0.00    -0.284 C  
BRANCH  22  23
HETATM   23  C   UNL     1     -11.815  14.942  66.997  1.00  0.00    -0.216 C  
BRANCH  23  24
HETATM   24  C   UNL     1     -11.405  15.774  68.183  1.00  0.00    -0.337 C  
HETATM   25  O   UNL     1     -10.651  16.737  68.146  1.00  0.00    -0.319 OA 
BRANCH  24  26
HETATM   26  O   UNL     1     -12.029  15.316  69.306  1.00  0.00    -0.320 OA 
HETATM   27  C   UNL     1     -11.351  15.660  70.512  1.00  0.00    -0.367 C  
ENDBRANCH  24  26
ENDBRANCH  23  24
ENDBRANCH  22  23
ENDBRANCH  15  22
ENDBRANCH   4  12
ENDBRANCH   2   3
TORSDOF 9
ENDMDL
MODEL       84
REMARK 921   NORMALIZED FREE ENERGY PREDICTED BY IDOCK:   -4.21 KCAL/MOL
REMARK 922        TOTAL FREE ENERGY PREDICTED BY IDOCK:   -6.61 KCAL/MOL
REMARK 923 INTER-LIGAND FREE ENERGY PREDICTED BY IDOCK:   -6.61 KCAL/MOL
REMARK 924 INTRA-LIGAND FREE ENERGY PREDICTED BY IDOCK:    0.01 KCAL/MOL
REMARK 927      BINDING AFFINITY PREDICTED BY RF-SCORE:    0.00 PKD
ROOT
HETATM    1  C   UNL     1     -12.875  11.699  71.457  1.00  0.00    -0.469 C  
HETATM    2  C   UNL     1     -12.848  10.245  71.010  1.00  0.00    -0.490 C  
ENDROOT
BRANCH   2   3
HETATM    3  C   UNL     1     -11.862  10.038  69.863  1.00  0.00    -0.074 C  
HETATM    4  N   UNL     1     -10.882   9.037  69.973  1.00  0.00    -0.232 N  
HETATM    5  O   UNL     1     -11.965  10.768  68.874  1.00  0.00    -0.373 OA 
BRANCH   4   6
HETATM    6  C   UNL     1     -10.836   8.174  71.136  1.00  0.00    -0.232 A  
HETATM    7  C   UNL     1     -11.664   7.046  71.271  1.00  0.00    -0.356 A  
HETATM    8  C   UNL     1     -11.581   6.213  72.393  1.00  0.00    -0.338 A  
HETATM    9  C   UNL     1      -9.956   8.464  72.187  1.00  0.00    -0.376 A  
HETATM   10  C   UNL     1     -10.677   6.499  73.407  1.00  0.00    -0.295 A  
HETATM   11  C   UNL     1      -9.871   7.630  73.312  1.00  0.00    -0.360 A  
ENDBRANCH   4   6
BRANCH   4  12
HETATM   12  C   UNL     1      -9.665   9.051  69.041  1.00  0.00    -0.167 C  
HETATM   13  C   UNL     1      -8.814   7.763  69.231  1.00  0.00    -0.139 C  
HETATM   14  C   UNL     1      -9.583   6.539  68.719  1.00  0.00    -0.126 C  
HETATM   15  N   UNL     1      -9.887   6.599  67.284  1.00  0.00    -0.137 NA 
HETATM   16  C   UNL     1     -10.627   7.838  66.978  1.00  0.00    -0.326 C  
HETATM   17  C   UNL     1      -9.944   9.101  67.506  1.00  0.00    -0.258 C  
BRANCH  12  18
HETATM   18  C   UNL     1      -8.819  10.322  69.302  1.00  0.00    -0.177 C  
HETATM   19  O   UNL     1      -8.934  11.376  68.688  1.00  0.00    -0.172 OA 
BRANCH  18  20
HETATM   20  O   UNL     1      -7.948  10.141  70.342  1.00  0.00    -0.181 OA 
HETATM   21  C   UNL     1      -6.613  10.579  70.106  1.00  0.00    -0.149 C  
ENDBRANCH  18  20
ENDBRANCH  12  18
BRANCH  15  22
HETATM   22  C   UNL     1      -8.709   6.446  66.406  1.00  0.00    -0.138 C  
BRANCH  22  23
HETATM   23  C   UNL     1      -8.910   5.453  65.258  1.00  0.00    -0.132 C  
BRANCH  23  24
HETATM   24  C   UNL     1      -9.793   4.317  65.704  1.00  0.00    -0.218 C  
HETATM   25  O   UNL     1      -9.610   3.626  66.697  1.00  0.00    -0.199 OA 
BRANCH  24  26
HETATM   26  O   UNL     1     -10.852   4.194  64.854  1.00  0.00    -0.243 OA 
HETATM   27  C   UNL     1     -10.502   3.628  63.592  1.00  0.00    -0.257 C  
ENDBRANCH  24  26
ENDBRANCH  23  24
ENDBRANCH  22  23
ENDBRANCH  15  22
ENDBRANCH   4  12
ENDBRANCH   2   3
TORSDOF 9
ENDMDL
MODEL       85
REMARK 921   NORMALIZED FREE ENERGY PREDICTED BY IDOCK:   -4.21 KCAL/MOL
REMARK 922        TOTAL FREE ENERGY PREDICTED BY IDOCK:   -6.61 KCAL/MOL
REMARK 923 INTER-LIGAND FREE ENERGY PREDICTED BY IDOCK:   -6.64 KCAL/MOL
REMARK 924 INTRA-LIGAND FREE ENERGY PREDICTED BY IDOCK:    0.03 KCAL/MOL
REMARK 927      BINDING AFFINITY PREDICTED BY RF-SCORE:    0.00 PKD
ROOT
HETATM    1  C   UNL     1      -9.611  19.568  68.118  1.00  0.00    -0.457 C  
HETATM    2  C   UNL     1     -10.382  18.353  68.612  1.00  0.00    -0.286 C  
ENDROOT
BRANCH   2   3
HETATM    3  C   UNL     1     -10.405  17.249  67.558  1.00  0.00    -0.346 C  
HETATM    4  N   UNL     1     -10.840  15.963  67.921  1.00  0.00    -0.318 N  
HETATM    5  O   UNL     1     -10.034  17.533  66.416  1.00  0.00    -0.300 OA 
BRANCH   4   6
HETATM    6  C   UNL     1     -11.311  15.695  69.264  1.00  0.00    -0.345 A  
HETATM    7  C   UNL     1     -10.467  15.764  70.387  1.00  0.00    -0.169 A  
HETATM    8  C   UNL     1     -10.952  15.527  71.677  1.00  0.00    -0.104 A  
HETATM    9  C   UNL     1     -12.647  15.334  69.479  1.00  0.00    -0.021 A  
HETATM   10  C   UNL     1     -12.289  15.204  71.871  1.00  0.00    -0.423 A  
HETATM   11  C   UNL     1     -13.136  15.096  70.772  1.00  0.00    -0.450 A  
ENDBRANCH   4   6
BRANCH   4  12
HETATM   12  C   UNL     1     -10.523  14.764  67.019  1.00  0.00    -0.270 C  
HETATM   13  C   UNL     1      -9.063  14.848  66.489  1.00  0.00    -0.309 C  
HETATM   14  C   UNL     1      -8.069  14.643  67.638  1.00  0.00    -0.173 C  
HETATM   15  N   UNL     1      -8.179  13.326  68.278  1.00  0.00    -0.154 NA 
HETATM   16  C   UNL     1      -9.561  13.107  68.745  1.00  0.00     0.082 C  
HETATM   17  C   UNL     1     -10.615  13.346  67.663  1.00  0.00    -0.249 C  
BRANCH  12  18
HETATM   18  C   UNL     1     -11.538  14.704  65.850  1.00  0.00    -0.327 C  
HETATM   19  O   UNL     1     -11.478  15.390  64.837  1.00  0.00    -0.365 OA 
BRANCH  18  20
HETATM   20  O   UNL     1     -12.496  13.750  66.066  1.00  0.00    -0.454 OA 
HETATM   21  C   UNL     1     -12.716  12.849  64.984  1.00  0.00    -0.404 C  
ENDBRANCH  18  20
ENDBRANCH  12  18
BRANCH  15  22
HETATM   22  C   UNL     1      -7.712  12.203  67.440  1.00  0.00    -0.165 C  
BRANCH  22  23
HETATM   23  C   UNL     1      -7.883  10.827  68.088  1.00  0.00    -0.112 C  
BRANCH  23  24
HETATM   24  C   UNL     1      -8.651   9.912  67.171  1.00  0.00    -0.125 C  
HETATM   25  O   UNL     1      -9.834  10.030  66.883  1.00  0.00    -0.180 OA 
BRANCH  24  26
HETATM   26  O   UNL     1      -7.821   8.949  66.678  1.00  0.00    -0.098 OA 
HETATM   27  C   UNL     1      -8.285   7.623  66.921  1.00  0.00    -0.120 C  
ENDBRANCH  24  26
ENDBRANCH  23  24
ENDBRANCH  22  23
ENDBRANCH  15  22
ENDBRANCH   4  12
ENDBRANCH   2   3
TORSDOF 9
ENDMDL
MODEL       86
REMARK 921   NORMALIZED FREE ENERGY PREDICTED BY IDOCK:   -4.19 KCAL/MOL
REMARK 922        TOTAL FREE ENERGY PREDICTED BY IDOCK:   -6.58 KCAL/MOL
REMARK 923 INTER-LIGAND FREE ENERGY PREDICTED BY IDOCK:   -6.22 KCAL/MOL
REMARK 924 INTRA-LIGAND FREE ENERGY PREDICTED BY IDOCK:   -0.36 KCAL/MOL
REMARK 927      BINDING AFFINITY PREDICTED BY RF-SCORE:    0.00 PKD
ROOT
HETATM    1  C   UNL     1     -12.254  12.539  64.103  1.00  0.00    -0.552 C  
HETATM    2  C   UNL     1     -11.594  12.853  65.438  1.00  0.00    -0.386 C  
ENDROOT
BRANCH   2   3
HETATM    3  C   UNL     1     -10.816  11.650  65.965  1.00  0.00    -0.289 C  
HETATM    4  N   UNL     1     -10.381  11.646  67.301  1.00  0.00    -0.200 N  
HETATM    5  O   UNL     1     -10.596  10.719  65.186  1.00  0.00    -0.259 OA 
BRANCH   4   6
HETATM    6  C   UNL     1     -10.708  12.744  68.186  1.00  0.00    -0.226 A  
HETATM    7  C   UNL     1     -11.830  12.722  69.034  1.00  0.00    -0.344 A  
HETATM    8  C   UNL     1     -12.109  13.785  69.900  1.00  0.00    -0.412 A  
HETATM    9  C   UNL     1      -9.904  13.892  68.205  1.00  0.00    -0.240 A  
HETATM   10  C   UNL     1     -11.279  14.898  69.927  1.00  0.00    -0.307 A  
HETATM   11  C   UNL     1     -10.182  14.958  69.073  1.00  0.00    -0.243 A  
ENDBRANCH   4   6
BRANCH   4  12
HETATM   12  C   UNL     1      -9.296  10.661  67.750  1.00  0.00    -0.146 C  
HETATM   13  C   UNL     1      -9.393  10.396  69.280  1.00  0.00    -0.202 C  
HETATM   14  C   UNL     1     -10.673   9.616  69.601  1.00  0.00    -0.240 C  
HETATM   15  N   UNL     1     -10.724   8.291  68.971  1.00  0.00    -0.139 NA 
HETATM   16  C   UNL     1     -10.552   8.421  67.511  1.00  0.00    -0.215 C  
HETATM   17  C   UNL     1      -9.320   9.236  67.114  1.00  0.00    -0.166 C  
BRANCH  12  18
HETATM   18  C   UNL     1      -7.898  11.209  67.367  1.00  0.00    -0.121 C  
HETATM   19  O   UNL     1      -7.432  11.203  66.234  1.00  0.00    -0.133 OA 
BRANCH  18  20
HETATM   20  O   UNL     1      -7.258  11.750  68.449  1.00  0.00    -0.077 OA 
HETATM   21  C   UNL     1      -5.930  11.282  68.670  1.00  0.00    -0.042 C  
ENDBRANCH  18  20
ENDBRANCH  12  18
BRANCH  15  22
HETATM   22  C   UNL     1      -9.774   7.312  69.537  1.00  0.00    -0.158 C  
BRANCH  22  23
HETATM   23  C   UNL     1     -10.291   6.589  70.784  1.00  0.00    -0.241 C  
BRANCH  23  24
HETATM   24  C   UNL     1      -9.494   7.003  71.993  1.00  0.00    -0.138 C  
HETATM   25  O   UNL     1      -8.426   6.515  72.337  1.00  0.00    -0.119 OA 
BRANCH  24  26
HETATM   26  O   UNL     1     -10.123   8.030  72.631  1.00  0.00    -0.249 OA 
HETATM   27  C   UNL     1     -11.535   7.858  72.727  1.00  0.00    -0.368 C  
ENDBRANCH  24  26
ENDBRANCH  23  24
ENDBRANCH  22  23
ENDBRANCH  15  22
ENDBRANCH   4  12
ENDBRANCH   2   3
TORSDOF 9
ENDMDL
MODEL       87
REMARK 921   NORMALIZED FREE ENERGY PREDICTED BY IDOCK:   -4.17 KCAL/MOL
REMARK 922        TOTAL FREE ENERGY PREDICTED BY IDOCK:   -6.55 KCAL/MOL
REMARK 923 INTER-LIGAND FREE ENERGY PREDICTED BY IDOCK:   -6.62 KCAL/MOL
REMARK 924 INTRA-LIGAND FREE ENERGY PREDICTED BY IDOCK:    0.07 KCAL/MOL
REMARK 927      BINDING AFFINITY PREDICTED BY RF-SCORE:    0.00 PKD
ROOT
HETATM    1  C   UNL     1      -9.499  17.907  66.400  1.00  0.00    -0.278 C  
HETATM    2  C   UNL     1      -8.924  16.506  66.251  1.00  0.00    -0.359 C  
ENDROOT
BRANCH   2   3
HETATM    3  C   UNL     1     -10.016  15.446  66.378  1.00  0.00    -0.278 C  
HETATM    4  N   UNL     1      -9.725  14.235  67.028  1.00  0.00    -0.246 N  
HETATM    5  O   UNL     1     -11.124  15.699  65.898  1.00  0.00    -0.272 OA 
BRANCH   4   6
HETATM    6  C   UNL     1      -8.421  14.010  67.617  1.00  0.00    -0.191 A  
HETATM    7  C   UNL     1      -8.027  14.606  68.828  1.00  0.00    -0.151 A  
HETATM    8  C   UNL     1      -6.771  14.350  69.390  1.00  0.00    -0.140 A  
HETATM    9  C   UNL     1      -7.492  13.186  66.967  1.00  0.00     0.170 A  
HETATM   10  C   UNL     1      -5.879  13.503  68.747  1.00  0.00    -0.083 A  
HETATM   11  C   UNL     1      -6.233  12.928  67.530  1.00  0.00    -0.154 A  
ENDBRANCH   4   6
BRANCH   4  12
HETATM   12  C   UNL     1     -10.648  13.025  66.844  1.00  0.00    -0.254 C  
HETATM   13  C   UNL     1     -10.061  11.773  67.555  1.00  0.00    -0.207 C  
HETATM   14  C   UNL     1     -10.097  11.962  69.076  1.00  0.00     0.054 C  
HETATM   15  N   UNL     1     -11.455  12.117  69.613  1.00  0.00    -0.267 NA 
HETATM   16  C   UNL     1     -12.139  13.236  68.937  1.00  0.00    -0.222 C  
HETATM   17  C   UNL     1     -12.097  13.143  67.411  1.00  0.00    -0.316 C  
BRANCH  12  18
HETATM   18  C   UNL     1     -10.866  12.757  65.333  1.00  0.00    -0.286 C  
HETATM   19  O   UNL     1      -9.974  12.498  64.534  1.00  0.00    -0.253 OA 
BRANCH  18  20
HETATM   20  O   UNL     1     -12.193  12.801  65.002  1.00  0.00    -0.419 OA 
HETATM   21  C   UNL     1     -12.513  12.329  63.696  1.00  0.00    -0.541 C  
ENDBRANCH  18  20
ENDBRANCH  12  18
BRANCH  15  22
HETATM   22  C   UNL     1     -12.269  10.885  69.569  1.00  0.00    -0.261 C  
BRANCH  22  23
HETATM   23  C   UNL     1     -12.865  10.482  70.921  1.00  0.00    -0.485 C  
BRANCH  23  24
HETATM   24  C   UNL     1     -12.303   9.156  71.361  1.00  0.00    -0.333 C  
HETATM   25  O   UNL     1     -12.953   8.134  71.533  1.00  0.00    -0.318 OA 
BRANCH  24  26
HETATM   26  O   UNL     1     -10.951   9.253  71.506  1.00  0.00    -0.336 OA 
HETATM   27  C   UNL     1     -10.286   7.992  71.484  1.00  0.00    -0.194 C  
ENDBRANCH  24  26
ENDBRANCH  23  24
ENDBRANCH  22  23
ENDBRANCH  15  22
ENDBRANCH   4  12
ENDBRANCH   2   3
TORSDOF 9
ENDMDL
MODEL       88
REMARK 921   NORMALIZED FREE ENERGY PREDICTED BY IDOCK:   -4.17 KCAL/MOL
REMARK 922        TOTAL FREE ENERGY PREDICTED BY IDOCK:   -6.55 KCAL/MOL
REMARK 923 INTER-LIGAND FREE ENERGY PREDICTED BY IDOCK:   -6.03 KCAL/MOL
REMARK 924 INTRA-LIGAND FREE ENERGY PREDICTED BY IDOCK:   -0.51 KCAL/MOL
REMARK 927      BINDING AFFINITY PREDICTED BY RF-SCORE:    0.00 PKD
ROOT
HETATM    1  C   UNL     1      -6.506   7.791  69.324  1.00  0.00    -0.036 C  
HETATM    2  C   UNL     1      -7.913   7.786  68.746  1.00  0.00    -0.125 C  
ENDROOT
BRANCH   2   3
HETATM    3  C   UNL     1      -8.538   9.178  68.805  1.00  0.00    -0.131 C  
HETATM    4  N   UNL     1      -8.524   9.985  67.655  1.00  0.00    -0.115 N  
HETATM    5  O   UNL     1      -9.037   9.542  69.873  1.00  0.00    -0.182 OA 
BRANCH   4   6
HETATM    6  C   UNL     1      -7.969   9.490  66.413  1.00  0.00    -0.111 A  
HETATM    7  C   UNL     1      -8.706   8.687  65.525  1.00  0.00    -0.219 A  
HETATM    8  C   UNL     1      -8.155   8.244  64.317  1.00  0.00    -0.147 A  
HETATM    9  C   UNL     1      -6.644   9.791  66.069  1.00  0.00    -0.082 A  
HETATM   10  C   UNL     1      -6.852   8.583  63.979  1.00  0.00    -0.075 A  
HETATM   11  C   UNL     1      -6.091   9.348  64.858  1.00  0.00    -0.068 A  
ENDBRANCH   4   6
BRANCH   4  12
HETATM   12  C   UNL     1      -8.787  11.492  67.774  1.00  0.00    -0.153 C  
HETATM   13  C   UNL     1      -9.216  12.083  66.401  1.00  0.00    -0.216 C  
HETATM   14  C   UNL     1     -10.601  11.556  66.008  1.00  0.00    -0.261 C  
HETATM   15  N   UNL     1     -11.661  11.940  66.949  1.00  0.00    -0.589 NA 
HETATM   16  C   UNL     1     -11.309  11.497  68.311  1.00  0.00    -0.286 C  
HETATM   17  C   UNL     1      -9.914  11.942  68.754  1.00  0.00    -0.105 C  
BRANCH  12  18
HETATM   18  C   UNL     1      -7.522  12.203  68.317  1.00  0.00    -0.107 C  
HETATM   19  O   UNL     1      -7.005  11.976  69.404  1.00  0.00    -0.075 OA 
BRANCH  18  20
HETATM   20  O   UNL     1      -7.019  13.095  67.409  1.00  0.00    -0.162 OA 
HETATM   21  C   UNL     1      -6.168  14.103  67.948  1.00  0.00    -0.155 C  
ENDBRANCH  18  20
ENDBRANCH  12  18
BRANCH  15  22
HETATM   22  C   UNL     1     -12.005  13.376  66.923  1.00  0.00    -0.385 C  
BRANCH  22  23
HETATM   23  C   UNL     1     -12.943  13.773  65.780  1.00  0.00    -0.310 C  
BRANCH  23  24
HETATM   24  C   UNL     1     -12.167  14.465  64.690  1.00  0.00    -0.464 C  
HETATM   25  O   UNL     1     -11.229  15.231  64.866  1.00  0.00    -0.398 OA 
BRANCH  24  26
HETATM   26  O   UNL     1     -12.644  14.084  63.471  1.00  0.00    -0.842 OA 
HETATM   27  C   UNL     1     -12.278  12.755  63.109  1.00  0.00    -0.237 C  
ENDBRANCH  24  26
ENDBRANCH  23  24
ENDBRANCH  22  23
ENDBRANCH  15  22
ENDBRANCH   4  12
ENDBRANCH   2   3
TORSDOF 9
ENDMDL
MODEL       89
REMARK 921   NORMALIZED FREE ENERGY PREDICTED BY IDOCK:   -4.14 KCAL/MOL
REMARK 922        TOTAL FREE ENERGY PREDICTED BY IDOCK:   -6.50 KCAL/MOL
REMARK 923 INTER-LIGAND FREE ENERGY PREDICTED BY IDOCK:   -6.28 KCAL/MOL
REMARK 924 INTRA-LIGAND FREE ENERGY PREDICTED BY IDOCK:   -0.22 KCAL/MOL
REMARK 927      BINDING AFFINITY PREDICTED BY RF-SCORE:    0.00 PKD
ROOT
HETATM    1  C   UNL     1      -7.913   4.630  71.089  1.00  0.00    -0.087 C  
HETATM    2  C   UNL     1      -7.592   6.099  70.858  1.00  0.00    -0.097 C  
ENDROOT
BRANCH   2   3
HETATM    3  C   UNL     1      -7.682   6.457  69.376  1.00  0.00    -0.101 C  
HETATM    4  N   UNL     1      -8.868   7.024  68.879  1.00  0.00    -0.131 N  
HETATM    5  O   UNL     1      -6.699   6.231  68.667  1.00  0.00    -0.056 OA 
BRANCH   4   6
HETATM    6  C   UNL     1      -9.976   7.313  69.765  1.00  0.00    -0.183 A  
HETATM    7  C   UNL     1     -11.062   6.435  69.927  1.00  0.00    -0.444 A  
HETATM    8  C   UNL     1     -12.107   6.726  70.811  1.00  0.00    -0.402 A  
HETATM    9  C   UNL     1     -10.000   8.515  70.486  1.00  0.00    -0.214 A  
HETATM   10  C   UNL     1     -12.094   7.907  71.541  1.00  0.00    -0.336 A  
HETATM   11  C   UNL     1     -11.047   8.807  71.372  1.00  0.00    -0.361 A  
ENDBRANCH   4   6
BRANCH   4  12
HETATM   12  C   UNL     1      -9.134   7.041  67.369  1.00  0.00    -0.123 C  
HETATM   13  C   UNL     1     -10.521   7.675  67.063  1.00  0.00    -0.419 C  
HETATM   14  C   UNL     1     -10.503   9.172  67.392  1.00  0.00    -0.271 C  
HETATM   15  N   UNL     1      -9.538   9.935  66.590  1.00  0.00    -0.175 NA 
HETATM   16  C   UNL     1      -8.189   9.357  66.742  1.00  0.00    -0.112 C  
HETATM   17  C   UNL     1      -8.139   7.851  66.480  1.00  0.00    -0.107 C  
BRANCH  12  18
HETATM   18  C   UNL     1      -9.042   5.601  66.804  1.00  0.00    -0.120 C  
HETATM   19  O   UNL     1      -8.265   5.244  65.926  1.00  0.00    -0.112 OA 
BRANCH  18  20
HETATM   20  O   UNL     1      -9.910   4.756  67.440  1.00  0.00    -0.168 OA 
HETATM   21  C   UNL     1      -9.367   3.495  67.821  1.00  0.00    -0.197 C  
ENDBRANCH  18  20
ENDBRANCH  12  18
BRANCH  15  22
HETATM   22  C   UNL     1      -9.906  10.072  65.166  1.00  0.00    -0.318 C  
BRANCH  22  23
HETATM   23  C   UNL     1      -9.921  11.518  64.661  1.00  0.00    -0.305 C  
BRANCH  23  24
HETATM   24  C   UNL     1     -10.520  12.425  65.704  1.00  0.00    -0.261 C  
HETATM   25  O   UNL     1      -9.909  13.275  66.338  1.00  0.00    -0.269 OA 
BRANCH  24  26
HETATM   26  O   UNL     1     -11.857  12.182  65.814  1.00  0.00    -0.469 OA 
HETATM   27  C   UNL     1     -12.612  12.652  64.699  1.00  0.00    -0.440 C  
ENDBRANCH  24  26
ENDBRANCH  23  24
ENDBRANCH  22  23
ENDBRANCH  15  22
ENDBRANCH   4  12
ENDBRANCH   2   3
TORSDOF 9
ENDMDL
MODEL       90
REMARK 921   NORMALIZED FREE ENERGY PREDICTED BY IDOCK:   -4.12 KCAL/MOL
REMARK 922        TOTAL FREE ENERGY PREDICTED BY IDOCK:   -6.47 KCAL/MOL
REMARK 923 INTER-LIGAND FREE ENERGY PREDICTED BY IDOCK:   -6.16 KCAL/MOL
REMARK 924 INTRA-LIGAND FREE ENERGY PREDICTED BY IDOCK:   -0.31 KCAL/MOL
REMARK 927      BINDING AFFINITY PREDICTED BY RF-SCORE:    0.00 PKD
ROOT
HETATM    1  C   UNL     1      -9.542   3.873  69.237  1.00  0.00    -0.232 C  
HETATM    2  C   UNL     1      -9.979   4.693  70.442  1.00  0.00    -0.300 C  
ENDROOT
BRANCH   2   3
HETATM    3  C   UNL     1     -10.424   6.093  70.024  1.00  0.00    -0.234 C  
HETATM    4  N   UNL     1      -9.545   7.174  70.202  1.00  0.00    -0.168 N  
HETATM    5  O   UNL     1     -11.552   6.220  69.541  1.00  0.00    -0.423 OA 
BRANCH   4   6
HETATM    6  C   UNL     1      -8.212   6.962  70.730  1.00  0.00    -0.122 A  
HETATM    7  C   UNL     1      -7.122   6.625  69.909  1.00  0.00    -0.068 A  
HETATM    8  C   UNL     1      -5.838   6.452  70.440  1.00  0.00    -0.019 A  
HETATM    9  C   UNL     1      -7.979   7.072  72.107  1.00  0.00    -0.093 A  
HETATM   10  C   UNL     1      -5.622   6.600  71.803  1.00  0.00    -0.036 A  
HETATM   11  C   UNL     1      -6.693   6.899  72.640  1.00  0.00    -0.062 A  
ENDBRANCH   4   6
BRANCH   4  12
HETATM   12  C   UNL     1     -10.078   8.611  70.156  1.00  0.00    -0.185 C  
HETATM   13  C   UNL     1      -8.904   9.631  70.139  1.00  0.00    -0.266 C  
HETATM   14  C   UNL     1      -8.142   9.540  68.812  1.00  0.00    -0.096 C  
HETATM   15  N   UNL     1      -8.965   9.871  67.642  1.00  0.00    -0.128 NA 
HETATM   16  C   UNL     1     -10.163   9.009  67.610  1.00  0.00    -0.242 C  
HETATM   17  C   UNL     1     -10.947   9.008  68.923  1.00  0.00     0.019 C  
BRANCH  12  18
HETATM   18  C   UNL     1     -11.017   8.861  71.363  1.00  0.00    -0.310 C  
HETATM   19  O   UNL     1     -10.750   8.579  72.525  1.00  0.00    -0.332 OA 
BRANCH  18  20
HETATM   20  O   UNL     1     -12.175   9.481  70.978  1.00  0.00    -0.301 OA 
HETATM   21  C   UNL     1     -13.204   9.519  71.963  1.00  0.00    -0.452 C  
ENDBRANCH  18  20
ENDBRANCH  12  18
BRANCH  15  22
HETATM   22  C   UNL     1      -9.329  11.299  67.539  1.00  0.00    -0.162 C  
BRANCH  22  23
HETATM   23  C   UNL     1     -10.187  11.637  66.317  1.00  0.00    -0.262 C  
BRANCH  23  24
HETATM   24  C   UNL     1     -11.366  12.479  66.729  1.00  0.00    -0.334 C  
HETATM   25  O   UNL     1     -11.435  13.149  67.750  1.00  0.00    -0.276 OA 
BRANCH  24  26
HETATM   26  O   UNL     1     -12.337  12.412  65.773  1.00  0.00    -0.644 OA 
HETATM   27  C   UNL     1     -12.609  13.667  65.153  1.00  0.00    -0.430 C  
ENDBRANCH  24  26
ENDBRANCH  23  24
ENDBRANCH  22  23
ENDBRANCH  15  22
ENDBRANCH   4  12
ENDBRANCH   2   3
TORSDOF 9
ENDMDL
MODEL       91
REMARK 921   NORMALIZED FREE ENERGY PREDICTED BY IDOCK:   -4.12 KCAL/MOL
REMARK 922        TOTAL FREE ENERGY PREDICTED BY IDOCK:   -6.47 KCAL/MOL
REMARK 923 INTER-LIGAND FREE ENERGY PREDICTED BY IDOCK:   -6.01 KCAL/MOL
REMARK 924 INTRA-LIGAND FREE ENERGY PREDICTED BY IDOCK:   -0.46 KCAL/MOL
REMARK 927      BINDING AFFINITY PREDICTED BY RF-SCORE:    0.00 PKD
ROOT
HETATM    1  C   UNL     1      -7.169  10.836  69.142  1.00  0.00    -0.107 C  
HETATM    2  C   UNL     1      -7.684   9.930  70.252  1.00  0.00    -0.160 C  
ENDROOT
BRANCH   2   3
HETATM    3  C   UNL     1      -7.993   8.532  69.723  1.00  0.00    -0.103 C  
HETATM    4  N   UNL     1      -9.333   8.129  69.591  1.00  0.00    -0.159 N  
HETATM    5  O   UNL     1      -7.043   7.802  69.430  1.00  0.00    -0.067 OA 
BRANCH   4   6
HETATM    6  C   UNL     1     -10.412   9.043  69.904  1.00  0.00    -0.215 A  
HETATM    7  C   UNL     1     -11.097   9.009  71.131  1.00  0.00    -0.371 A  
HETATM    8  C   UNL     1     -12.119   9.921  71.419  1.00  0.00    -0.501 A  
HETATM    9  C   UNL     1     -10.820   9.994  68.959  1.00  0.00    -0.253 A  
HETATM   10  C   UNL     1     -12.484  10.878  70.481  1.00  0.00    -0.438 A  
HETATM   11  C   UNL     1     -11.843  10.909  69.246  1.00  0.00    -0.395 A  
ENDBRANCH   4   6
BRANCH   4  12
HETATM   12  C   UNL     1      -9.674   6.643  69.435  1.00  0.00    -0.147 C  
HETATM   13  C   UNL     1     -11.056   6.467  68.742  1.00  0.00    -0.404 C  
HETATM   14  C   UNL     1     -10.977   6.923  67.281  1.00  0.00    -0.336 C  
HETATM   15  N   UNL     1     -10.032   6.139  66.474  1.00  0.00    -0.153 NA 
HETATM   16  C   UNL     1      -8.694   6.169  67.097  1.00  0.00    -0.106 C  
HETATM   17  C   UNL     1      -8.702   5.776  68.575  1.00  0.00    -0.111 C  
BRANCH  12  18
HETATM   18  C   UNL     1      -9.654   5.951  70.821  1.00  0.00    -0.170 C  
HETATM   19  O   UNL     1      -8.655   5.813  71.518  1.00  0.00    -0.130 OA 
BRANCH  18  20
HETATM   20  O   UNL     1     -10.905   5.548  71.200  1.00  0.00    -0.239 OA 
HETATM   21  C   UNL     1     -11.151   5.554  72.604  1.00  0.00    -0.282 C  
ENDBRANCH  18  20
ENDBRANCH  12  18
BRANCH  15  22
HETATM   22  C   UNL     1     -10.467   4.754  66.204  1.00  0.00    -0.290 C  
BRANCH  22  23
HETATM   23  C   UNL     1      -9.460   3.929  65.397  1.00  0.00    -0.170 C  
BRANCH  23  24
HETATM   24  C   UNL     1      -9.995   3.667  64.014  1.00  0.00    -0.190 C  
HETATM   25  O   UNL     1     -11.156   3.390  63.745  1.00  0.00    -0.300 OA 
BRANCH  24  26
HETATM   26  O   UNL     1      -8.997   3.817  63.097  1.00  0.00    -0.096 OA 
HETATM   27  C   UNL     1      -8.360   5.091  63.157  1.00  0.00    -0.118 C  
ENDBRANCH  24  26
ENDBRANCH  23  24
ENDBRANCH  22  23
ENDBRANCH  15  22
ENDBRANCH   4  12
ENDBRANCH   2   3
TORSDOF 9
ENDMDL
MODEL       92
REMARK 921   NORMALIZED FREE ENERGY PREDICTED BY IDOCK:   -4.12 KCAL/MOL
REMARK 922        TOTAL FREE ENERGY PREDICTED BY IDOCK:   -6.47 KCAL/MOL
REMARK 923 INTER-LIGAND FREE ENERGY PREDICTED BY IDOCK:   -6.64 KCAL/MOL
REMARK 924 INTRA-LIGAND FREE ENERGY PREDICTED BY IDOCK:    0.17 KCAL/MOL
REMARK 927      BINDING AFFINITY PREDICTED BY RF-SCORE:    0.00 PKD
ROOT
HETATM    1  C   UNL     1      -5.829   9.141  68.006  1.00  0.00    -0.038 C  
HETATM    2  C   UNL     1      -6.943   8.571  68.872  1.00  0.00    -0.062 C  
ENDROOT
BRANCH   2   3
HETATM    3  C   UNL     1      -7.944   9.654  69.267  1.00  0.00    -0.104 C  
HETATM    4  N   UNL     1      -9.290   9.514  68.890  1.00  0.00    -0.146 N  
HETATM    5  O   UNL     1      -7.525  10.621  69.908  1.00  0.00    -0.133 OA 
BRANCH   4   6
HETATM    6  C   UNL     1      -9.739   8.334  68.180  1.00  0.00    -0.158 A  
HETATM    7  C   UNL     1     -10.676   7.438  68.722  1.00  0.00    -0.145 A  
HETATM    8  C   UNL     1     -11.114   6.320  68.003  1.00  0.00    -0.365 A  
HETATM    9  C   UNL     1      -9.220   8.042  66.911  1.00  0.00    -0.191 A  
HETATM   10  C   UNL     1     -10.613   6.068  66.733  1.00  0.00    -0.359 A  
HETATM   11  C   UNL     1      -9.658   6.922  66.189  1.00  0.00    -0.007 A  
ENDBRANCH   4   6
BRANCH   4  12
HETATM   12  C   UNL     1     -10.227  10.728  68.930  1.00  0.00    -0.203 C  
HETATM   13  C   UNL     1      -9.418  12.049  68.789  1.00  0.00     0.027 C  
HETATM   14  C   UNL     1      -8.825  12.160  67.380  1.00  0.00    -0.181 C  
HETATM   15  N   UNL     1      -9.842  12.208  66.321  1.00  0.00    -0.229 NA 
HETATM   16  C   UNL     1     -10.725  11.030  66.418  1.00  0.00    -0.227 C  
HETATM   17  C   UNL     1     -11.313  10.824  67.814  1.00  0.00    -0.354 C  
BRANCH  12  18
HETATM   18  C   UNL     1     -11.048  10.714  70.243  1.00  0.00    -0.233 C  
HETATM   19  O   UNL     1     -10.922   9.885  71.137  1.00  0.00    -0.333 OA 
BRANCH  18  20
HETATM   20  O   UNL     1     -11.911  11.774  70.307  1.00  0.00    -0.329 OA 
HETATM   21  C   UNL     1     -12.844  11.740  71.384  1.00  0.00    -0.335 C  
ENDBRANCH  18  20
ENDBRANCH  12  18
BRANCH  15  22
HETATM   22  C   UNL     1     -10.621  13.462  66.283  1.00  0.00    -0.291 C  
BRANCH  22  23
HETATM   23  C   UNL     1     -10.614  14.161  64.921  1.00  0.00    -0.449 C  
BRANCH  23  24
HETATM   24  C   UNL     1     -10.562  15.655  65.104  1.00  0.00    -0.424 C  
HETATM   25  O   UNL     1     -11.028  16.479  64.330  1.00  0.00    -0.848 OA 
BRANCH  24  26
HETATM   26  O   UNL     1      -9.947  15.954  66.284  1.00  0.00    -0.261 OA 
HETATM   27  C   UNL     1      -8.802  16.790  66.130  1.00  0.00    -0.263 C  
ENDBRANCH  24  26
ENDBRANCH  23  24
ENDBRANCH  22  23
ENDBRANCH  15  22
ENDBRANCH   4  12
ENDBRANCH   2   3
TORSDOF 9
ENDMDL
MODEL       93
REMARK 921   NORMALIZED FREE ENERGY PREDICTED BY IDOCK:   -4.09 KCAL/MOL
REMARK 922        TOTAL FREE ENERGY PREDICTED BY IDOCK:   -6.42 KCAL/MOL
REMARK 923 INTER-LIGAND FREE ENERGY PREDICTED BY IDOCK:   -6.50 KCAL/MOL
REMARK 924 INTRA-LIGAND FREE ENERGY PREDICTED BY IDOCK:    0.08 KCAL/MOL
REMARK 927      BINDING AFFINITY PREDICTED BY RF-SCORE:    0.00 PKD
ROOT
HETATM    1  C   UNL     1     -12.302  14.674  70.755  1.00  0.00    -0.398 C  
HETATM    2  C   UNL     1     -11.358  14.704  69.561  1.00  0.00    -0.314 C  
ENDROOT
BRANCH   2   3
HETATM    3  C   UNL     1     -11.282  13.337  68.885  1.00  0.00    -0.277 C  
HETATM    4  N   UNL     1     -10.409  13.157  67.799  1.00  0.00    -0.226 N  
HETATM    5  O   UNL     1     -12.000  12.435  69.324  1.00  0.00    -0.298 OA 
BRANCH   4   6
HETATM    6  C   UNL     1      -9.553  14.237  67.354  1.00  0.00    -0.214 A  
HETATM    7  C   UNL     1      -9.954  15.164  66.376  1.00  0.00    -0.288 A  
HETATM    8  C   UNL     1      -9.118  16.215  65.983  1.00  0.00    -0.354 A  
HETATM    9  C   UNL     1      -8.264  14.374  67.887  1.00  0.00    -0.157 A  
HETATM   10  C   UNL     1      -7.858  16.352  66.550  1.00  0.00    -0.323 A  
HETATM   11  C   UNL     1      -7.425  15.427  67.494  1.00  0.00    -0.215 A  
ENDBRANCH   4   6
BRANCH   4  12
HETATM   12  C   UNL     1     -10.579  11.947  66.872  1.00  0.00    -0.230 C  
HETATM   13  C   UNL     1      -9.197  11.447  66.364  1.00  0.00    -0.209 C  
HETATM   14  C   UNL     1      -8.395  10.841  67.522  1.00  0.00    -0.115 C  
HETATM   15  N   UNL     1      -9.039   9.667  68.127  1.00  0.00    -0.123 NA 
HETATM   16  C   UNL     1     -10.403  10.014  68.570  1.00  0.00    -0.193 C  
HETATM   17  C   UNL     1     -11.247  10.674  67.479  1.00  0.00    -0.326 C  
BRANCH  12  18
HETATM   18  C   UNL     1     -11.507  12.320  65.688  1.00  0.00    -0.368 C  
HETATM   19  O   UNL     1     -12.670  12.689  65.801  1.00  0.00    -0.481 OA 
BRANCH  18  20
HETATM   20  O   UNL     1     -10.852  12.230  64.490  1.00  0.00    -0.284 OA 
HETATM   21  C   UNL     1     -11.659  12.439  63.334  1.00  0.00    -0.462 C  
ENDBRANCH  18  20
ENDBRANCH  12  18
BRANCH  15  22
HETATM   22  C   UNL     1      -9.043   8.466  67.267  1.00  0.00    -0.137 C  
BRANCH  22  23
HETATM   23  C   UNL     1      -8.557   7.195  67.969  1.00  0.00    -0.128 C  
BRANCH  23  24
HETATM   24  C   UNL     1      -8.515   6.048  66.994  1.00  0.00    -0.108 C  
HETATM   25  O   UNL     1      -9.435   5.705  66.265  1.00  0.00    -0.154 OA 
BRANCH  24  26
HETATM   26  O   UNL     1      -7.281   5.467  67.018  1.00  0.00    -0.075 OA 
HETATM   27  C   UNL     1      -6.406   5.953  66.003  1.00  0.00    -0.042 C  
ENDBRANCH  24  26
ENDBRANCH  23  24
ENDBRANCH  22  23
ENDBRANCH  15  22
ENDBRANCH   4  12
ENDBRANCH   2   3
TORSDOF 9
ENDMDL
MODEL       94
REMARK 921   NORMALIZED FREE ENERGY PREDICTED BY IDOCK:   -4.08 KCAL/MOL
REMARK 922        TOTAL FREE ENERGY PREDICTED BY IDOCK:   -6.41 KCAL/MOL
REMARK 923 INTER-LIGAND FREE ENERGY PREDICTED BY IDOCK:   -6.11 KCAL/MOL
REMARK 924 INTRA-LIGAND FREE ENERGY PREDICTED BY IDOCK:   -0.30 KCAL/MOL
REMARK 927      BINDING AFFINITY PREDICTED BY RF-SCORE:    0.00 PKD
ROOT
HETATM    1  C   UNL     1     -13.012  11.415  71.757  1.00  0.00    -0.519 C  
HETATM    2  C   UNL     1     -12.391  10.566  70.656  1.00  0.00    -0.449 C  
ENDROOT
BRANCH   2   3
HETATM    3  C   UNL     1     -11.502   9.471  71.240  1.00  0.00    -0.377 C  
HETATM    4  N   UNL     1     -10.321   9.116  70.569  1.00  0.00    -0.217 N  
HETATM    5  O   UNL     1     -11.861   8.935  72.292  1.00  0.00    -0.353 OA 
BRANCH   4   6
HETATM    6  C   UNL     1      -9.920   9.811  69.363  1.00  0.00    -0.205 A  
HETATM    7  C   UNL     1      -8.780  10.632  69.309  1.00  0.00    -0.090 A  
HETATM    8  C   UNL     1      -8.400  11.271  68.124  1.00  0.00    -0.143 A  
HETATM    9  C   UNL     1     -10.690   9.692  68.198  1.00  0.00    -0.266 A  
HETATM   10  C   UNL     1      -9.158  11.112  66.971  1.00  0.00    -0.158 A  
HETATM   11  C   UNL     1     -10.309  10.332  67.009  1.00  0.00    -0.299 A  
ENDBRANCH   4   6
BRANCH   4  12
HETATM   12  C   UNL     1      -9.617   7.795  70.903  1.00  0.00    -0.167 C  
HETATM   13  C   UNL     1     -10.648   6.635  71.007  1.00  0.00    -0.263 C  
HETATM   14  C   UNL     1     -11.243   6.329  69.628  1.00  0.00    -0.437 C  
HETATM   15  N   UNL     1     -10.245   5.880  68.648  1.00  0.00    -0.174 NA 
HETATM   16  C   UNL     1      -9.165   6.879  68.535  1.00  0.00    -0.129 C  
HETATM   17  C   UNL     1      -8.558   7.274  69.882  1.00  0.00    -0.141 C  
BRANCH  12  18
HETATM   18  C   UNL     1      -8.814   7.947  72.219  1.00  0.00    -0.148 C  
HETATM   19  O   UNL     1      -8.131   8.922  72.512  1.00  0.00    -0.381 OA 
BRANCH  18  20
HETATM   20  O   UNL     1      -8.996   6.871  73.045  1.00  0.00    -0.126 OA 
HETATM   21  C   UNL     1      -9.097   7.177  74.434  1.00  0.00    -0.190 C  
ENDBRANCH  18  20
ENDBRANCH  12  18
BRANCH  15  22
HETATM   22  C   UNL     1      -9.703   4.531  68.909  1.00  0.00    -0.154 C  
BRANCH  22  23
HETATM   23  C   UNL     1      -8.603   4.101  67.935  1.00  0.00    -0.107 C  
BRANCH  23  24
HETATM   24  C   UNL     1      -9.173   3.196  66.874  1.00  0.00    -0.163 C  
HETATM   25  O   UNL     1      -9.150   1.973  66.900  1.00  0.00    -0.128 OA 
BRANCH  24  26
HETATM   26  O   UNL     1      -9.754   3.944  65.893  1.00  0.00    -0.184 OA 
HETATM   27  C   UNL     1      -8.841   4.815  65.229  1.00  0.00    -0.149 C  
ENDBRANCH  24  26
ENDBRANCH  23  24
ENDBRANCH  22  23
ENDBRANCH  15  22
ENDBRANCH   4  12
ENDBRANCH   2   3
TORSDOF 9
ENDMDL
MODEL       95
REMARK 921   NORMALIZED FREE ENERGY PREDICTED BY IDOCK:   -4.08 KCAL/MOL
REMARK 922        TOTAL FREE ENERGY PREDICTED BY IDOCK:   -6.41 KCAL/MOL
REMARK 923 INTER-LIGAND FREE ENERGY PREDICTED BY IDOCK:   -6.21 KCAL/MOL
REMARK 924 INTRA-LIGAND FREE ENERGY PREDICTED BY IDOCK:   -0.21 KCAL/MOL
REMARK 927      BINDING AFFINITY PREDICTED BY RF-SCORE:    0.00 PKD
ROOT
HETATM    1  C   UNL     1     -13.174  10.818  71.729  1.00  0.00    -0.523 C  
HETATM    2  C   UNL     1     -12.358  11.247  70.518  1.00  0.00    -0.446 C  
ENDROOT
BRANCH   2   3
HETATM    3  C   UNL     1     -11.068  10.437  70.408  1.00  0.00    -0.296 C  
HETATM    4  N   UNL     1     -10.201  10.672  69.328  1.00  0.00    -0.220 N  
HETATM    5  O   UNL     1     -10.837   9.598  71.282  1.00  0.00    -0.350 OA 
BRANCH   4   6
HETATM    6  C   UNL     1     -10.496  11.704  68.355  1.00  0.00    -0.213 A  
HETATM    7  C   UNL     1     -11.583  11.614  67.468  1.00  0.00    -0.345 A  
HETATM    8  C   UNL     1     -11.863  12.637  66.555  1.00  0.00    -0.463 A  
HETATM    9  C   UNL     1      -9.673  12.834  68.262  1.00  0.00    -0.216 A  
HETATM   10  C   UNL     1     -11.055  13.765  66.503  1.00  0.00    -0.309 A  
HETATM   11  C   UNL     1      -9.953  13.861  67.348  1.00  0.00    -0.240 A  
ENDBRANCH   4   6
BRANCH   4  12
HETATM   12  C   UNL     1      -9.118   9.645  68.978  1.00  0.00    -0.148 C  
HETATM   13  C   UNL     1      -9.626   8.199  69.245  1.00  0.00    -0.164 C  
HETATM   14  C   UNL     1     -10.733   7.835  68.249  1.00  0.00    -0.036 C  
HETATM   15  N   UNL     1     -10.286   7.840  66.850  1.00  0.00    -0.320 NA 
HETATM   16  C   UNL     1      -9.702   9.153  66.515  1.00  0.00    -0.241 C  
HETATM   17  C   UNL     1      -8.623   9.609  67.499  1.00  0.00    -0.126 C  
BRANCH  12  18
HETATM   18  C   UNL     1      -7.831   9.942  69.788  1.00  0.00    -0.163 C  
HETATM   19  O   UNL     1      -7.622   9.557  70.933  1.00  0.00    -0.270 OA 
BRANCH  18  20
HETATM   20  O   UNL     1      -6.926  10.656  69.050  1.00  0.00    -0.066 OA 
HETATM   21  C   UNL     1      -6.382  11.804  69.695  1.00  0.00    -0.129 C  
ENDBRANCH  18  20
ENDBRANCH  12  18
BRANCH  15  22
HETATM   22  C   UNL     1      -9.366   6.739  66.502  1.00  0.00    -0.161 C  
BRANCH  22  23
HETATM   23  C   UNL     1     -10.014   5.352  66.532  1.00  0.00    -0.222 C  
BRANCH  23  24
HETATM   24  C   UNL     1      -9.191   4.413  67.376  1.00  0.00    -0.143 C  
HETATM   25  O   UNL     1      -8.490   3.507  66.948  1.00  0.00    -0.101 OA 
BRANCH  24  26
HETATM   26  O   UNL     1      -9.316   4.747  68.692  1.00  0.00    -0.120 OA 
HETATM   27  C   UNL     1      -9.519   3.623  69.545  1.00  0.00    -0.176 C  
ENDBRANCH  24  26
ENDBRANCH  23  24
ENDBRANCH  22  23
ENDBRANCH  15  22
ENDBRANCH   4  12
ENDBRANCH   2   3
TORSDOF 9
ENDMDL
MODEL       96
REMARK 921   NORMALIZED FREE ENERGY PREDICTED BY IDOCK:   -4.04 KCAL/MOL
REMARK 922        TOTAL FREE ENERGY PREDICTED BY IDOCK:   -6.35 KCAL/MOL
REMARK 923 INTER-LIGAND FREE ENERGY PREDICTED BY IDOCK:   -6.08 KCAL/MOL
REMARK 924 INTRA-LIGAND FREE ENERGY PREDICTED BY IDOCK:   -0.27 KCAL/MOL
REMARK 927      BINDING AFFINITY PREDICTED BY RF-SCORE:    0.00 PKD
ROOT
HETATM    1  C   UNL     1      -9.067  10.070  64.601  1.00  0.00    -0.280 C  
HETATM    2  C   UNL     1     -10.269  10.128  65.533  1.00  0.00    -0.288 C  
ENDROOT
BRANCH   2   3
HETATM    3  C   UNL     1     -10.021   9.320  66.804  1.00  0.00    -0.245 C  
HETATM    4  N   UNL     1      -9.974   9.984  68.041  1.00  0.00    -0.146 N  
HETATM    5  O   UNL     1      -9.869   8.101  66.692  1.00  0.00    -0.228 OA 
BRANCH   4   6
HETATM    6  C   UNL     1     -10.207  11.411  68.121  1.00  0.00    -0.187 A  
HETATM    7  C   UNL     1      -9.160  12.349  68.094  1.00  0.00    -0.200 A  
HETATM    8  C   UNL     1      -9.413  13.724  68.147  1.00  0.00    -0.212 A  
HETATM    9  C   UNL     1     -11.513  11.901  68.251  1.00  0.00    -0.372 A  
HETATM   10  C   UNL     1     -10.718  14.189  68.240  1.00  0.00    -0.256 A  
HETATM   11  C   UNL     1     -11.769  13.279  68.303  1.00  0.00    -0.388 A  
ENDBRANCH   4   6
BRANCH   4  12
HETATM   12  C   UNL     1      -9.361   9.287  69.262  1.00  0.00    -0.160 C  
HETATM   13  C   UNL     1     -10.003   9.817  70.576  1.00  0.00    -0.258 C  
HETATM   14  C   UNL     1     -11.468   9.372  70.666  1.00  0.00    -0.284 C  
HETATM   15  N   UNL     1     -11.634   7.913  70.710  1.00  0.00    -0.276 NA 
HETATM   16  C   UNL     1     -10.979   7.298  69.540  1.00  0.00    -0.164 C  
HETATM   17  C   UNL     1      -9.526   7.738  69.354  1.00  0.00    -0.156 C  
BRANCH  12  18
HETATM   18  C   UNL     1      -7.826   9.494  69.269  1.00  0.00    -0.088 C  
HETATM   19  O   UNL     1      -7.055   9.030  68.437  1.00  0.00    -0.074 OA 
BRANCH  18  20
HETATM   20  O   UNL     1      -7.433  10.304  70.300  1.00  0.00    -0.208 OA 
HETATM   21  C   UNL     1      -6.203  10.996  70.100  1.00  0.00    -0.146 C  
ENDBRANCH  18  20
ENDBRANCH  12  18
BRANCH  15  22
HETATM   22  C   UNL     1     -11.181   7.288  71.969  1.00  0.00    -0.250 C  
BRANCH  22  23
HETATM   23  C   UNL     1     -11.868   5.957  72.287  1.00  0.00    -0.266 C  
BRANCH  23  24
HETATM   24  C   UNL     1     -10.937   5.065  73.066  1.00  0.00    -0.295 C  
HETATM   25  O   UNL     1     -10.880   4.996  74.286  1.00  0.00    -0.320 OA 
BRANCH  24  26
HETATM   26  O   UNL     1     -10.188   4.317  72.206  1.00  0.00    -0.181 OA 
HETATM   27  C   UNL     1      -9.950   2.990  72.670  1.00  0.00    -0.152 C  
ENDBRANCH  24  26
ENDBRANCH  23  24
ENDBRANCH  22  23
ENDBRANCH  15  22
ENDBRANCH   4  12
ENDBRANCH   2   3
TORSDOF 9
ENDMDL
MODEL       97
REMARK 921   NORMALIZED FREE ENERGY PREDICTED BY IDOCK:   -4.00 KCAL/MOL
REMARK 922        TOTAL FREE ENERGY PREDICTED BY IDOCK:   -6.28 KCAL/MOL
REMARK 923 INTER-LIGAND FREE ENERGY PREDICTED BY IDOCK:   -6.09 KCAL/MOL
REMARK 924 INTRA-LIGAND FREE ENERGY PREDICTED BY IDOCK:   -0.19 KCAL/MOL
REMARK 927      BINDING AFFINITY PREDICTED BY RF-SCORE:    0.00 PKD
ROOT
HETATM    1  C   UNL     1     -14.143   8.480  71.996  1.00  0.00    -0.516 C  
HETATM    2  C   UNL     1     -12.771   9.084  72.255  1.00  0.00    -0.457 C  
ENDROOT
BRANCH   2   3
HETATM    3  C   UNL     1     -11.862   8.933  71.037  1.00  0.00    -0.276 C  
HETATM    4  N   UNL     1     -10.890   7.919  71.029  1.00  0.00    -0.232 N  
HETATM    5  O   UNL     1     -12.021   9.716  70.098  1.00  0.00    -0.121 OA 
BRANCH   4   6
HETATM    6  C   UNL     1     -10.778   6.995  72.139  1.00  0.00    -0.218 A  
HETATM    7  C   UNL     1     -11.466   5.769  72.171  1.00  0.00    -0.295 A  
HETATM    8  C   UNL     1     -11.320   4.881  73.243  1.00  0.00    -0.408 A  
HETATM    9  C   UNL     1      -9.977   7.318  73.242  1.00  0.00    -0.319 A  
HETATM   10  C   UNL     1     -10.493   5.206  74.310  1.00  0.00    -0.315 A  
HETATM   11  C   UNL     1      -9.829   6.429  74.316  1.00  0.00    -0.320 A  
ENDBRANCH   4   6
BRANCH   4  12
HETATM   12  C   UNL     1      -9.735   7.974  70.022  1.00  0.00    -0.173 C  
HETATM   13  C   UNL     1      -8.828   6.717  70.158  1.00  0.00    -0.141 C  
HETATM   14  C   UNL     1      -9.584   5.466  69.696  1.00  0.00    -0.160 C  
HETATM   15  N   UNL     1      -9.981   5.512  68.283  1.00  0.00    -0.145 NA 
HETATM   16  C   UNL     1     -10.782   6.724  68.024  1.00  0.00    -0.241 C  
HETATM   17  C   UNL     1     -10.112   8.011  68.508  1.00  0.00    -0.218 C  
BRANCH  12  18
HETATM   18  C   UNL     1      -8.919   9.275  70.229  1.00  0.00    -0.229 C  
HETATM   19  O   UNL     1      -9.068  10.303  69.579  1.00  0.00    -0.206 OA 
BRANCH  18  20
HETATM   20  O   UNL     1      -8.034   9.153  71.265  1.00  0.00    -0.280 OA 
HETATM   21  C   UNL     1      -6.690   9.524  70.968  1.00  0.00    -0.048 C  
ENDBRANCH  18  20
ENDBRANCH  12  18
BRANCH  15  22
HETATM   22  C   UNL     1      -8.856   5.399  67.332  1.00  0.00    -0.105 C  
BRANCH  22  23
HETATM   23  C   UNL     1      -9.278   5.416  65.860  1.00  0.00    -0.165 C  
BRANCH  23  24
HETATM   24  C   UNL     1      -8.260   6.160  65.037  1.00  0.00    -0.132 C  
HETATM   25  O   UNL     1      -7.803   5.783  63.967  1.00  0.00    -0.104 OA 
BRANCH  24  26
HETATM   26  O   UNL     1      -7.946   7.339  65.646  1.00  0.00    -0.107 OA 
HETATM   27  C   UNL     1      -8.508   8.478  65.000  1.00  0.00    -0.164 C  
ENDBRANCH  24  26
ENDBRANCH  23  24
ENDBRANCH  22  23
ENDBRANCH  15  22
ENDBRANCH   4  12
ENDBRANCH   2   3
TORSDOF 9
ENDMDL
MODEL       98
REMARK 921   NORMALIZED FREE ENERGY PREDICTED BY IDOCK:   -3.98 KCAL/MOL
REMARK 922        TOTAL FREE ENERGY PREDICTED BY IDOCK:   -6.26 KCAL/MOL
REMARK 923 INTER-LIGAND FREE ENERGY PREDICTED BY IDOCK:   -6.29 KCAL/MOL
REMARK 924 INTRA-LIGAND FREE ENERGY PREDICTED BY IDOCK:    0.03 KCAL/MOL
REMARK 927      BINDING AFFINITY PREDICTED BY RF-SCORE:    0.00 PKD
ROOT
HETATM    1  C   UNL     1      -6.233   7.472  73.375  1.00  0.00    -0.060 C  
HETATM    2  C   UNL     1      -6.993   7.024  72.135  1.00  0.00    -0.064 C  
ENDROOT
BRANCH   2   3
HETATM    3  C   UNL     1      -8.380   7.659  72.079  1.00  0.00    -0.110 C  
HETATM    4  N   UNL     1      -9.339   7.135  71.197  1.00  0.00    -0.157 N  
HETATM    5  O   UNL     1      -8.605   8.619  72.821  1.00  0.00    -0.394 OA 
BRANCH   4   6
HETATM    6  C   UNL     1      -9.038   5.975  70.383  1.00  0.00    -0.149 A  
HETATM    7  C   UNL     1      -9.687   4.740  70.561  1.00  0.00    -0.281 A  
HETATM    8  C   UNL     1      -9.397   3.642  69.744  1.00  0.00    -0.243 A  
HETATM    9  C   UNL     1      -8.054   6.054  69.389  1.00  0.00    -0.111 A  
HETATM   10  C   UNL     1      -8.443   3.753  68.740  1.00  0.00    -0.104 A  
HETATM   11  C   UNL     1      -7.763   4.955  68.568  1.00  0.00    -0.078 A  
ENDBRANCH   4   6
BRANCH   4  12
HETATM   12  C   UNL     1     -10.582   7.959  70.840  1.00  0.00    -0.213 C  
HETATM   13  C   UNL     1     -10.233   9.473  70.762  1.00  0.00    -0.363 C  
HETATM   14  C   UNL     1      -9.324   9.745  69.559  1.00  0.00    -0.213 C  
HETATM   15  N   UNL     1      -9.947   9.420  68.269  1.00  0.00    -0.167 NA 
HETATM   16  C   UNL     1     -10.397   8.015  68.268  1.00  0.00    -0.197 C  
HETATM   17  C   UNL     1     -11.269   7.654  69.472  1.00  0.00     0.063 C  
BRANCH  12  18
HETATM   18  C   UNL     1     -11.701   7.697  71.879  1.00  0.00    -0.289 C  
HETATM   19  O   UNL     1     -12.125   6.589  72.185  1.00  0.00    -0.315 OA 
BRANCH  18  20
HETATM   20  O   UNL     1     -12.134   8.861  72.454  1.00  0.00    -0.349 OA 
HETATM   21  C   UNL     1     -13.519   9.151  72.280  1.00  0.00    -0.486 C  
ENDBRANCH  18  20
ENDBRANCH  12  18
BRANCH  15  22
HETATM   22  C   UNL     1     -11.039  10.334  67.875  1.00  0.00    -0.276 C  
BRANCH  22  23
HETATM   23  C   UNL     1     -10.631  11.809  67.826  1.00  0.00    -0.232 C  
BRANCH  23  24
HETATM   24  C   UNL     1     -11.058  12.421  66.517  1.00  0.00    -0.301 C  
HETATM   25  O   UNL     1     -12.179  12.348  66.034  1.00  0.00    -0.636 OA 
BRANCH  24  26
HETATM   26  O   UNL     1     -10.014  13.102  65.964  1.00  0.00    -0.278 OA 
HETATM   27  C   UNL     1      -9.637  14.260  66.705  1.00  0.00    -0.289 C  
ENDBRANCH  24  26
ENDBRANCH  23  24
ENDBRANCH  22  23
ENDBRANCH  15  22
ENDBRANCH   4  12
ENDBRANCH   2   3
TORSDOF 9
ENDMDL
MODEL       99
REMARK 921   NORMALIZED FREE ENERGY PREDICTED BY IDOCK:   -3.96 KCAL/MOL
REMARK 922        TOTAL FREE ENERGY PREDICTED BY IDOCK:   -6.22 KCAL/MOL
REMARK 923 INTER-LIGAND FREE ENERGY PREDICTED BY IDOCK:   -5.88 KCAL/MOL
REMARK 924 INTRA-LIGAND FREE ENERGY PREDICTED BY IDOCK:   -0.35 KCAL/MOL
REMARK 927      BINDING AFFINITY PREDICTED BY RF-SCORE:    0.00 PKD
ROOT
HETATM    1  C   UNL     1     -10.321   5.827  74.266  1.00  0.00    -0.285 C  
HETATM    2  C   UNL     1      -9.995   7.235  73.788  1.00  0.00    -0.368 C  
ENDROOT
BRANCH   2   3
HETATM    3  C   UNL     1      -9.334   7.211  72.412  1.00  0.00    -0.134 C  
HETATM    4  N   UNL     1     -10.094   7.547  71.280  1.00  0.00    -0.188 N  
HETATM    5  O   UNL     1      -8.144   6.892  72.349  1.00  0.00    -0.103 OA 
BRANCH   4   6
HETATM    6  C   UNL     1     -11.476   7.960  71.415  1.00  0.00    -0.260 A  
HETATM    7  C   UNL     1     -12.545   7.049  71.360  1.00  0.00    -0.428 A  
HETATM    8  C   UNL     1     -13.869   7.471  71.520  1.00  0.00    -0.487 A  
HETATM    9  C   UNL     1     -11.787   9.316  71.589  1.00  0.00    -0.453 A  
HETATM   10  C   UNL     1     -14.153   8.814  71.727  1.00  0.00    -0.468 A  
HETATM   11  C   UNL     1     -13.114   9.740  71.751  1.00  0.00    -0.528 A  
ENDBRANCH   4   6
BRANCH   4  12
HETATM   12  C   UNL     1      -9.591   7.173  69.880  1.00  0.00    -0.163 C  
HETATM   13  C   UNL     1     -10.494   7.808  68.785  1.00  0.00    -0.201 C  
HETATM   14  C   UNL     1     -10.326   9.332  68.778  1.00  0.00    -0.211 C  
HETATM   15  N   UNL     1      -8.960   9.768  68.461  1.00  0.00    -0.123 NA 
HETATM   16  C   UNL     1      -8.004   9.147  69.398  1.00  0.00    -0.097 C  
HETATM   17  C   UNL     1      -8.148   7.628  69.498  1.00  0.00    -0.127 C  
BRANCH  12  18
HETATM   18  C   UNL     1      -9.540   5.631  69.736  1.00  0.00    -0.159 C  
HETATM   19  O   UNL     1     -10.413   4.864  70.125  1.00  0.00    -0.244 OA 
BRANCH  18  20
HETATM   20  O   UNL     1      -8.413   5.226  69.074  1.00  0.00    -0.094 OA 
HETATM   21  C   UNL     1      -8.502   3.955  68.436  1.00  0.00    -0.092 C  
ENDBRANCH  18  20
ENDBRANCH  12  18
BRANCH  15  22
HETATM   22  C   UNL     1      -8.560   9.541  67.057  1.00  0.00    -0.128 C  
BRANCH  22  23
HETATM   23  C   UNL     1      -8.008  10.785  66.356  1.00  0.00    -0.151 C  
BRANCH  23  24
HETATM   24  C   UNL     1      -6.636  10.503  65.803  1.00  0.00    -0.123 C  
HETATM   25  O   UNL     1      -6.377  10.299  64.625  1.00  0.00    -0.129 OA 
BRANCH  24  26
HETATM   26  O   UNL     1      -5.716  10.543  66.808  1.00  0.00    -0.049 OA 
HETATM   27  C   UNL     1      -5.701  11.782  67.514  1.00  0.00    -0.084 C  
ENDBRANCH  24  26
ENDBRANCH  23  24
ENDBRANCH  22  23
ENDBRANCH  15  22
ENDBRANCH   4  12
ENDBRANCH   2   3
TORSDOF 9
ENDMDL
MODEL      100
REMARK 921   NORMALIZED FREE ENERGY PREDICTED BY IDOCK:   -3.95 KCAL/MOL
REMARK 922        TOTAL FREE ENERGY PREDICTED BY IDOCK:   -6.22 KCAL/MOL
REMARK 923 INTER-LIGAND FREE ENERGY PREDICTED BY IDOCK:   -6.36 KCAL/MOL
REMARK 924 INTRA-LIGAND FREE ENERGY PREDICTED BY IDOCK:    0.14 KCAL/MOL
REMARK 927      BINDING AFFINITY PREDICTED BY RF-SCORE:    0.00 PKD
ROOT
HETATM    1  C   UNL     1     -11.989  14.522  64.317  1.00  0.00    -0.419 C  
HETATM    2  C   UNL     1     -12.675  14.249  65.648  1.00  0.00    -0.395 C  
ENDROOT
BRANCH   2   3
HETATM    3  C   UNL     1     -12.225  12.914  66.237  1.00  0.00    -0.270 C  
HETATM    4  N   UNL     1     -11.507  12.904  67.444  1.00  0.00    -0.315 N  
HETATM    5  O   UNL     1     -12.513  11.885  65.620  1.00  0.00    -0.237 OA 
BRANCH   4   6
HETATM    6  C   UNL     1     -11.237  14.137  68.153  1.00  0.00    -0.276 A  
HETATM    7  C   UNL     1     -10.279  15.067  67.712  1.00  0.00    -0.236 A  
HETATM    8  C   UNL     1     -10.056  16.265  68.400  1.00  0.00    -0.237 A  
HETATM    9  C   UNL     1     -11.929  14.431  69.336  1.00  0.00    -0.370 A  
HETATM   10  C   UNL     1     -10.778  16.552  69.550  1.00  0.00    -0.321 A  
HETATM   11  C   UNL     1     -11.708  15.632  70.026  1.00  0.00    -0.369 A  
ENDBRANCH   4   6
BRANCH   4  12
HETATM   12  C   UNL     1     -10.725  11.652  67.859  1.00  0.00    -0.202 C  
HETATM   13  C   UNL     1     -10.335  10.809  66.611  1.00  0.00    -0.294 C  
HETATM   14  C   UNL     1      -9.296  11.560  65.770  1.00  0.00    -0.221 C  
HETATM   15  N   UNL     1      -8.037  11.810  66.482  1.00  0.00    -0.093 NA 
HETATM   16  C   UNL     1      -8.305  12.536  67.738  1.00  0.00    -0.170 C  
HETATM   17  C   UNL     1      -9.374  11.873  68.609  1.00  0.00    -0.076 C  
BRANCH  12  18
HETATM   18  C   UNL     1     -11.565  10.815  68.856  1.00  0.00    -0.291 C  
HETATM   19  O   UNL     1     -12.755  10.992  69.087  1.00  0.00    -0.277 OA 
BRANCH  18  20
HETATM   20  O   UNL     1     -10.822   9.814  69.422  1.00  0.00    -0.226 OA 
HETATM   21  C   UNL     1     -11.057   9.588  70.809  1.00  0.00    -0.323 C  
ENDBRANCH  18  20
ENDBRANCH  12  18
BRANCH  15  22
HETATM   22  C   UNL     1      -7.225  10.600  66.725  1.00  0.00    -0.119 C  
BRANCH  22  23
HETATM   23  C   UNL     1      -7.065   9.699  65.498  1.00  0.00    -0.098 C  
BRANCH  23  24
HETATM   24  C   UNL     1      -5.888  10.150  64.673  1.00  0.00    -0.124 C  
HETATM   25  O   UNL     1      -5.253  11.181  64.851  1.00  0.00    -0.239 OA 
BRANCH  24  26
HETATM   26  O   UNL     1      -5.611   9.219  63.717  1.00  0.00    -0.068 OA 
HETATM   27  C   UNL     1      -6.089   9.577  62.422  1.00  0.00    -0.096 C  
ENDBRANCH  24  26
ENDBRANCH  23  24
ENDBRANCH  22  23
ENDBRANCH  15  22
ENDBRANCH   4  12
ENDBRANCH   2   3
TORSDOF 9
ENDMDL
MODEL      101
REMARK 921   NORMALIZED FREE ENERGY PREDICTED BY IDOCK:   -3.94 KCAL/MOL
REMARK 922        TOTAL FREE ENERGY PREDICTED BY IDOCK:   -6.20 KCAL/MOL
REMARK 923 INTER-LIGAND FREE ENERGY PREDICTED BY IDOCK:   -6.01 KCAL/MOL
REMARK 924 INTRA-LIGAND FREE ENERGY PREDICTED BY IDOCK:   -0.19 KCAL/MOL
REMARK 927      BINDING AFFINITY PREDICTED BY RF-SCORE:    0.00 PKD
ROOT
HETATM    1  C   UNL     1      -5.330   9.145  64.378  1.00  0.00    -0.054 C  
HETATM    2  C   UNL     1      -5.653   9.161  65.866  1.00  0.00    -0.045 C  
ENDROOT
BRANCH   2   3
HETATM    3  C   UNL     1      -6.926   9.956  66.145  1.00  0.00    -0.102 C  
HETATM    4  N   UNL     1      -8.112   9.267  66.449  1.00  0.00    -0.107 N  
HETATM    5  O   UNL     1      -6.862  11.187  66.090  1.00  0.00    -0.100 OA 
BRANCH   4   6
HETATM    6  C   UNL     1      -8.121   7.822  66.548  1.00  0.00    -0.111 A  
HETATM    7  C   UNL     1      -8.487   6.995  65.472  1.00  0.00    -0.120 A  
HETATM    8  C   UNL     1      -8.462   5.601  65.585  1.00  0.00    -0.147 A  
HETATM    9  C   UNL     1      -7.776   7.201  67.756  1.00  0.00    -0.112 A  
HETATM   10  C   UNL     1      -8.082   5.005  66.780  1.00  0.00    -0.108 A  
HETATM   11  C   UNL     1      -7.749   5.803  67.870  1.00  0.00    -0.097 A  
ENDBRANCH   4   6
BRANCH   4  12
HETATM   12  C   UNL     1      -9.462   9.989  66.359  1.00  0.00    -0.186 C  
HETATM   13  C   UNL     1     -10.585   9.136  67.016  1.00  0.00    -0.266 C  
HETATM   14  C   UNL     1     -10.374   9.061  68.533  1.00  0.00    -0.203 C  
HETATM   15  N   UNL     1     -10.436  10.370  69.197  1.00  0.00    -0.212 NA 
HETATM   16  C   UNL     1      -9.460  11.291  68.585  1.00  0.00    -0.175 C  
HETATM   17  C   UNL     1      -9.575  11.377  67.062  1.00  0.00    -0.192 C  
BRANCH  12  18
HETATM   18  C   UNL     1      -9.793  10.300  64.878  1.00  0.00    -0.336 C  
HETATM   19  O   UNL     1      -9.292   9.729  63.916  1.00  0.00    -0.261 OA 
BRANCH  18  20
HETATM   20  O   UNL     1     -10.755  11.267  64.770  1.00  0.00    -0.310 OA 
HETATM   21  C   UNL     1     -10.702  12.053  63.583  1.00  0.00    -0.449 C  
ENDBRANCH  18  20
ENDBRANCH  12  18
BRANCH  15  22
HETATM   22  C   UNL     1     -11.786  10.967  69.236  1.00  0.00    -0.340 C  
BRANCH  22  23
HETATM   23  C   UNL     1     -12.319  11.213  70.651  1.00  0.00    -0.482 C  
BRANCH  23  24
HETATM   24  C   UNL     1     -12.667   9.904  71.309  1.00  0.00    -0.383 C  
HETATM   25  O   UNL     1     -13.761   9.358  71.264  1.00  0.00    -0.346 OA 
BRANCH  24  26
HETATM   26  O   UNL     1     -11.568   9.396  71.936  1.00  0.00    -0.378 OA 
HETATM   27  C   UNL     1     -11.766   8.083  72.454  1.00  0.00    -0.386 C  
ENDBRANCH  24  26
ENDBRANCH  23  24
ENDBRANCH  22  23
ENDBRANCH  15  22
ENDBRANCH   4  12
ENDBRANCH   2   3
TORSDOF 9
ENDMDL
MODEL      102
REMARK 921   NORMALIZED FREE ENERGY PREDICTED BY IDOCK:   -3.92 KCAL/MOL
REMARK 922        TOTAL FREE ENERGY PREDICTED BY IDOCK:   -6.17 KCAL/MOL
REMARK 923 INTER-LIGAND FREE ENERGY PREDICTED BY IDOCK:   -5.75 KCAL/MOL
REMARK 924 INTRA-LIGAND FREE ENERGY PREDICTED BY IDOCK:   -0.42 KCAL/MOL
REMARK 927      BINDING AFFINITY PREDICTED BY RF-SCORE:    0.00 PKD
ROOT
HETATM    1  C   UNL     1      -5.597  11.007  66.147  1.00  0.00    -0.147 C  
HETATM    2  C   UNL     1      -5.710   9.541  66.538  1.00  0.00    -0.054 C  
ENDROOT
BRANCH   2   3
HETATM    3  C   UNL     1      -6.936   9.296  67.414  1.00  0.00    -0.078 C  
HETATM    4  N   UNL     1      -8.162   8.980  66.805  1.00  0.00    -0.114 N  
HETATM    5  O   UNL     1      -6.799   9.387  68.636  1.00  0.00    -0.060 OA 
BRANCH   4   6
HETATM    6  C   UNL     1      -8.256   8.838  65.366  1.00  0.00    -0.136 A  
HETATM    7  C   UNL     1      -7.815   7.686  64.692  1.00  0.00    -0.126 A  
HETATM    8  C   UNL     1      -7.943   7.562  63.304  1.00  0.00    -0.093 A  
HETATM    9  C   UNL     1      -8.785   9.880  64.593  1.00  0.00    -0.215 A  
HETATM   10  C   UNL     1      -8.502   8.593  62.561  1.00  0.00    -0.179 A  
HETATM   11  C   UNL     1      -8.914   9.757  63.202  1.00  0.00    -0.270 A  
ENDBRANCH   4   6
BRANCH   4  12
HETATM   12  C   UNL     1      -9.467   9.103  67.601  1.00  0.00    -0.140 C  
HETATM   13  C   UNL     1     -10.563   8.174  67.005  1.00  0.00    -0.346 C  
HETATM   14  C   UNL     1     -10.195   6.704  67.237  1.00  0.00    -0.198 C  
HETATM   15  N   UNL     1     -10.104   6.343  68.658  1.00  0.00    -0.149 NA 
HETATM   16  C   UNL     1      -9.144   7.230  69.343  1.00  0.00    -0.142 C  
HETATM   17  C   UNL     1      -9.418   8.716  69.112  1.00  0.00    -0.157 C  
BRANCH  12  18
HETATM   18  C   UNL     1      -9.935  10.580  67.615  1.00  0.00    -0.173 C  
HETATM   19  O   UNL     1      -9.241  11.530  67.958  1.00  0.00    -0.162 OA 
BRANCH  18  20
HETATM   20  O   UNL     1     -11.217  10.705  67.151  1.00  0.00    -0.296 OA 
HETATM   21  C   UNL     1     -11.480  11.881  66.391  1.00  0.00    -0.304 C  
ENDBRANCH  18  20
ENDBRANCH  12  18
BRANCH  15  22
HETATM   22  C   UNL     1     -11.403   6.312  69.361  1.00  0.00    -0.378 C  
BRANCH  22  23
HETATM   23  C   UNL     1     -11.289   6.386  70.886  1.00  0.00    -0.398 C  
BRANCH  23  24
HETATM   24  C   UNL     1     -12.280   7.379  71.433  1.00  0.00    -0.342 C  
HETATM   25  O   UNL     1     -13.495   7.239  71.433  1.00  0.00    -0.388 OA 
BRANCH  24  26
HETATM   26  O   UNL     1     -11.618   8.447  71.963  1.00  0.00    -0.302 OA 
HETATM   27  C   UNL     1     -12.090   9.703  71.480  1.00  0.00    -0.401 C  
ENDBRANCH  24  26
ENDBRANCH  23  24
ENDBRANCH  22  23
ENDBRANCH  15  22
ENDBRANCH   4  12
ENDBRANCH   2   3
TORSDOF 9
ENDMDL
MODEL      103
REMARK 921   NORMALIZED FREE ENERGY PREDICTED BY IDOCK:   -3.90 KCAL/MOL
REMARK 922        TOTAL FREE ENERGY PREDICTED BY IDOCK:   -6.14 KCAL/MOL
REMARK 923 INTER-LIGAND FREE ENERGY PREDICTED BY IDOCK:   -6.14 KCAL/MOL
REMARK 924 INTRA-LIGAND FREE ENERGY PREDICTED BY IDOCK:    0.00 KCAL/MOL
REMARK 927      BINDING AFFINITY PREDICTED BY RF-SCORE:    0.00 PKD
ROOT
HETATM    1  C   UNL     1     -10.637  17.391  66.696  1.00  0.00    -0.182 C  
HETATM    2  C   UNL     1     -10.405  16.229  65.741  1.00  0.00    -0.393 C  
ENDROOT
BRANCH   2   3
HETATM    3  C   UNL     1     -11.078  14.956  66.250  1.00  0.00    -0.340 C  
HETATM    4  N   UNL     1     -10.418  14.166  67.206  1.00  0.00    -0.271 N  
HETATM    5  O   UNL     1     -12.188  14.668  65.795  1.00  0.00    -0.282 OA 
BRANCH   4   6
HETATM    6  C   UNL     1      -9.137  14.576  67.744  1.00  0.00    -0.190 A  
HETATM    7  C   UNL     1      -7.957  14.558  66.978  1.00  0.00    -0.074 A  
HETATM    8  C   UNL     1      -6.737  14.985  67.513  1.00  0.00    -0.178 A  
HETATM    9  C   UNL     1      -9.038  14.990  69.079  1.00  0.00    -0.205 A  
HETATM   10  C   UNL     1      -6.668  15.425  68.828  1.00  0.00    -0.108 A  
HETATM   11  C   UNL     1      -7.815  15.418  69.616  1.00  0.00    -0.149 A  
ENDBRANCH   4   6
BRANCH   4  12
HETATM   12  C   UNL     1     -10.870  12.721  67.450  1.00  0.00    -0.240 C  
HETATM   13  C   UNL     1     -11.474  12.109  66.155  1.00  0.00    -0.429 C  
HETATM   14  C   UNL     1     -10.378  11.917  65.099  1.00  0.00    -0.277 C  
HETATM   15  N   UNL     1      -9.321  10.986  65.517  1.00  0.00    -0.209 NA 
HETATM   16  C   UNL     1      -8.735  11.433  66.795  1.00  0.00    -0.174 C  
HETATM   17  C   UNL     1      -9.776  11.697  67.884  1.00  0.00    -0.181 C  
BRANCH  12  18
HETATM   18  C   UNL     1     -11.892  12.682  68.614  1.00  0.00    -0.302 C  
HETATM   19  O   UNL     1     -12.294  13.666  69.224  1.00  0.00    -0.288 OA 
BRANCH  18  20
HETATM   20  O   UNL     1     -12.331  11.408  68.854  1.00  0.00    -0.446 OA 
HETATM   21  C   UNL     1     -12.397  11.032  70.227  1.00  0.00    -0.328 C  
ENDBRANCH  18  20
ENDBRANCH  12  18
BRANCH  15  22
HETATM   22  C   UNL     1      -9.748   9.574  65.587  1.00  0.00    -0.290 C  
BRANCH  22  23
HETATM   23  C   UNL     1      -8.629   8.602  65.970  1.00  0.00    -0.173 C  
BRANCH  23  24
HETATM   24  C   UNL     1      -7.710   8.382  64.797  1.00  0.00    -0.109 C  
HETATM   25  O   UNL     1      -6.717   9.049  64.541  1.00  0.00    -0.077 OA 
BRANCH  24  26
HETATM   26  O   UNL     1      -8.129   7.302  64.078  1.00  0.00    -0.112 OA 
HETATM   27  C   UNL     1      -7.898   7.428  62.677  1.00  0.00    -0.132 C  
ENDBRANCH  24  26
ENDBRANCH  23  24
ENDBRANCH  22  23
ENDBRANCH  15  22
ENDBRANCH   4  12
ENDBRANCH   2   3
TORSDOF 9
ENDMDL
MODEL      104
REMARK 921   NORMALIZED FREE ENERGY PREDICTED BY IDOCK:   -3.89 KCAL/MOL
REMARK 922        TOTAL FREE ENERGY PREDICTED BY IDOCK:   -6.13 KCAL/MOL
REMARK 923 INTER-LIGAND FREE ENERGY PREDICTED BY IDOCK:   -6.01 KCAL/MOL
REMARK 924 INTRA-LIGAND FREE ENERGY PREDICTED BY IDOCK:   -0.11 KCAL/MOL
REMARK 927      BINDING AFFINITY PREDICTED BY RF-SCORE:    0.00 PKD
ROOT
HETATM    1  C   UNL     1      -6.810  10.109  68.615  1.00  0.00    -0.057 C  
HETATM    2  C   UNL     1      -7.609   9.674  69.835  1.00  0.00    -0.138 C  
ENDROOT
BRANCH   2   3
HETATM    3  C   UNL     1      -8.221   8.290  69.628  1.00  0.00    -0.118 C  
HETATM    4  N   UNL     1      -9.610   8.174  69.451  1.00  0.00    -0.166 N  
HETATM    5  O   UNL     1      -7.462   7.318  69.624  1.00  0.00    -0.089 OA 
BRANCH   4   6
HETATM    6  C   UNL     1     -10.450   9.353  69.416  1.00  0.00    -0.220 A  
HETATM    7  C   UNL     1     -10.905   9.991  70.583  1.00  0.00    -0.367 A  
HETATM    8  C   UNL     1     -11.694  11.145  70.521  1.00  0.00    -0.392 A  
HETATM    9  C   UNL     1     -10.855   9.887  68.185  1.00  0.00    -0.282 A  
HETATM   10  C   UNL     1     -12.055  11.677  69.291  1.00  0.00    -0.323 A  
HETATM   11  C   UNL     1     -11.646  11.044  68.122  1.00  0.00    -0.345 A  
ENDBRANCH   4   6
BRANCH   4  12
HETATM   12  C   UNL     1     -10.292   6.811  69.621  1.00  0.00    -0.198 C  
HETATM   13  C   UNL     1      -9.530   5.942  70.662  1.00  0.00    -0.199 C  
HETATM   14  C   UNL     1      -9.682   6.542  72.065  1.00  0.00    -0.149 C  
HETATM   15  N   UNL     1     -11.073   6.587  72.534  1.00  0.00    -0.250 NA 
HETATM   16  C   UNL     1     -11.907   7.323  71.565  1.00  0.00    -0.304 C  
HETATM   17  C   UNL     1     -11.767   6.812  70.130  1.00  0.00    -0.370 C  
BRANCH  12  18
HETATM   18  C   UNL     1     -10.377   6.093  68.251  1.00  0.00    -0.198 C  
HETATM   19  O   UNL     1     -11.110   6.431  67.329  1.00  0.00    -0.368 OA 
BRANCH  18  20
HETATM   20  O   UNL     1      -9.493   5.050  68.175  1.00  0.00    -0.121 OA 
HETATM   21  C   UNL     1      -8.569   5.110  67.092  1.00  0.00    -0.105 C  
ENDBRANCH  18  20
ENDBRANCH  12  18
BRANCH  15  22
HETATM   22  C   UNL     1     -11.652   5.264  72.845  1.00  0.00    -0.219 C  
BRANCH  22  23
HETATM   23  C   UNL     1     -10.817   4.432  73.823  1.00  0.00    -0.362 C  
BRANCH  23  24
HETATM   24  C   UNL     1     -10.841   2.981  73.420  1.00  0.00    -0.207 C  
HETATM   25  O   UNL     1     -11.741   2.191  73.672  1.00  0.00    -0.222 OA 
BRANCH  24  26
HETATM   26  O   UNL     1      -9.721   2.684  72.701  1.00  0.00    -0.110 OA 
HETATM   27  C   UNL     1      -9.941   1.703  71.689  1.00  0.00    -0.137 C  
ENDBRANCH  24  26
ENDBRANCH  23  24
ENDBRANCH  22  23
ENDBRANCH  15  22
ENDBRANCH   4  12
ENDBRANCH   2   3
TORSDOF 9
ENDMDL
MODEL      105
REMARK 921   NORMALIZED FREE ENERGY PREDICTED BY IDOCK:   -3.89 KCAL/MOL
REMARK 922        TOTAL FREE ENERGY PREDICTED BY IDOCK:   -6.12 KCAL/MOL
REMARK 923 INTER-LIGAND FREE ENERGY PREDICTED BY IDOCK:   -6.13 KCAL/MOL
REMARK 924 INTRA-LIGAND FREE ENERGY PREDICTED BY IDOCK:    0.02 KCAL/MOL
REMARK 927      BINDING AFFINITY PREDICTED BY RF-SCORE:    0.00 PKD
ROOT
HETATM    1  C   UNL     1      -9.602   5.993  66.448  1.00  0.00    -0.168 C  
HETATM    2  C   UNL     1      -9.502   6.880  67.681  1.00  0.00    -0.133 C  
ENDROOT
BRANCH   2   3
HETATM    3  C   UNL     1      -8.996   8.274  67.317  1.00  0.00    -0.137 C  
HETATM    4  N   UNL     1      -9.103   9.310  68.259  1.00  0.00    -0.129 N  
HETATM    5  O   UNL     1      -8.509   8.436  66.195  1.00  0.00    -0.117 OA 
BRANCH   4   6
HETATM    6  C   UNL     1      -9.639   9.054  69.580  1.00  0.00    -0.165 A  
HETATM    7  C   UNL     1      -8.822   8.960  70.721  1.00  0.00    -0.250 A  
HETATM    8  C   UNL     1      -9.368   8.738  71.990  1.00  0.00    -0.322 A  
HETATM    9  C   UNL     1     -11.017   8.870  69.752  1.00  0.00    -0.164 A  
HETATM   10  C   UNL     1     -10.740   8.594  72.143  1.00  0.00    -0.417 A  
HETATM   11  C   UNL     1     -11.566   8.648  71.024  1.00  0.00    -0.325 A  
ENDBRANCH   4   6
BRANCH   4  12
HETATM   12  C   UNL     1      -8.966  10.770  67.811  1.00  0.00    -0.137 C  
HETATM   13  C   UNL     1      -9.484  10.948  66.355  1.00  0.00    -0.214 C  
HETATM   14  C   UNL     1     -11.003  10.750  66.306  1.00  0.00    -0.003 C  
HETATM   15  N   UNL     1     -11.747  11.729  67.109  1.00  0.00    -0.593 NA 
HETATM   16  C   UNL     1     -11.268  11.703  68.505  1.00  0.00    -0.256 C  
HETATM   17  C   UNL     1      -9.750  11.842  68.630  1.00  0.00    -0.116 C  
BRANCH  12  18
HETATM   18  C   UNL     1      -7.488  11.221  67.936  1.00  0.00    -0.094 C  
HETATM   19  O   UNL     1      -6.926  11.484  68.993  1.00  0.00    -0.096 OA 
BRANCH  18  20
HETATM   20  O   UNL     1      -6.867  11.247  66.718  1.00  0.00    -0.125 OA 
HETATM   21  C   UNL     1      -5.477  11.561  66.747  1.00  0.00    -0.135 C  
ENDBRANCH  18  20
ENDBRANCH  12  18
BRANCH  15  22
HETATM   22  C   UNL     1     -11.730  13.101  66.562  1.00  0.00    -0.382 C  
BRANCH  22  23
HETATM   23  C   UNL     1     -11.909  14.196  67.617  1.00  0.00    -0.427 C  
BRANCH  23  24
HETATM   24  C   UNL     1     -10.865  15.266  67.436  1.00  0.00    -0.304 C  
HETATM   25  O   UNL     1     -10.899  16.380  67.940  1.00  0.00    -0.333 OA 
BRANCH  24  26
HETATM   26  O   UNL     1      -9.853  14.796  66.652  1.00  0.00    -0.242 OA 
HETATM   27  C   UNL     1      -8.960  15.814  66.207  1.00  0.00    -0.345 C  
ENDBRANCH  24  26
ENDBRANCH  23  24
ENDBRANCH  22  23
ENDBRANCH  15  22
ENDBRANCH   4  12
ENDBRANCH   2   3
TORSDOF 9
ENDMDL
MODEL      106
REMARK 921   NORMALIZED FREE ENERGY PREDICTED BY IDOCK:   -3.87 KCAL/MOL
REMARK 922        TOTAL FREE ENERGY PREDICTED BY IDOCK:   -6.08 KCAL/MOL
REMARK 923 INTER-LIGAND FREE ENERGY PREDICTED BY IDOCK:   -5.79 KCAL/MOL
REMARK 924 INTRA-LIGAND FREE ENERGY PREDICTED BY IDOCK:   -0.29 KCAL/MOL
REMARK 927      BINDING AFFINITY PREDICTED BY RF-SCORE:    0.00 PKD
ROOT
HETATM    1  C   UNL     1      -5.406  10.921  65.844  1.00  0.00    -0.142 C  
HETATM    2  C   UNL     1      -6.470  10.751  66.918  1.00  0.00    -0.090 C  
ENDROOT
BRANCH   2   3
HETATM    3  C   UNL     1      -6.928   9.298  67.015  1.00  0.00    -0.085 C  
HETATM    4  N   UNL     1      -8.230   8.960  66.608  1.00  0.00    -0.110 N  
HETATM    5  O   UNL     1      -6.127   8.468  67.452  1.00  0.00    -0.050 OA 
BRANCH   4   6
HETATM    6  C   UNL     1      -9.114   9.966  66.057  1.00  0.00    -0.158 A  
HETATM    7  C   UNL     1      -9.640  11.015  66.831  1.00  0.00    -0.205 A  
HETATM    8  C   UNL     1     -10.471  11.989  66.268  1.00  0.00    -0.273 A  
HETATM    9  C   UNL     1      -9.492   9.902  64.709  1.00  0.00    -0.356 A  
HETATM   10  C   UNL     1     -10.804  11.928  64.922  1.00  0.00    -0.356 A  
HETATM   11  C   UNL     1     -10.324  10.879  64.143  1.00  0.00    -0.432 A  
ENDBRANCH   4   6
BRANCH   4  12
HETATM   12  C   UNL     1      -8.843   7.622  67.037  1.00  0.00    -0.128 C  
HETATM   13  C   UNL     1      -8.394   7.249  68.479  1.00  0.00    -0.125 C  
HETATM   14  C   UNL     1      -9.016   8.215  69.494  1.00  0.00    -0.151 C  
HETATM   15  N   UNL     1     -10.484   8.172  69.517  1.00  0.00    -0.226 NA 
HETATM   16  C   UNL     1     -11.017   8.430  68.165  1.00  0.00     0.208 C  
HETATM   17  C   UNL     1     -10.400   7.537  67.088  1.00  0.00    -0.384 C  
BRANCH  12  18
HETATM   18  C   UNL     1      -8.448   6.516  66.026  1.00  0.00    -0.145 C  
HETATM   19  O   UNL     1      -7.893   6.718  64.952  1.00  0.00    -0.106 OA 
BRANCH  18  20
HETATM   20  O   UNL     1      -8.754   5.269  66.501  1.00  0.00    -0.114 OA 
HETATM   21  C   UNL     1      -8.261   4.181  65.723  1.00  0.00    -0.109 C  
ENDBRANCH  18  20
ENDBRANCH  12  18
BRANCH  15  22
HETATM   22  C   UNL     1     -11.046   6.931  70.087  1.00  0.00    -0.299 C  
BRANCH  22  23
HETATM   23  C   UNL     1     -12.182   7.162  71.088  1.00  0.00    -0.405 C  
BRANCH  23  24
HETATM   24  C   UNL     1     -11.714   8.056  72.206  1.00  0.00    -0.371 C  
HETATM   25  O   UNL     1     -10.777   7.820  72.956  1.00  0.00    -0.354 OA 
BRANCH  24  26
HETATM   26  O   UNL     1     -12.471   9.190  72.238  1.00  0.00    -0.368 OA 
HETATM   27  C   UNL     1     -13.856   8.953  71.997  1.00  0.00    -0.456 C  
ENDBRANCH  24  26
ENDBRANCH  23  24
ENDBRANCH  22  23
ENDBRANCH  15  22
ENDBRANCH   4  12
ENDBRANCH   2   3
TORSDOF 9
ENDMDL
MODEL      107
REMARK 921   NORMALIZED FREE ENERGY PREDICTED BY IDOCK:   -3.85 KCAL/MOL
REMARK 922        TOTAL FREE ENERGY PREDICTED BY IDOCK:   -6.06 KCAL/MOL
REMARK 923 INTER-LIGAND FREE ENERGY PREDICTED BY IDOCK:   -6.09 KCAL/MOL
REMARK 924 INTRA-LIGAND FREE ENERGY PREDICTED BY IDOCK:    0.03 KCAL/MOL
REMARK 927      BINDING AFFINITY PREDICTED BY RF-SCORE:    0.00 PKD
ROOT
HETATM    1  C   UNL     1     -12.276  14.559  64.576  1.00  0.00    -0.483 C  
HETATM    2  C   UNL     1     -11.975  14.323  66.048  1.00  0.00    -0.412 C  
ENDROOT
BRANCH   2   3
HETATM    3  C   UNL     1     -11.531  12.883  66.296  1.00  0.00    -0.348 C  
HETATM    4  N   UNL     1     -10.302  12.644  66.933  1.00  0.00    -0.232 N  
HETATM    5  O   UNL     1     -12.278  11.976  65.921  1.00  0.00    -0.531 OA 
BRANCH   4   6
HETATM    6  C   UNL     1      -9.484  13.746  67.397  1.00  0.00    -0.224 A  
HETATM    7  C   UNL     1      -8.418  14.264  66.641  1.00  0.00     0.067 A  
HETATM    8  C   UNL     1      -7.660  15.347  67.100  1.00  0.00    -0.238 A  
HETATM    9  C   UNL     1      -9.732  14.322  68.650  1.00  0.00    -0.213 A  
HETATM   10  C   UNL     1      -7.945  15.926  68.329  1.00  0.00    -0.139 A  
HETATM   11  C   UNL     1      -8.974  15.408  69.110  1.00  0.00    -0.245 A  
ENDBRANCH   4   6
BRANCH   4  12
HETATM   12  C   UNL     1      -9.657  11.254  66.856  1.00  0.00    -0.191 C  
HETATM   13  C   UNL     1      -8.682  11.036  68.048  1.00  0.00    -0.138 C  
HETATM   14  C   UNL     1      -9.465  10.943  69.363  1.00  0.00     0.063 C  
HETATM   15  N   UNL     1     -10.398   9.810  69.408  1.00  0.00    -0.203 NA 
HETATM   16  C   UNL     1     -11.323   9.875  68.260  1.00  0.00     0.024 C  
HETATM   17  C   UNL     1     -10.612  10.022  66.914  1.00  0.00    -0.261 C  
BRANCH  12  18
HETATM   18  C   UNL     1      -8.926  11.089  65.500  1.00  0.00    -0.194 C  
HETATM   19  O   UNL     1      -7.864  10.497  65.347  1.00  0.00    -0.152 OA 
BRANCH  18  20
HETATM   20  O   UNL     1      -9.637  11.651  64.475  1.00  0.00    -0.207 OA 
HETATM   21  C   UNL     1      -9.536  10.980  63.221  1.00  0.00    -0.328 C  
ENDBRANCH  18  20
ENDBRANCH  12  18
BRANCH  15  22
HETATM   22  C   UNL     1      -9.745   8.488  69.498  1.00  0.00    -0.176 C  
BRANCH  22  23
HETATM   23  C   UNL     1     -10.510   7.471  70.350  1.00  0.00    -0.227 C  
BRANCH  23  24
HETATM   24  C   UNL     1     -10.900   6.282  69.512  1.00  0.00    -0.340 C  
HETATM   25  O   UNL     1     -11.376   6.335  68.386  1.00  0.00    -0.298 OA 
BRANCH  24  26
HETATM   26  O   UNL     1     -10.611   5.130  70.182  1.00  0.00    -0.272 OA 
HETATM   27  C   UNL     1     -10.106   5.352  71.497  1.00  0.00    -0.195 C  
ENDBRANCH  24  26
ENDBRANCH  23  24
ENDBRANCH  22  23
ENDBRANCH  15  22
ENDBRANCH   4  12
ENDBRANCH   2   3
TORSDOF 9
ENDMDL
MODEL      108
REMARK 921   NORMALIZED FREE ENERGY PREDICTED BY IDOCK:   -3.85 KCAL/MOL
REMARK 922        TOTAL FREE ENERGY PREDICTED BY IDOCK:   -6.06 KCAL/MOL
REMARK 923 INTER-LIGAND FREE ENERGY PREDICTED BY IDOCK:   -6.04 KCAL/MOL
REMARK 924 INTRA-LIGAND FREE ENERGY PREDICTED BY IDOCK:   -0.02 KCAL/MOL
REMARK 927      BINDING AFFINITY PREDICTED BY RF-SCORE:    0.00 PKD
ROOT
HETATM    1  C   UNL     1     -10.167   4.927  67.718  1.00  0.00    -0.120 C  
HETATM    2  C   UNL     1      -9.905   5.308  69.168  1.00  0.00    -0.257 C  
ENDROOT
BRANCH   2   3
HETATM    3  C   UNL     1     -10.426   6.710  69.473  1.00  0.00    -0.218 C  
HETATM    4  N   UNL     1      -9.544   7.801  69.395  1.00  0.00    -0.156 N  
HETATM    5  O   UNL     1     -11.615   6.830  69.779  1.00  0.00    -0.298 OA 
BRANCH   4   6
HETATM    6  C   UNL     1      -8.169   7.611  68.984  1.00  0.00    -0.127 A  
HETATM    7  C   UNL     1      -7.756   7.746  67.646  1.00  0.00    -0.121 A  
HETATM    8  C   UNL     1      -6.416   7.584  67.279  1.00  0.00    -0.061 A  
HETATM    9  C   UNL     1      -7.197   7.259  69.930  1.00  0.00    -0.081 A  
HETATM   10  C   UNL     1      -5.463   7.270  68.238  1.00  0.00    -0.022 A  
HETATM   11  C   UNL     1      -5.853   7.096  69.563  1.00  0.00    -0.023 A  
ENDBRANCH   4   6
BRANCH   4  12
HETATM   12  C   UNL     1      -9.919   9.137  70.049  1.00  0.00    -0.199 C  
HETATM   13  C   UNL     1      -8.836  10.214  69.758  1.00  0.00    -0.152 C  
HETATM   14  C   UNL     1      -8.843  10.584  68.270  1.00  0.00    -0.139 C  
HETATM   15  N   UNL     1     -10.111  11.173  67.821  1.00  0.00    -0.176 NA 
HETATM   16  C   UNL     1     -11.228  10.259  68.131  1.00  0.00    -0.229 C  
HETATM   17  C   UNL     1     -11.253   9.803  69.591  1.00  0.00    -0.216 C  
BRANCH  12  18
HETATM   18  C   UNL     1     -10.112   8.938  71.574  1.00  0.00    -0.324 C  
HETATM   19  O   UNL     1     -11.192   8.751  72.122  1.00  0.00    -0.353 OA 
BRANCH  18  20
HETATM   20  O   UNL     1      -8.916   8.952  72.237  1.00  0.00    -0.388 OA 
HETATM   21  C   UNL     1      -8.779   7.981  73.272  1.00  0.00    -0.245 C  
ENDBRANCH  18  20
ENDBRANCH  12  18
BRANCH  15  22
HETATM   22  C   UNL     1     -10.368  12.531  68.341  1.00  0.00    -0.230 C  
BRANCH  22  23
HETATM   23  C   UNL     1     -11.705  13.128  67.894  1.00  0.00    -0.398 C  
BRANCH  23  24
HETATM   24  C   UNL     1     -11.496  14.044  66.717  1.00  0.00    -0.363 C  
HETATM   25  O   UNL     1     -10.473  14.672  66.482  1.00  0.00    -0.280 OA 
BRANCH  24  26
HETATM   26  O   UNL     1     -12.608  14.043  65.928  1.00  0.00    -0.488 OA 
HETATM   27  C   UNL     1     -12.314  14.011  64.533  1.00  0.00    -0.378 C  
ENDBRANCH  24  26
ENDBRANCH  23  24
ENDBRANCH  22  23
ENDBRANCH  15  22
ENDBRANCH   4  12
ENDBRANCH   2   3
TORSDOF 9
ENDMDL
MODEL      109
REMARK 921   NORMALIZED FREE ENERGY PREDICTED BY IDOCK:   -3.85 KCAL/MOL
REMARK 922        TOTAL FREE ENERGY PREDICTED BY IDOCK:   -6.05 KCAL/MOL
REMARK 923 INTER-LIGAND FREE ENERGY PREDICTED BY IDOCK:   -6.01 KCAL/MOL
REMARK 924 INTRA-LIGAND FREE ENERGY PREDICTED BY IDOCK:   -0.04 KCAL/MOL
REMARK 927      BINDING AFFINITY PREDICTED BY RF-SCORE:    0.00 PKD
ROOT
HETATM    1  C   UNL     1     -13.231  10.817  71.815  1.00  0.00    -0.523 C  
HETATM    2  C   UNL     1     -12.368  10.919  70.566  1.00  0.00    -0.463 C  
ENDROOT
BRANCH   2   3
HETATM    3  C   UNL     1     -11.119  10.050  70.687  1.00  0.00    -0.335 C  
HETATM    4  N   UNL     1     -10.140  10.112  69.681  1.00  0.00    -0.229 N  
HETATM    5  O   UNL     1     -11.017   9.319  71.675  1.00  0.00    -0.355 OA 
BRANCH   4   6
HETATM    6  C   UNL     1     -10.286  11.024  68.565  1.00  0.00    -0.192 A  
HETATM    7  C   UNL     1     -11.274  10.857  67.578  1.00  0.00    -0.364 A  
HETATM    8  C   UNL     1     -11.411  11.768  66.525  1.00  0.00    -0.370 A  
HETATM    9  C   UNL     1      -9.411  12.111  68.430  1.00  0.00    -0.179 A  
HETATM   10  C   UNL     1     -10.555  12.858  66.429  1.00  0.00    -0.285 A  
HETATM   11  C   UNL     1      -9.548  13.025  67.375  1.00  0.00    -0.211 A  
ENDBRANCH   4   6
BRANCH   4  12
HETATM   12  C   UNL     1      -9.084   9.006  69.570  1.00  0.00    -0.151 C  
HETATM   13  C   UNL     1      -9.724   7.610  69.817  1.00  0.00    -0.171 C  
HETATM   14  C   UNL     1     -10.672   7.251  68.667  1.00  0.00    -0.138 C  
HETATM   15  N   UNL     1      -9.998   7.148  67.365  1.00  0.00    -0.158 NA 
HETATM   16  C   UNL     1      -9.281   8.404  67.070  1.00  0.00    -0.151 C  
HETATM   17  C   UNL     1      -8.353   8.854  68.200  1.00  0.00    -0.125 C  
BRANCH  12  18
HETATM   18  C   UNL     1      -7.934   9.277  70.571  1.00  0.00    -0.167 C  
HETATM   19  O   UNL     1      -7.176  10.239  70.521  1.00  0.00    -0.297 OA 
BRANCH  18  20
HETATM   20  O   UNL     1      -7.892   8.328  71.557  1.00  0.00    -0.097 OA 
HETATM   21  C   UNL     1      -6.637   8.189  72.219  1.00  0.00    -0.075 C  
ENDBRANCH  18  20
ENDBRANCH  12  18
BRANCH  15  22
HETATM   22  C   UNL     1      -9.108   5.977  67.232  1.00  0.00    -0.111 C  
BRANCH  22  23
HETATM   23  C   UNL     1      -8.695   5.668  65.791  1.00  0.00    -0.150 C  
BRANCH  23  24
HETATM   24  C   UNL     1      -9.139   4.280  65.410  1.00  0.00    -0.141 C  
HETATM   25  O   UNL     1      -9.419   3.386  66.197  1.00  0.00    -0.170 OA 
BRANCH  24  26
HETATM   26  O   UNL     1      -9.218   4.177  64.053  1.00  0.00    -0.141 OA 
HETATM   27  C   UNL     1     -10.448   3.618  63.598  1.00  0.00    -0.257 C  
ENDBRANCH  24  26
ENDBRANCH  23  24
ENDBRANCH  22  23
ENDBRANCH  15  22
ENDBRANCH   4  12
ENDBRANCH   2   3
TORSDOF 9
ENDMDL
MODEL      110
REMARK 921   NORMALIZED FREE ENERGY PREDICTED BY IDOCK:   -3.80 KCAL/MOL
REMARK 922        TOTAL FREE ENERGY PREDICTED BY IDOCK:   -5.99 KCAL/MOL
REMARK 923 INTER-LIGAND FREE ENERGY PREDICTED BY IDOCK:   -5.68 KCAL/MOL
REMARK 924 INTRA-LIGAND FREE ENERGY PREDICTED BY IDOCK:   -0.31 KCAL/MOL
REMARK 927      BINDING AFFINITY PREDICTED BY RF-SCORE:    0.00 PKD
ROOT
HETATM    1  C   UNL     1      -5.846   6.810  69.481  1.00  0.00    -0.015 C  
HETATM    2  C   UNL     1      -6.523   6.680  68.125  1.00  0.00    -0.053 C  
ENDROOT
BRANCH   2   3
HETATM    3  C   UNL     1      -6.819   8.051  67.522  1.00  0.00    -0.070 C  
HETATM    4  N   UNL     1      -8.134   8.544  67.552  1.00  0.00    -0.106 N  
HETATM    5  O   UNL     1      -5.879   8.678  67.027  1.00  0.00    -0.041 OA 
BRANCH   4   6
HETATM    6  C   UNL     1      -9.192   7.788  68.189  1.00  0.00    -0.138 A  
HETATM    7  C   UNL     1     -10.032   6.916  67.475  1.00  0.00    -0.190 A  
HETATM    8  C   UNL     1     -11.029   6.176  68.119  1.00  0.00    -0.398 A  
HETATM    9  C   UNL     1      -9.420   7.926  69.565  1.00  0.00    -0.160 A  
HETATM   10  C   UNL     1     -11.215   6.302  69.489  1.00  0.00    -0.500 A  
HETATM   11  C   UNL     1     -10.419   7.185  70.213  1.00  0.00    -0.232 A  
ENDBRANCH   4   6
BRANCH   4  12
HETATM   12  C   UNL     1      -8.535   9.711  66.641  1.00  0.00    -0.123 C  
HETATM   13  C   UNL     1      -9.776  10.453  67.214  1.00  0.00    -0.195 C  
HETATM   14  C   UNL     1      -9.406  11.183  68.510  1.00  0.00    -0.190 C  
HETATM   15  N   UNL     1      -8.382  12.220  68.324  1.00  0.00    -0.173 NA 
HETATM   16  C   UNL     1      -7.180  11.633  67.700  1.00  0.00    -0.107 C  
HETATM   17  C   UNL     1      -7.481  10.841  66.426  1.00  0.00    -0.142 C  
BRANCH  12  18
HETATM   18  C   UNL     1      -8.810   9.188  65.209  1.00  0.00    -0.199 C  
HETATM   19  O   UNL     1      -8.328   8.167  64.734  1.00  0.00    -0.157 OA 
BRANCH  18  20
HETATM   20  O   UNL     1      -9.701   9.988  64.545  1.00  0.00    -0.310 OA 
HETATM   21  C   UNL     1      -9.451  10.156  63.152  1.00  0.00    -0.255 C  
ENDBRANCH  18  20
ENDBRANCH  12  18
BRANCH  15  22
HETATM   22  C   UNL     1      -8.848  13.407  67.579  1.00  0.00    -0.210 C  
BRANCH  22  23
HETATM   23  C   UNL     1     -10.250  13.880  67.973  1.00  0.00    -0.246 C  
BRANCH  23  24
HETATM   24  C   UNL     1     -10.985  14.389  66.760  1.00  0.00    -0.314 C  
HETATM   25  O   UNL     1     -10.512  15.121  65.902  1.00  0.00    -0.300 OA 
BRANCH  24  26
HETATM   26  O   UNL     1     -12.250  13.882  66.742  1.00  0.00    -0.429 OA 
HETATM   27  C   UNL     1     -12.836  13.867  65.442  1.00  0.00    -0.427 C  
ENDBRANCH  24  26
ENDBRANCH  23  24
ENDBRANCH  22  23
ENDBRANCH  15  22
ENDBRANCH   4  12
ENDBRANCH   2   3
TORSDOF 9
ENDMDL
MODEL      111
REMARK 921   NORMALIZED FREE ENERGY PREDICTED BY IDOCK:   -3.77 KCAL/MOL
REMARK 922        TOTAL FREE ENERGY PREDICTED BY IDOCK:   -5.94 KCAL/MOL
REMARK 923 INTER-LIGAND FREE ENERGY PREDICTED BY IDOCK:   -6.12 KCAL/MOL
REMARK 924 INTRA-LIGAND FREE ENERGY PREDICTED BY IDOCK:    0.18 KCAL/MOL
REMARK 927      BINDING AFFINITY PREDICTED BY RF-SCORE:    0.00 PKD
ROOT
HETATM    1  C   UNL     1     -11.372  13.702  63.812  1.00  0.00    -0.011 C  
HETATM    2  C   UNL     1     -12.073  14.623  64.801  1.00  0.00    -0.428 C  
ENDROOT
BRANCH   2   3
HETATM    3  C   UNL     1     -12.112  14.006  66.197  1.00  0.00    -0.446 C  
HETATM    4  N   UNL     1     -11.258  14.507  67.193  1.00  0.00    -0.321 N  
HETATM    5  O   UNL     1     -12.903  13.080  66.396  1.00  0.00    -0.067 OA 
BRANCH   4   6
HETATM    6  C   UNL     1     -10.383  15.628  66.919  1.00  0.00    -0.293 A  
HETATM    7  C   UNL     1      -9.148  15.479  66.263  1.00  0.00    -0.369 A  
HETATM    8  C   UNL     1      -8.333  16.582  65.986  1.00  0.00    -0.164 A  
HETATM    9  C   UNL     1     -10.748  16.918  67.329  1.00  0.00    -0.208 A  
HETATM   10  C   UNL     1      -8.730  17.856  66.370  1.00  0.00    -0.249 A  
HETATM   11  C   UNL     1      -9.932  18.025  67.052  1.00  0.00    -0.330 A  
ENDBRANCH   4   6
BRANCH   4  12
HETATM   12  C   UNL     1     -10.997  13.687  68.462  1.00  0.00    -0.267 C  
HETATM   13  C   UNL     1     -11.217  12.171  68.190  1.00  0.00    -0.320 C  
HETATM   14  C   UNL     1     -10.131  11.639  67.248  1.00  0.00    -0.199 C  
HETATM   15  N   UNL     1      -8.775  11.744  67.801  1.00  0.00    -0.149 NA 
HETATM   16  C   UNL     1      -8.492  13.143  68.175  1.00  0.00    -0.173 C  
HETATM   17  C   UNL     1      -9.564  13.761  69.075  1.00  0.00     0.174 C  
BRANCH  12  18
HETATM   18  C   UNL     1     -11.913  14.187  69.607  1.00  0.00    -0.336 C  
HETATM   19  O   UNL     1     -12.023  15.358  69.952  1.00  0.00    -0.318 OA 
BRANCH  18  20
HETATM   20  O   UNL     1     -12.626  13.160  70.164  1.00  0.00    -0.156 OA 
HETATM   21  C   UNL     1     -13.138  13.410  71.471  1.00  0.00    -0.342 C  
ENDBRANCH  18  20
ENDBRANCH  12  18
BRANCH  15  22
HETATM   22  C   UNL     1      -8.502  10.823  68.922  1.00  0.00    -0.149 C  
BRANCH  22  23
HETATM   23  C   UNL     1      -9.015   9.398  68.697  1.00  0.00    -0.132 C  
BRANCH  23  24
HETATM   24  C   UNL     1      -9.976   9.013  69.792  1.00  0.00    -0.196 C  
HETATM   25  O   UNL     1     -10.199   9.670  70.800  1.00  0.00    -0.290 OA 
BRANCH  24  26
HETATM   26  O   UNL     1     -10.589   7.838  69.475  1.00  0.00    -0.227 OA 
HETATM   27  C   UNL     1     -10.033   7.199  68.329  1.00  0.00    -0.156 C  
ENDBRANCH  24  26
ENDBRANCH  23  24
ENDBRANCH  22  23
ENDBRANCH  15  22
ENDBRANCH   4  12
ENDBRANCH   2   3
TORSDOF 9
ENDMDL
MODEL      112
REMARK 921   NORMALIZED FREE ENERGY PREDICTED BY IDOCK:   -3.75 KCAL/MOL
REMARK 922        TOTAL FREE ENERGY PREDICTED BY IDOCK:   -5.91 KCAL/MOL
REMARK 923 INTER-LIGAND FREE ENERGY PREDICTED BY IDOCK:   -6.00 KCAL/MOL
REMARK 924 INTRA-LIGAND FREE ENERGY PREDICTED BY IDOCK:    0.09 KCAL/MOL
REMARK 927      BINDING AFFINITY PREDICTED BY RF-SCORE:    0.00 PKD
ROOT
HETATM    1  C   UNL     1     -11.108   3.814  73.464  1.00  0.00    -0.328 C  
HETATM    2  C   UNL     1     -11.121   5.336  73.463  1.00  0.00    -0.316 C  
ENDROOT
BRANCH   2   3
HETATM    3  C   UNL     1     -10.133   5.894  72.442  1.00  0.00    -0.177 C  
HETATM    4  N   UNL     1     -10.537   6.944  71.600  1.00  0.00    -0.209 N  
HETATM    5  O   UNL     1      -9.006   5.395  72.397  1.00  0.00    -0.134 OA 
BRANCH   4   6
HETATM    6  C   UNL     1     -11.856   7.527  71.729  1.00  0.00    -0.294 A  
HETATM    7  C   UNL     1     -13.032   6.789  71.504  1.00  0.00    -0.281 A  
HETATM    8  C   UNL     1     -14.296   7.368  71.661  1.00  0.00    -0.614 A  
HETATM    9  C   UNL     1     -11.994   8.879  72.069  1.00  0.00    -0.439 A  
HETATM   10  C   UNL     1     -14.410   8.701  72.033  1.00  0.00    -0.512 A  
HETATM   11  C   UNL     1     -13.261   9.461  72.227  1.00  0.00    -0.528 A  
ENDBRANCH   4   6
BRANCH   4  12
HETATM   12  C   UNL     1      -9.730   7.266  70.337  1.00  0.00    -0.172 C  
HETATM   13  C   UNL     1      -9.067   5.980  69.766  1.00  0.00    -0.145 C  
HETATM   14  C   UNL     1     -10.138   5.031  69.217  1.00  0.00    -0.200 C  
HETATM   15  N   UNL     1     -10.908   5.601  68.104  1.00  0.00    -0.160 NA 
HETATM   16  C   UNL     1     -11.515   6.881  68.516  1.00  0.00     0.285 C  
HETATM   17  C   UNL     1     -10.512   7.862  69.125  1.00  0.00    -0.218 C  
BRANCH  12  18
HETATM   18  C   UNL     1      -8.667   8.347  70.655  1.00  0.00    -0.146 C  
HETATM   19  O   UNL     1      -7.815   8.253  71.531  1.00  0.00    -0.097 OA 
BRANCH  18  20
HETATM   20  O   UNL     1      -8.764   9.413  69.802  1.00  0.00    -0.149 OA 
HETATM   21  C   UNL     1      -7.633  10.281  69.777  1.00  0.00    -0.162 C  
ENDBRANCH  18  20
ENDBRANCH  12  18
BRANCH  15  22
HETATM   22  C   UNL     1     -10.144   5.748  66.849  1.00  0.00    -0.192 C  
BRANCH  22  23
HETATM   23  C   UNL     1     -10.344   4.600  65.857  1.00  0.00    -0.315 C  
BRANCH  23  24
HETATM   24  C   UNL     1      -9.139   4.471  64.962  1.00  0.00    -0.152 C  
HETATM   25  O   UNL     1      -8.362   5.375  64.687  1.00  0.00    -0.135 OA 
BRANCH  24  26
HETATM   26  O   UNL     1      -9.021   3.183  64.529  1.00  0.00    -0.112 OA 
HETATM   27  C   UNL     1      -9.134   2.221  65.575  1.00  0.00    -0.096 C  
ENDBRANCH  24  26
ENDBRANCH  23  24
ENDBRANCH  22  23
ENDBRANCH  15  22
ENDBRANCH   4  12
ENDBRANCH   2   3
TORSDOF 9
ENDMDL
MODEL      113
REMARK 921   NORMALIZED FREE ENERGY PREDICTED BY IDOCK:   -3.74 KCAL/MOL
REMARK 922        TOTAL FREE ENERGY PREDICTED BY IDOCK:   -5.88 KCAL/MOL
REMARK 923 INTER-LIGAND FREE ENERGY PREDICTED BY IDOCK:   -6.77 KCAL/MOL
REMARK 924 INTRA-LIGAND FREE ENERGY PREDICTED BY IDOCK:    0.89 KCAL/MOL
REMARK 927      BINDING AFFINITY PREDICTED BY RF-SCORE:    0.00 PKD
ROOT
HETATM    1  C   UNL     1      -6.767  11.936  69.338  1.00  0.00    -0.081 C  
HETATM    2  C   UNL     1      -7.407  11.992  67.958  1.00  0.00    -0.102 C  
ENDROOT
BRANCH   2   3
HETATM    3  C   UNL     1      -7.892  13.402  67.631  1.00  0.00    -0.173 C  
HETATM    4  N   UNL     1      -9.253  13.713  67.786  1.00  0.00    -0.205 N  
HETATM    5  O   UNL     1      -7.058  14.222  67.239  1.00  0.00    -0.155 OA 
BRANCH   4   6
HETATM    6  C   UNL     1     -10.182  12.726  68.297  1.00  0.00    -0.244 A  
HETATM    7  C   UNL     1     -10.370  11.477  67.679  1.00  0.00    -0.209 A  
HETATM    8  C   UNL     1     -11.254  10.530  68.208  1.00  0.00    -0.354 A  
HETATM    9  C   UNL     1     -10.947  13.008  69.436  1.00  0.00    -0.048 A  
HETATM   10  C   UNL     1     -11.977  10.817  69.358  1.00  0.00    -0.353 A  
HETATM   11  C   UNL     1     -11.833  12.059  69.968  1.00  0.00    -0.392 A  
ENDBRANCH   4   6
BRANCH   4  12
HETATM   12  C   UNL     1      -9.833  14.967  67.122  1.00  0.00    -0.233 C  
HETATM   13  C   UNL     1     -11.057  15.496  67.922  1.00  0.00    -0.321 C  
HETATM   14  C   UNL     1     -10.605  16.045  69.280  1.00  0.00    -0.265 C  
HETATM   15  N   UNL     1      -9.685  17.185  69.172  1.00  0.00    -0.202 NA 
HETATM   16  C   UNL     1      -8.517  16.813  68.351  1.00  0.00    -0.231 C  
HETATM   17  C   UNL     1      -8.893  16.206  66.998  1.00  0.00    -0.231 C  
BRANCH  12  18
HETATM   18  C   UNL     1     -10.220  14.652  65.655  1.00  0.00    -0.359 C  
HETATM   19  O   UNL     1      -9.593  13.905  64.912  1.00  0.00     0.062 OA 
BRANCH  18  20
HETATM   20  O   UNL     1     -11.382  15.279  65.297  1.00  0.00    -0.338 OA 
HETATM   21  C   UNL     1     -12.072  14.703  64.191  1.00  0.00    -0.320 C  
ENDBRANCH  18  20
ENDBRANCH  12  18
BRANCH  15  22
HETATM   22  C   UNL     1     -10.313  18.428  68.680  1.00  0.00    -0.254 C  
BRANCH  22  23
HETATM   23  C   UNL     1      -9.320  19.556  68.388  1.00  0.00    -0.431 C  
BRANCH  23  24
HETATM   24  C   UNL     1      -9.307  19.868  66.915  1.00  0.00    -0.379 C  
HETATM   25  O   UNL     1     -10.276  19.807  66.170  1.00  0.00    -0.446 OA 
BRANCH  24  26
HETATM   26  O   UNL     1      -8.058  20.263  66.537  1.00  0.00    -0.286 OA 
HETATM   27  C   UNL     1      -7.029  19.799  67.408  1.00  0.00    -0.219 C  
ENDBRANCH  24  26
ENDBRANCH  23  24
ENDBRANCH  22  23
ENDBRANCH  15  22
ENDBRANCH   4  12
ENDBRANCH   2   3
TORSDOF 9
ENDMDL
MODEL      114
REMARK 921   NORMALIZED FREE ENERGY PREDICTED BY IDOCK:   -3.72 KCAL/MOL
REMARK 922        TOTAL FREE ENERGY PREDICTED BY IDOCK:   -5.86 KCAL/MOL
REMARK 923 INTER-LIGAND FREE ENERGY PREDICTED BY IDOCK:   -5.49 KCAL/MOL
REMARK 924 INTRA-LIGAND FREE ENERGY PREDICTED BY IDOCK:   -0.36 KCAL/MOL
REMARK 927      BINDING AFFINITY PREDICTED BY RF-SCORE:    0.00 PKD
ROOT
HETATM    1  C   UNL     1      -8.419  18.639  66.513  1.00  0.00    -0.302 C  
HETATM    2  C   UNL     1      -8.317  17.213  65.992  1.00  0.00    -0.169 C  
ENDROOT
BRANCH   2   3
HETATM    3  C   UNL     1      -9.592  16.426  66.287  1.00  0.00    -0.311 C  
HETATM    4  N   UNL     1      -9.534  15.331  67.165  1.00  0.00    -0.210 N  
HETATM    5  O   UNL     1     -10.634  16.788  65.735  1.00  0.00    -0.338 OA 
BRANCH   4   6
HETATM    6  C   UNL     1      -8.293  14.978  67.824  1.00  0.00    -0.150 A  
HETATM    7  C   UNL     1      -7.878  15.583  69.023  1.00  0.00    -0.201 A  
HETATM    8  C   UNL     1      -6.688  15.205  69.655  1.00  0.00    -0.181 A  
HETATM    9  C   UNL     1      -7.448  14.015  67.256  1.00  0.00    -0.054 A  
HETATM   10  C   UNL     1      -5.882  14.224  69.093  1.00  0.00    -0.090 A  
HETATM   11  C   UNL     1      -6.255  13.635  67.888  1.00  0.00    -0.158 A  
ENDBRANCH   4   6
BRANCH   4  12
HETATM   12  C   UNL     1     -10.675  14.307  67.188  1.00  0.00    -0.282 C  
HETATM   13  C   UNL     1     -10.386  13.187  68.228  1.00  0.00    -0.256 C  
HETATM   14  C   UNL     1     -10.449  13.755  69.650  1.00  0.00     0.416 C  
HETATM   15  N   UNL     1     -11.770  14.289  70.008  1.00  0.00    -0.288 NA 
HETATM   16  C   UNL     1     -12.182  15.310  69.025  1.00  0.00    -0.124 C  
HETATM   17  C   UNL     1     -12.093  14.831  67.576  1.00  0.00    -0.128 C  
BRANCH  12  18
HETATM   18  C   UNL     1     -10.877  13.714  65.771  1.00  0.00    -0.273 C  
HETATM   19  O   UNL     1      -9.977  13.279  65.062  1.00  0.00    -0.243 OA 
BRANCH  18  20
HETATM   20  O   UNL     1     -12.199  13.692  65.420  1.00  0.00    -0.390 OA 
HETATM   21  C   UNL     1     -12.648  12.487  64.805  1.00  0.00    -0.413 C  
ENDBRANCH  18  20
ENDBRANCH  12  18
BRANCH  15  22
HETATM   22  C   UNL     1     -12.815  13.260  70.182  1.00  0.00     0.238 C  
BRANCH  22  23
HETATM   23  C   UNL     1     -12.967  12.763  71.623  1.00  0.00    -0.402 C  
BRANCH  23  24
HETATM   24  C   UNL     1     -13.048  13.933  72.569  1.00  0.00    -0.437 C  
HETATM   25  O   UNL     1     -12.244  14.183  73.456  1.00  0.00    -0.071 OA 
BRANCH  24  26
HETATM   26  O   UNL     1     -14.138  14.695  72.267  1.00  0.00    -0.449 OA 
HETATM   27  C   UNL     1     -14.017  16.050  72.692  1.00  0.00    -0.227 C  
ENDBRANCH  24  26
ENDBRANCH  23  24
ENDBRANCH  22  23
ENDBRANCH  15  22
ENDBRANCH   4  12
ENDBRANCH   2   3
TORSDOF 9
ENDMDL
MODEL      115
REMARK 921   NORMALIZED FREE ENERGY PREDICTED BY IDOCK:   -3.71 KCAL/MOL
REMARK 922        TOTAL FREE ENERGY PREDICTED BY IDOCK:   -5.85 KCAL/MOL
REMARK 923 INTER-LIGAND FREE ENERGY PREDICTED BY IDOCK:   -5.80 KCAL/MOL
REMARK 924 INTRA-LIGAND FREE ENERGY PREDICTED BY IDOCK:   -0.05 KCAL/MOL
REMARK 927      BINDING AFFINITY PREDICTED BY RF-SCORE:    0.00 PKD
ROOT
HETATM    1  C   UNL     1     -11.500  12.797  65.706  1.00  0.00    -0.388 C  
HETATM    2  C   UNL     1     -10.289  12.458  66.564  1.00  0.00    -0.248 C  
ENDROOT
BRANCH   2   3
HETATM    3  C   UNL     1     -10.558  11.235  67.438  1.00  0.00    -0.224 C  
HETATM    4  N   UNL     1      -9.472  10.483  67.917  1.00  0.00    -0.146 N  
HETATM    5  O   UNL     1     -11.732  10.954  67.692  1.00  0.00    -0.566 OA 
BRANCH   4   6
HETATM    6  C   UNL     1      -8.111  10.886  67.630  1.00  0.00    -0.115 A  
HETATM    7  C   UNL     1      -7.492  11.968  68.280  1.00  0.00    -0.106 A  
HETATM    8  C   UNL     1      -6.166  12.320  68.003  1.00  0.00    -0.073 A  
HETATM    9  C   UNL     1      -7.369  10.201  66.658  1.00  0.00    -0.106 A  
HETATM   10  C   UNL     1      -5.437  11.605  67.062  1.00  0.00    -0.121 A  
HETATM   11  C   UNL     1      -6.040  10.552  66.381  1.00  0.00    -0.089 A  
ENDBRANCH   4   6
BRANCH   4  12
HETATM   12  C   UNL     1      -9.702   9.068  68.461  1.00  0.00    -0.159 C  
HETATM   13  C   UNL     1      -8.455   8.573  69.247  1.00  0.00    -0.128 C  
HETATM   14  C   UNL     1      -8.289   9.380  70.540  1.00  0.00    -0.197 C  
HETATM   15  N   UNL     1      -9.419   9.235  71.468  1.00  0.00    -0.279 NA 
HETATM   16  C   UNL     1     -10.677   9.601  70.788  1.00  0.00    -0.331 C  
HETATM   17  C   UNL     1     -10.885   8.873  69.460  1.00  0.00    -0.163 C  
BRANCH  12  18
HETATM   18  C   UNL     1     -10.044   8.106  67.295  1.00  0.00    -0.241 C  
HETATM   19  O   UNL     1      -9.981   8.400  66.107  1.00  0.00    -0.211 OA 
BRANCH  18  20
HETATM   20  O   UNL     1     -10.384   6.863  67.753  1.00  0.00    -0.171 OA 
HETATM   21  C   UNL     1     -10.874   5.960  66.765  1.00  0.00    -0.270 C  
ENDBRANCH  18  20
ENDBRANCH  12  18
BRANCH  15  22
HETATM   22  C   UNL     1      -9.519   7.905  72.102  1.00  0.00    -0.177 C  
BRANCH  22  23
HETATM   23  C   UNL     1     -10.721   7.748  73.036  1.00  0.00    -0.446 C  
BRANCH  23  24
HETATM   24  C   UNL     1     -11.072   6.291  73.189  1.00  0.00    -0.171 C  
HETATM   25  O   UNL     1     -11.918   5.694  72.537  1.00  0.00    -0.258 OA 
BRANCH  24  26
HETATM   26  O   UNL     1     -10.279   5.723  74.142  1.00  0.00    -0.228 OA 
HETATM   27  C   UNL     1     -10.247   4.299  74.079  1.00  0.00    -0.193 C  
ENDBRANCH  24  26
ENDBRANCH  23  24
ENDBRANCH  22  23
ENDBRANCH  15  22
ENDBRANCH   4  12
ENDBRANCH   2   3
TORSDOF 9
ENDMDL
MODEL      116
REMARK 921   NORMALIZED FREE ENERGY PREDICTED BY IDOCK:   -3.70 KCAL/MOL
REMARK 922        TOTAL FREE ENERGY PREDICTED BY IDOCK:   -5.83 KCAL/MOL
REMARK 923 INTER-LIGAND FREE ENERGY PREDICTED BY IDOCK:   -6.03 KCAL/MOL
REMARK 924 INTRA-LIGAND FREE ENERGY PREDICTED BY IDOCK:    0.20 KCAL/MOL
REMARK 927      BINDING AFFINITY PREDICTED BY RF-SCORE:    0.00 PKD
ROOT
HETATM    1  C   UNL     1     -10.616   8.627  68.892  1.00  0.00    -0.166 C  
HETATM    2  C   UNL     1     -10.314   9.994  69.489  1.00  0.00    -0.256 C  
ENDROOT
BRANCH   2   3
HETATM    3  C   UNL     1     -10.930  11.111  68.650  1.00  0.00    -0.220 C  
HETATM    4  N   UNL     1     -10.241  11.577  67.518  1.00  0.00    -0.183 N  
HETATM    5  O   UNL     1     -12.021  11.564  69.004  1.00  0.00    -0.325 OA 
BRANCH   4   6
HETATM    6  C   UNL     1      -8.986  10.976  67.118  1.00  0.00    -0.143 A  
HETATM    7  C   UNL     1      -7.798  11.154  67.850  1.00  0.00    -0.111 A  
HETATM    8  C   UNL     1      -6.604  10.540  67.457  1.00  0.00    -0.066 A  
HETATM    9  C   UNL     1      -8.920  10.201  65.953  1.00  0.00    -0.182 A  
HETATM   10  C   UNL     1      -6.569   9.747  66.318  1.00  0.00    -0.073 A  
HETATM   11  C   UNL     1      -7.724   9.585  65.559  1.00  0.00    -0.105 A  
ENDBRANCH   4   6
BRANCH   4  12
HETATM   12  C   UNL     1     -10.627  12.921  66.887  1.00  0.00    -0.253 C  
HETATM   13  C   UNL     1     -11.254  13.867  67.950  1.00  0.00    -0.302 C  
HETATM   14  C   UNL     1     -10.192  14.296  68.969  1.00  0.00    -0.149 C  
HETATM   15  N   UNL     1      -9.085  15.055  68.373  1.00  0.00    -0.178 NA 
HETATM   16  C   UNL     1      -8.469  14.275  67.283  1.00  0.00    -0.210 C  
HETATM   17  C   UNL     1      -9.478  13.765  66.253  1.00  0.00    -0.221 C  
BRANCH  12  18
HETATM   18  C   UNL     1     -11.603  12.684  65.706  1.00  0.00    -0.387 C  
HETATM   19  O   UNL     1     -12.816  12.846  65.760  1.00  0.00    -0.403 OA 
BRANCH  18  20
HETATM   20  O   UNL     1     -10.936  12.313  64.571  1.00  0.00    -0.287 OA 
HETATM   21  C   UNL     1     -11.565  12.678  63.345  1.00  0.00    -0.469 C  
ENDBRANCH  18  20
ENDBRANCH  12  18
BRANCH  15  22
HETATM   22  C   UNL     1      -9.453  16.412  67.920  1.00  0.00    -0.223 C  
BRANCH  22  23
HETATM   23  C   UNL     1      -8.573  17.523  68.498  1.00  0.00    -0.276 C  
BRANCH  23  24
HETATM   24  C   UNL     1      -7.322  17.677  67.673  1.00  0.00    -0.194 C  
HETATM   25  O   UNL     1      -6.182  17.490  68.074  1.00  0.00    -0.148 OA 
BRANCH  24  26
HETATM   26  O   UNL     1      -7.652  18.024  66.396  1.00  0.00    -0.228 OA 
HETATM   27  C   UNL     1      -7.154  19.303  66.010  1.00  0.00    -0.269 C  
ENDBRANCH  24  26
ENDBRANCH  23  24
ENDBRANCH  22  23
ENDBRANCH  15  22
ENDBRANCH   4  12
ENDBRANCH   2   3
TORSDOF 9
ENDMDL
MODEL      117
REMARK 921   NORMALIZED FREE ENERGY PREDICTED BY IDOCK:   -3.69 KCAL/MOL
REMARK 922        TOTAL FREE ENERGY PREDICTED BY IDOCK:   -5.82 KCAL/MOL
REMARK 923 INTER-LIGAND FREE ENERGY PREDICTED BY IDOCK:   -6.28 KCAL/MOL
REMARK 924 INTRA-LIGAND FREE ENERGY PREDICTED BY IDOCK:    0.46 KCAL/MOL
REMARK 927      BINDING AFFINITY PREDICTED BY RF-SCORE:    0.00 PKD
ROOT
HETATM    1  C   UNL     1      -6.057  10.896  68.860  1.00  0.00    -0.040 C  
HETATM    2  C   UNL     1      -6.833  10.642  67.576  1.00  0.00    -0.078 C  
ENDROOT
BRANCH   2   3
HETATM    3  C   UNL     1      -7.758  11.812  67.251  1.00  0.00    -0.158 C  
HETATM    4  N   UNL     1      -9.133  11.693  67.514  1.00  0.00    -0.168 N  
HETATM    5  O   UNL     1      -7.255  12.827  66.763  1.00  0.00     0.160 OA 
BRANCH   4   6
HETATM    6  C   UNL     1      -9.665  10.496  68.133  1.00  0.00    -0.153 A  
HETATM    7  C   UNL     1      -9.999   9.349  67.392  1.00  0.00    -0.252 A  
HETATM    8  C   UNL     1     -10.486   8.196  68.017  1.00  0.00    -0.242 A  
HETATM    9  C   UNL     1      -9.883  10.461  69.517  1.00  0.00    -0.211 A  
HETATM   10  C   UNL     1     -10.661   8.170  69.395  1.00  0.00    -0.206 A  
HETATM   11  C   UNL     1     -10.370   9.306  70.145  1.00  0.00    -0.258 A  
ENDBRANCH   4   6
BRANCH   4  12
HETATM   12  C   UNL     1     -10.124  12.667  66.865  1.00  0.00    -0.230 C  
HETATM   13  C   UNL     1     -11.173  13.156  67.905  1.00  0.00    -0.300 C  
HETATM   14  C   UNL     1     -10.501  14.050  68.954  1.00  0.00    -0.200 C  
HETATM   15  N   UNL     1      -9.910  15.270  68.389  1.00  0.00    -0.212 NA 
HETATM   16  C   UNL     1      -8.953  14.918  67.322  1.00  0.00    -0.199 C  
HETATM   17  C   UNL     1      -9.539  13.982  66.264  1.00  0.00    -0.284 C  
BRANCH  12  18
HETATM   18  C   UNL     1     -10.814  11.985  65.657  1.00  0.00    -0.282 C  
HETATM   19  O   UNL     1     -12.024  11.825  65.543  1.00  0.00    -0.324 OA 
BRANCH  18  20
HETATM   20  O   UNL     1      -9.906  11.620  64.701  1.00  0.00    -0.244 OA 
HETATM   21  C   UNL     1     -10.461  11.230  63.448  1.00  0.00    -0.361 C  
ENDBRANCH  18  20
ENDBRANCH  12  18
BRANCH  15  22
HETATM   22  C   UNL     1     -10.897  16.263  67.919  1.00  0.00    -0.330 C  
BRANCH  22  23
HETATM   23  C   UNL     1     -10.323  17.310  66.961  1.00  0.00    -0.318 C  
BRANCH  23  24
HETATM   24  C   UNL     1      -9.829  18.504  67.734  1.00  0.00    -0.312 C  
HETATM   25  O   UNL     1      -9.471  18.492  68.903  1.00  0.00    -0.315 OA 
BRANCH  24  26
HETATM   26  O   UNL     1      -9.807  19.601  66.924  1.00  0.00    -0.334 OA 
HETATM   27  C   UNL     1     -10.645  19.475  65.777  1.00  0.00    -0.427 C  
ENDBRANCH  24  26
ENDBRANCH  23  24
ENDBRANCH  22  23
ENDBRANCH  15  22
ENDBRANCH   4  12
ENDBRANCH   2   3
TORSDOF 9
ENDMDL
MODEL      118
REMARK 921   NORMALIZED FREE ENERGY PREDICTED BY IDOCK:   -3.67 KCAL/MOL
REMARK 922        TOTAL FREE ENERGY PREDICTED BY IDOCK:   -5.79 KCAL/MOL
REMARK 923 INTER-LIGAND FREE ENERGY PREDICTED BY IDOCK:   -5.65 KCAL/MOL
REMARK 924 INTRA-LIGAND FREE ENERGY PREDICTED BY IDOCK:   -0.14 KCAL/MOL
REMARK 927      BINDING AFFINITY PREDICTED BY RF-SCORE:    0.00 PKD
ROOT
HETATM    1  C   UNL     1      -6.344  12.714  68.903  1.00  0.00    -0.086 C  
HETATM    2  C   UNL     1      -7.283  11.541  69.146  1.00  0.00    -0.084 C  
ENDROOT
BRANCH   2   3
HETATM    3  C   UNL     1      -7.932  11.077  67.844  1.00  0.00    -0.112 C  
HETATM    4  N   UNL     1      -9.076  10.263  67.901  1.00  0.00    -0.131 N  
HETATM    5  O   UNL     1      -7.420  11.439  66.782  1.00  0.00    -0.141 OA 
BRANCH   4   6
HETATM    6  C   UNL     1      -9.666   9.907  69.175  1.00  0.00    -0.198 A  
HETATM    7  C   UNL     1     -10.941  10.354  69.567  1.00  0.00    -0.307 A  
HETATM    8  C   UNL     1     -11.499   9.974  70.792  1.00  0.00    -0.438 A  
HETATM    9  C   UNL     1      -8.954   9.105  70.076  1.00  0.00    -0.201 A  
HETATM   10  C   UNL     1     -10.791   9.150  71.656  1.00  0.00    -0.442 A  
HETATM   11  C   UNL     1      -9.513   8.723  71.305  1.00  0.00    -0.320 A  
ENDBRANCH   4   6
BRANCH   4  12
HETATM   12  C   UNL     1      -9.521   9.479  66.660  1.00  0.00    -0.170 C  
HETATM   13  C   UNL     1      -8.303   8.790  65.981  1.00  0.00    -0.130 C  
HETATM   14  C   UNL     1      -7.761   7.670  66.878  1.00  0.00    -0.103 C  
HETATM   15  N   UNL     1      -8.733   6.597  67.124  1.00  0.00    -0.111 NA 
HETATM   16  C   UNL     1      -9.971   7.160  67.694  1.00  0.00    -0.158 C  
HETATM   17  C   UNL     1     -10.543   8.321  66.878  1.00  0.00    -0.302 C  
BRANCH  12  18
HETATM   18  C   UNL     1     -10.246  10.428  65.672  1.00  0.00    -0.238 C  
HETATM   19  O   UNL     1     -10.097  10.416  64.456  1.00  0.00    -0.346 OA 
BRANCH  18  20
HETATM   20  O   UNL     1     -11.117  11.260  66.323  1.00  0.00    -0.261 OA 
HETATM   21  C   UNL     1     -11.007  12.641  65.990  1.00  0.00    -0.282 C  
ENDBRANCH  18  20
ENDBRANCH  12  18
BRANCH  15  22
HETATM   22  C   UNL     1      -9.019   5.755  65.944  1.00  0.00    -0.151 C  
BRANCH  22  23
HETATM   23  C   UNL     1     -10.055   4.657  66.198  1.00  0.00    -0.291 C  
BRANCH  23  24
HETATM   24  C   UNL     1      -9.366   3.361  66.538  1.00  0.00    -0.155 C  
HETATM   25  O   UNL     1      -8.908   2.570  65.725  1.00  0.00    -0.123 OA 
BRANCH  24  26
HETATM   26  O   UNL     1      -9.297   3.216  67.892  1.00  0.00    -0.188 OA 
HETATM   27  C   UNL     1      -9.508   1.876  68.330  1.00  0.00    -0.176 C  
ENDBRANCH  24  26
ENDBRANCH  23  24
ENDBRANCH  22  23
ENDBRANCH  15  22
ENDBRANCH   4  12
ENDBRANCH   2   3
TORSDOF 9
ENDMDL
MODEL      119
REMARK 921   NORMALIZED FREE ENERGY PREDICTED BY IDOCK:   -3.67 KCAL/MOL
REMARK 922        TOTAL FREE ENERGY PREDICTED BY IDOCK:   -5.78 KCAL/MOL
REMARK 923 INTER-LIGAND FREE ENERGY PREDICTED BY IDOCK:   -5.73 KCAL/MOL
REMARK 924 INTRA-LIGAND FREE ENERGY PREDICTED BY IDOCK:   -0.05 KCAL/MOL
REMARK 927      BINDING AFFINITY PREDICTED BY RF-SCORE:    0.00 PKD
ROOT
HETATM    1  C   UNL     1      -8.247  14.303  68.548  1.00  0.00    -0.145 C  
HETATM    2  C   UNL     1      -8.348  13.815  67.110  1.00  0.00    -0.153 C  
ENDROOT
BRANCH   2   3
HETATM    3  C   UNL     1      -7.818  12.390  66.973  1.00  0.00    -0.085 C  
HETATM    4  N   UNL     1      -8.596  11.430  66.305  1.00  0.00    -0.176 N  
HETATM    5  O   UNL     1      -6.714  12.135  67.461  1.00  0.00    -0.101 OA 
BRANCH   4   6
HETATM    6  C   UNL     1      -9.864  11.794  65.707  1.00  0.00    -0.240 A  
HETATM    7  C   UNL     1     -10.094  11.719  64.322  1.00  0.00    -0.326 A  
HETATM    8  C   UNL     1     -11.337  12.051  63.773  1.00  0.00    -0.526 A  
HETATM    9  C   UNL     1     -10.910  12.260  66.515  1.00  0.00    -0.297 A  
HETATM   10  C   UNL     1     -12.372  12.477  64.595  1.00  0.00    -0.547 A  
HETATM   11  C   UNL     1     -12.157  12.592  65.965  1.00  0.00    -0.429 A  
ENDBRANCH   4   6
BRANCH   4  12
HETATM   12  C   UNL     1      -8.285   9.938  66.476  1.00  0.00    -0.121 C  
HETATM   13  C   UNL     1      -7.917   9.621  67.954  1.00  0.00    -0.098 C  
HETATM   14  C   UNL     1      -9.147   9.787  68.854  1.00  0.00    -0.148 C  
HETATM   15  N   UNL     1     -10.244   8.871  68.519  1.00  0.00    -0.193 NA 
HETATM   16  C   UNL     1     -10.618   9.031  67.100  1.00  0.00    -0.220 C  
HETATM   17  C   UNL     1      -9.429   8.930  66.143  1.00  0.00    -0.318 C  
BRANCH  12  18
HETATM   18  C   UNL     1      -7.142   9.527  65.516  1.00  0.00    -0.090 C  
HETATM   19  O   UNL     1      -5.981   9.909  65.608  1.00  0.00    -0.063 OA 
BRANCH  18  20
HETATM   20  O   UNL     1      -7.576   8.640  64.568  1.00  0.00    -0.102 OA 
HETATM   21  C   UNL     1      -7.075   8.858  63.252  1.00  0.00    -0.089 C  
ENDBRANCH  18  20
ENDBRANCH  12  18
BRANCH  15  22
HETATM   22  C   UNL     1      -9.977   7.456  68.846  1.00  0.00    -0.169 C  
BRANCH  22  23
HETATM   23  C   UNL     1     -11.089   6.495  68.418  1.00  0.00    -0.340 C  
BRANCH  23  24
HETATM   24  C   UNL     1     -10.506   5.336  67.651  1.00  0.00    -0.107 C  
HETATM   25  O   UNL     1     -10.664   5.128  66.456  1.00  0.00    -0.300 OA 
BRANCH  24  26
HETATM   26  O   UNL     1      -9.744   4.570  68.482  1.00  0.00    -0.157 OA 
HETATM   27  C   UNL     1      -9.407   3.299  67.931  1.00  0.00    -0.194 C  
ENDBRANCH  24  26
ENDBRANCH  23  24
ENDBRANCH  22  23
ENDBRANCH  15  22
ENDBRANCH   4  12
ENDBRANCH   2   3
TORSDOF 9
ENDMDL
MODEL      120
REMARK 921   NORMALIZED FREE ENERGY PREDICTED BY IDOCK:   -3.64 KCAL/MOL
REMARK 922        TOTAL FREE ENERGY PREDICTED BY IDOCK:   -5.73 KCAL/MOL
REMARK 923 INTER-LIGAND FREE ENERGY PREDICTED BY IDOCK:   -5.61 KCAL/MOL
REMARK 924 INTRA-LIGAND FREE ENERGY PREDICTED BY IDOCK:   -0.12 KCAL/MOL
REMARK 927      BINDING AFFINITY PREDICTED BY RF-SCORE:    0.00 PKD
ROOT
HETATM    1  C   UNL     1     -10.437   4.764  72.264  1.00  0.00    -0.255 C  
HETATM    2  C   UNL     1     -11.009   5.377  70.994  1.00  0.00    -0.120 C  
ENDROOT
BRANCH   2   3
HETATM    3  C   UNL     1     -10.606   6.844  70.859  1.00  0.00    -0.218 C  
HETATM    4  N   UNL     1     -10.092   7.304  69.635  1.00  0.00    -0.190 N  
HETATM    5  O   UNL     1     -10.748   7.574  71.842  1.00  0.00    -0.213 OA 
BRANCH   4   6
HETATM    6  C   UNL     1      -9.991   6.415  68.496  1.00  0.00    -0.142 A  
HETATM    7  C   UNL     1     -10.974   6.359  67.493  1.00  0.00    -0.454 A  
HETATM    8  C   UNL     1     -10.839   5.511  66.388  1.00  0.00    -0.195 A  
HETATM    9  C   UNL     1      -8.892   5.553  68.376  1.00  0.00    -0.107 A  
HETATM   10  C   UNL     1      -9.725   4.691  66.271  1.00  0.00    -0.212 A  
HETATM   11  C   UNL     1      -8.755   4.703  67.269  1.00  0.00    -0.104 A  
ENDBRANCH   4   6
BRANCH   4  12
HETATM   12  C   UNL     1      -9.336   8.637  69.574  1.00  0.00    -0.153 C  
HETATM   13  C   UNL     1      -9.468   9.279  68.164  1.00  0.00    -0.150 C  
HETATM   14  C   UNL     1     -10.913   9.730  67.921  1.00  0.00    -0.188 C  
HETATM   15  N   UNL     1     -11.370  10.759  68.864  1.00  0.00    -0.263 NA 
HETATM   16  C   UNL     1     -11.205  10.279  70.250  1.00  0.00    -0.323 C  
HETATM   17  C   UNL     1      -9.798   9.762  70.551  1.00  0.00    -0.228 C  
BRANCH  12  18
HETATM   18  C   UNL     1      -7.849   8.413  69.948  1.00  0.00    -0.101 C  
HETATM   19  O   UNL     1      -7.461   7.879  70.981  1.00  0.00    -0.070 OA 
BRANCH  18  20
HETATM   20  O   UNL     1      -7.012   8.848  68.957  1.00  0.00    -0.061 OA 
HETATM   21  C   UNL     1      -6.082   7.881  68.474  1.00  0.00    -0.040 C  
ENDBRANCH  18  20
ENDBRANCH  12  18
BRANCH  15  22
HETATM   22  C   UNL     1     -10.738  12.080  68.675  1.00  0.00    -0.236 C  
BRANCH  22  23
HETATM   23  C   UNL     1     -11.693  13.161  68.160  1.00  0.00    -0.391 C  
BRANCH  23  24
HETATM   24  C   UNL     1     -11.262  13.627  66.794  1.00  0.00    -0.314 C  
HETATM   25  O   UNL     1     -11.964  13.625  65.792  1.00  0.00    -0.353 OA 
BRANCH  24  26
HETATM   26  O   UNL     1      -9.979  14.085  66.847  1.00  0.00    -0.251 OA 
HETATM   27  C   UNL     1      -9.620  14.896  65.731  1.00  0.00    -0.276 C  
ENDBRANCH  24  26
ENDBRANCH  23  24
ENDBRANCH  22  23
ENDBRANCH  15  22
ENDBRANCH   4  12
ENDBRANCH   2   3
TORSDOF 9
ENDMDL
MODEL      121
REMARK 921   NORMALIZED FREE ENERGY PREDICTED BY IDOCK:   -3.61 KCAL/MOL
REMARK 922        TOTAL FREE ENERGY PREDICTED BY IDOCK:   -5.69 KCAL/MOL
REMARK 923 INTER-LIGAND FREE ENERGY PREDICTED BY IDOCK:   -5.87 KCAL/MOL
REMARK 924 INTRA-LIGAND FREE ENERGY PREDICTED BY IDOCK:    0.18 KCAL/MOL
REMARK 927      BINDING AFFINITY PREDICTED BY RF-SCORE:    0.00 PKD
ROOT
HETATM    1  C   UNL     1      -7.856   3.796  72.405  1.00  0.00    -0.069 C  
HETATM    2  C   UNL     1      -8.732   4.939  72.898  1.00  0.00    -0.117 C  
ENDROOT
BRANCH   2   3
HETATM    3  C   UNL     1      -9.736   5.364  71.829  1.00  0.00    -0.162 C  
HETATM    4  N   UNL     1      -9.420   6.437  70.979  1.00  0.00    -0.170 N  
HETATM    5  O   UNL     1     -10.798   4.740  71.754  1.00  0.00    -0.049 OA 
BRANCH   4   6
HETATM    6  C   UNL     1      -8.138   7.104  71.078  1.00  0.00    -0.104 A  
HETATM    7  C   UNL     1      -7.798   7.928  72.165  1.00  0.00    -0.129 A  
HETATM    8  C   UNL     1      -6.543   8.539  72.250  1.00  0.00    -0.091 A  
HETATM    9  C   UNL     1      -7.191   6.955  70.056  1.00  0.00    -0.080 A  
HETATM   10  C   UNL     1      -5.606   8.350  71.243  1.00  0.00    -0.034 A  
HETATM   11  C   UNL     1      -5.932   7.567  70.140  1.00  0.00    -0.023 A  
ENDBRANCH   4   6
BRANCH   4  12
HETATM   12  C   UNL     1     -10.527   7.125  70.170  1.00  0.00    -0.216 C  
HETATM   13  C   UNL     1     -11.881   7.064  70.932  1.00  0.00    -0.401 C  
HETATM   14  C   UNL     1     -11.823   7.942  72.188  1.00  0.00    -0.334 C  
HETATM   15  N   UNL     1     -11.600   9.364  71.896  1.00  0.00    -0.355 NA 
HETATM   16  C   UNL     1     -10.372   9.528  71.095  1.00  0.00    -0.260 C  
HETATM   17  C   UNL     1     -10.336   8.640  69.849  1.00  0.00    -0.213 C  
BRANCH  12  18
HETATM   18  C   UNL     1     -10.643   6.466  68.773  1.00  0.00    -0.251 C  
HETATM   19  O   UNL     1     -10.572   5.260  68.562  1.00  0.00    -0.131 OA 
BRANCH  18  20
HETATM   20  O   UNL     1     -10.881   7.395  67.797  1.00  0.00    -0.194 OA 
HETATM   21  C   UNL     1     -10.101   7.252  66.613  1.00  0.00    -0.168 C  
ENDBRANCH  18  20
ENDBRANCH  12  18
BRANCH  15  22
HETATM   22  C   UNL     1     -12.750  10.041  71.262  1.00  0.00    -0.399 C  
BRANCH  22  23
HETATM   23  C   UNL     1     -12.381  11.320  70.505  1.00  0.00    -0.446 C  
BRANCH  23  24
HETATM   24  C   UNL     1     -12.918  12.526  71.231  1.00  0.00    -0.208 C  
HETATM   25  O   UNL     1     -13.593  12.495  72.250  1.00  0.00    -0.530 OA 
BRANCH  24  26
HETATM   26  O   UNL     1     -12.510  13.663  70.600  1.00  0.00    -0.344 OA 
HETATM   27  C   UNL     1     -13.060  14.852  71.164  1.00  0.00    -0.396 C  
ENDBRANCH  24  26
ENDBRANCH  23  24
ENDBRANCH  22  23
ENDBRANCH  15  22
ENDBRANCH   4  12
ENDBRANCH   2   3
TORSDOF 9
ENDMDL
MODEL      122
REMARK 921   NORMALIZED FREE ENERGY PREDICTED BY IDOCK:   -3.59 KCAL/MOL
REMARK 922        TOTAL FREE ENERGY PREDICTED BY IDOCK:   -5.67 KCAL/MOL
REMARK 923 INTER-LIGAND FREE ENERGY PREDICTED BY IDOCK:   -5.48 KCAL/MOL
REMARK 924 INTRA-LIGAND FREE ENERGY PREDICTED BY IDOCK:   -0.19 KCAL/MOL
REMARK 927      BINDING AFFINITY PREDICTED BY RF-SCORE:    0.00 PKD
ROOT
HETATM    1  C   UNL     1     -10.225   4.913  69.210  1.00  0.00    -0.205 C  
HETATM    2  C   UNL     1     -11.092   6.158  69.082  1.00  0.00    -0.448 C  
ENDROOT
BRANCH   2   3
HETATM    3  C   UNL     1     -10.587   7.068  67.965  1.00  0.00    -0.207 C  
HETATM    4  N   UNL     1      -9.628   8.051  68.262  1.00  0.00    -0.145 N  
HETATM    5  O   UNL     1     -11.047   6.903  66.833  1.00  0.00    -0.379 OA 
BRANCH   4   6
HETATM    6  C   UNL     1      -9.084   8.170  69.599  1.00  0.00    -0.151 A  
HETATM    7  C   UNL     1      -9.840   8.655  70.681  1.00  0.00    -0.220 A  
HETATM    8  C   UNL     1      -9.299   8.736  71.969  1.00  0.00    -0.322 A  
HETATM    9  C   UNL     1      -7.751   7.815  69.847  1.00  0.00    -0.095 A  
HETATM   10  C   UNL     1      -7.987   8.345  72.199  1.00  0.00    -0.181 A  
HETATM   11  C   UNL     1      -7.208   7.894  71.138  1.00  0.00    -0.058 A  
ENDBRANCH   4   6
BRANCH   4  12
HETATM   12  C   UNL     1      -9.385   9.206  67.283  1.00  0.00    -0.135 C  
HETATM   13  C   UNL     1     -10.729   9.886  66.894  1.00  0.00    -0.195 C  
HETATM   14  C   UNL     1     -11.319  10.622  68.102  1.00  0.00    -0.284 C  
HETATM   15  N   UNL     1     -10.462  11.705  68.603  1.00  0.00    -0.209 NA 
HETATM   16  C   UNL     1      -9.122  11.178  68.923  1.00  0.00    -0.089 C  
HETATM   17  C   UNL     1      -8.490  10.383  67.779  1.00  0.00    -0.114 C  
BRANCH  12  18
HETATM   18  C   UNL     1      -8.642   8.682  66.029  1.00  0.00    -0.155 C  
HETATM   19  O   UNL     1      -8.985   8.899  64.872  1.00  0.00    -0.176 OA 
BRANCH  18  20
HETATM   20  O   UNL     1      -7.518   7.979  66.368  1.00  0.00    -0.084 OA 
HETATM   21  C   UNL     1      -7.423   6.671  65.810  1.00  0.00    -0.081 C  
ENDBRANCH  18  20
ENDBRANCH  12  18
BRANCH  15  22
HETATM   22  C   UNL     1     -10.378  12.876  67.707  1.00  0.00    -0.222 C  
BRANCH  22  23
HETATM   23  C   UNL     1      -9.478  13.999  68.230  1.00  0.00    -0.216 C  
BRANCH  23  24
HETATM   24  C   UNL     1     -10.266  14.924  69.119  1.00  0.00    -0.242 C  
HETATM   25  O   UNL     1      -9.802  15.861  69.754  1.00  0.00    -0.262 OA 
BRANCH  24  26
HETATM   26  O   UNL     1     -11.586  14.584  69.085  1.00  0.00    -0.264 OA 
HETATM   27  C   UNL     1     -12.295  14.944  70.268  1.00  0.00    -0.341 C  
ENDBRANCH  24  26
ENDBRANCH  23  24
ENDBRANCH  22  23
ENDBRANCH  15  22
ENDBRANCH   4  12
ENDBRANCH   2   3
TORSDOF 9
ENDMDL
MODEL      123
REMARK 921   NORMALIZED FREE ENERGY PREDICTED BY IDOCK:   -3.59 KCAL/MOL
REMARK 922        TOTAL FREE ENERGY PREDICTED BY IDOCK:   -5.66 KCAL/MOL
REMARK 923 INTER-LIGAND FREE ENERGY PREDICTED BY IDOCK:   -6.18 KCAL/MOL
REMARK 924 INTRA-LIGAND FREE ENERGY PREDICTED BY IDOCK:    0.52 KCAL/MOL
REMARK 927      BINDING AFFINITY PREDICTED BY RF-SCORE:    0.00 PKD
ROOT
HETATM    1  C   UNL     1     -11.013   3.559  73.395  1.00  0.00    -0.308 C  
HETATM    2  C   UNL     1     -11.172   5.069  73.498  1.00  0.00    -0.341 C  
ENDROOT
BRANCH   2   3
HETATM    3  C   UNL     1      -9.993   5.792  72.852  1.00  0.00    -0.176 C  
HETATM    4  N   UNL     1     -10.227   6.969  72.121  1.00  0.00    -0.186 N  
HETATM    5  O   UNL     1      -8.868   5.308  72.999  1.00  0.00    -0.117 OA 
BRANCH   4   6
HETATM    6  C   UNL     1     -11.563   7.521  72.020  1.00  0.00    -0.287 A  
HETATM    7  C   UNL     1     -11.874   8.823  72.447  1.00  0.00    -0.356 A  
HETATM    8  C   UNL     1     -13.167   9.343  72.313  1.00  0.00    -0.528 A  
HETATM    9  C   UNL     1     -12.605   6.742  71.499  1.00  0.00    -0.371 A  
HETATM   10  C   UNL     1     -14.177   8.566  71.762  1.00  0.00    -0.525 A  
HETATM   11  C   UNL     1     -13.900   7.261  71.364  1.00  0.00    -0.416 A  
ENDBRANCH   4   6
BRANCH   4  12
HETATM   12  C   UNL     1      -9.157   7.500  71.160  1.00  0.00    -0.147 C  
HETATM   13  C   UNL     1      -8.531   6.336  70.339  1.00  0.00    -0.134 C  
HETATM   14  C   UNL     1      -9.565   5.760  69.364  1.00  0.00    -0.140 C  
HETATM   15  N   UNL     1     -10.035   6.733  68.369  1.00  0.00    -0.147 NA 
HETATM   16  C   UNL     1     -10.575   7.926  69.049  1.00  0.00    -0.162 C  
HETATM   17  C   UNL     1      -9.617   8.526  70.079  1.00  0.00    -0.170 C  
BRANCH  12  18
HETATM   18  C   UNL     1      -8.071   8.266  71.956  1.00  0.00    -0.141 C  
HETATM   19  O   UNL     1      -8.198   8.658  73.111  1.00  0.00    -0.409 OA 
BRANCH  18  20
HETATM   20  O   UNL     1      -6.924   8.417  71.225  1.00  0.00    -0.055 OA 
HETATM   21  C   UNL     1      -5.710   8.329  71.967  1.00  0.00    -0.041 C  
ENDBRANCH  18  20
ENDBRANCH  12  18
BRANCH  15  22
HETATM   22  C   UNL     1      -9.026   7.104  67.357  1.00  0.00    -0.122 C  
BRANCH  22  23
HETATM   23  C   UNL     1      -8.756   8.608  67.266  1.00  0.00    -0.133 C  
BRANCH  23  24
HETATM   24  C   UNL     1      -9.114   9.117  65.894  1.00  0.00    -0.205 C  
HETATM   25  O   UNL     1     -10.185   9.618  65.583  1.00  0.00    -0.253 OA 
BRANCH  24  26
HETATM   26  O   UNL     1      -8.049   8.969  65.055  1.00  0.00    -0.122 OA 
HETATM   27  C   UNL     1      -8.310   9.411  63.725  1.00  0.00    -0.183 C  
ENDBRANCH  24  26
ENDBRANCH  23  24
ENDBRANCH  22  23
ENDBRANCH  15  22
ENDBRANCH   4  12
ENDBRANCH   2   3
TORSDOF 9
ENDMDL
MODEL      124
REMARK 921   NORMALIZED FREE ENERGY PREDICTED BY IDOCK:   -3.58 KCAL/MOL
REMARK 922        TOTAL FREE ENERGY PREDICTED BY IDOCK:   -5.65 KCAL/MOL
REMARK 923 INTER-LIGAND FREE ENERGY PREDICTED BY IDOCK:   -5.57 KCAL/MOL
REMARK 924 INTRA-LIGAND FREE ENERGY PREDICTED BY IDOCK:   -0.07 KCAL/MOL
REMARK 927      BINDING AFFINITY PREDICTED BY RF-SCORE:    0.00 PKD
ROOT
HETATM    1  C   UNL     1     -10.887   5.437  66.663  1.00  0.00    -0.220 C  
HETATM    2  C   UNL     1      -9.815   5.263  67.729  1.00  0.00    -0.187 C  
ENDROOT
BRANCH   2   3
HETATM    3  C   UNL     1      -8.991   6.537  67.896  1.00  0.00    -0.115 C  
HETATM    4  N   UNL     1      -9.191   7.339  69.032  1.00  0.00    -0.140 N  
HETATM    5  O   UNL     1      -8.173   6.816  67.015  1.00  0.00    -0.111 OA 
BRANCH   4   6
HETATM    6  C   UNL     1     -10.129   6.940  70.060  1.00  0.00    -0.182 A  
HETATM    7  C   UNL     1     -11.520   6.947  69.856  1.00  0.00    -0.294 A  
HETATM    8  C   UNL     1     -12.405   6.532  70.857  1.00  0.00    -0.142 A  
HETATM    9  C   UNL     1      -9.661   6.547  71.321  1.00  0.00    -0.186 A  
HETATM   10  C   UNL     1     -11.918   6.112  72.088  1.00  0.00    -0.314 A  
HETATM   11  C   UNL     1     -10.547   6.129  72.326  1.00  0.00    -0.251 A  
ENDBRANCH   4   6
BRANCH   4  12
HETATM   12  C   UNL     1      -8.677   8.784  69.050  1.00  0.00    -0.133 C  
HETATM   13  C   UNL     1      -8.943   9.477  67.683  1.00  0.00    -0.124 C  
HETATM   14  C   UNL     1     -10.448   9.685  67.478  1.00  0.00    -0.262 C  
HETATM   15  N   UNL     1     -11.059  10.560  68.487  1.00  0.00    -0.259 NA 
HETATM   16  C   UNL     1     -10.790  10.033  69.839  1.00  0.00    -0.285 C  
HETATM   17  C   UNL     1      -9.310   9.751  70.099  1.00  0.00    -0.261 C  
BRANCH  12  18
HETATM   18  C   UNL     1      -7.168   8.800  69.400  1.00  0.00    -0.061 C  
HETATM   19  O   UNL     1      -6.394   9.704  69.110  1.00  0.00    -0.041 OA 
BRANCH  18  20
HETATM   20  O   UNL     1      -6.807   7.692  70.118  1.00  0.00    -0.048 OA 
HETATM   21  C   UNL     1      -6.185   7.953  71.373  1.00  0.00    -0.035 C  
ENDBRANCH  18  20
ENDBRANCH  12  18
BRANCH  15  22
HETATM   22  C   UNL     1     -10.669  11.980  68.376  1.00  0.00    -0.229 C  
BRANCH  22  23
HETATM   23  C   UNL     1     -11.852  12.950  68.321  1.00  0.00    -0.372 C  
BRANCH  23  24
HETATM   24  C   UNL     1     -11.960  13.711  69.617  1.00  0.00    -0.343 C  
HETATM   25  O   UNL     1     -12.238  13.221  70.703  1.00  0.00    -0.360 OA 
BRANCH  24  26
HETATM   26  O   UNL     1     -11.667  15.025  69.406  1.00  0.00    -0.291 OA 
HETATM   27  C   UNL     1     -11.531  15.362  68.027  1.00  0.00    -0.326 C  
ENDBRANCH  24  26
ENDBRANCH  23  24
ENDBRANCH  22  23
ENDBRANCH  15  22
ENDBRANCH   4  12
ENDBRANCH   2   3
TORSDOF 9
ENDMDL
MODEL      125
REMARK 921   NORMALIZED FREE ENERGY PREDICTED BY IDOCK:   -3.55 KCAL/MOL
REMARK 922        TOTAL FREE ENERGY PREDICTED BY IDOCK:   -5.60 KCAL/MOL
REMARK 923 INTER-LIGAND FREE ENERGY PREDICTED BY IDOCK:   -5.22 KCAL/MOL
REMARK 924 INTRA-LIGAND FREE ENERGY PREDICTED BY IDOCK:   -0.39 KCAL/MOL
REMARK 927      BINDING AFFINITY PREDICTED BY RF-SCORE:    0.00 PKD
ROOT
HETATM    1  C   UNL     1      -6.106  10.226  64.385  1.00  0.00    -0.123 C  
HETATM    2  C   UNL     1      -5.956   9.971  65.878  1.00  0.00    -0.077 C  
ENDROOT
BRANCH   2   3
HETATM    3  C   UNL     1      -7.247  10.295  66.625  1.00  0.00    -0.109 C  
HETATM    4  N   UNL     1      -8.160   9.262  66.896  1.00  0.00    -0.108 N  
HETATM    5  O   UNL     1      -7.440  11.465  66.965  1.00  0.00    -0.132 OA 
BRANCH   4   6
HETATM    6  C   UNL     1      -7.862   7.896  66.518  1.00  0.00    -0.098 A  
HETATM    7  C   UNL     1      -7.099   7.038  67.329  1.00  0.00    -0.084 A  
HETATM    8  C   UNL     1      -6.848   5.714  66.953  1.00  0.00    -0.063 A  
HETATM    9  C   UNL     1      -8.323   7.392  65.294  1.00  0.00    -0.110 A  
HETATM   10  C   UNL     1      -7.344   5.224  65.752  1.00  0.00    -0.080 A  
HETATM   11  C   UNL     1      -8.073   6.065  64.916  1.00  0.00    -0.133 A  
ENDBRANCH   4   6
BRANCH   4  12
HETATM   12  C   UNL     1      -9.603   9.599  67.291  1.00  0.00    -0.164 C  
HETATM   13  C   UNL     1     -10.406   8.302  67.593  1.00  0.00    -0.313 C  
HETATM   14  C   UNL     1      -9.881   7.640  68.872  1.00  0.00    -0.164 C  
HETATM   15  N   UNL     1     -10.029   8.480  70.068  1.00  0.00    -0.185 NA 
HETATM   16  C   UNL     1      -9.370   9.782  69.852  1.00  0.00    -0.231 C  
HETATM   17  C   UNL     1      -9.806  10.479  68.563  1.00  0.00    -0.175 C  
BRANCH  12  18
HETATM   18  C   UNL     1     -10.276  10.421  66.164  1.00  0.00    -0.223 C  
HETATM   19  O   UNL     1     -10.150  10.198  64.965  1.00  0.00    -0.330 OA 
BRANCH  18  20
HETATM   20  O   UNL     1     -11.075  11.410  66.672  1.00  0.00    -0.295 OA 
HETATM   21  C   UNL     1     -11.628  12.304  65.710  1.00  0.00    -0.388 C  
ENDBRANCH  18  20
ENDBRANCH  12  18
BRANCH  15  22
HETATM   22  C   UNL     1     -11.425   8.653  70.519  1.00  0.00    -0.188 C  
BRANCH  22  23
HETATM   23  C   UNL     1     -12.083   7.365  71.021  1.00  0.00    -0.330 C  
BRANCH  23  24
HETATM   24  C   UNL     1     -11.412   6.898  72.286  1.00  0.00    -0.275 C  
HETATM   25  O   UNL     1     -11.079   7.618  73.218  1.00  0.00    -0.382 OA 
BRANCH  24  26
HETATM   26  O   UNL     1     -11.262   5.544  72.256  1.00  0.00    -0.257 OA 
HETATM   27  C   UNL     1     -10.046   5.122  71.642  1.00  0.00    -0.200 C  
ENDBRANCH  24  26
ENDBRANCH  23  24
ENDBRANCH  22  23
ENDBRANCH  15  22
ENDBRANCH   4  12
ENDBRANCH   2   3
TORSDOF 9
ENDMDL
MODEL      126
REMARK 921   NORMALIZED FREE ENERGY PREDICTED BY IDOCK:   -3.54 KCAL/MOL
REMARK 922        TOTAL FREE ENERGY PREDICTED BY IDOCK:   -5.58 KCAL/MOL
REMARK 923 INTER-LIGAND FREE ENERGY PREDICTED BY IDOCK:   -5.44 KCAL/MOL
REMARK 924 INTRA-LIGAND FREE ENERGY PREDICTED BY IDOCK:   -0.14 KCAL/MOL
REMARK 927      BINDING AFFINITY PREDICTED BY RF-SCORE:    0.00 PKD
ROOT
HETATM    1  C   UNL     1     -12.381  14.400  68.345  1.00  0.00    -0.028 C  
HETATM    2  C   UNL     1     -11.609  13.402  69.195  1.00  0.00    -0.365 C  
ENDROOT
BRANCH   2   3
HETATM    3  C   UNL     1     -11.282  12.138  68.402  1.00  0.00    -0.265 C  
HETATM    4  N   UNL     1     -10.125  12.108  67.606  1.00  0.00    -0.196 N  
HETATM    5  O   UNL     1     -12.058  11.183  68.494  1.00  0.00    -0.586 OA 
BRANCH   4   6
HETATM    6  C   UNL     1      -9.223  13.240  67.573  1.00  0.00    -0.213 A  
HETATM    7  C   UNL     1      -9.323  14.257  66.607  1.00  0.00    -0.302 A  
HETATM    8  C   UNL     1      -8.455  15.354  66.613  1.00  0.00    -0.296 A  
HETATM    9  C   UNL     1      -8.190  13.340  68.515  1.00  0.00    -0.084 A  
HETATM   10  C   UNL     1      -7.461  15.452  67.577  1.00  0.00    -0.215 A  
HETATM   11  C   UNL     1      -7.320  14.440  68.523  1.00  0.00    -0.122 A  
ENDBRANCH   4   6
BRANCH   4  12
HETATM   12  C   UNL     1      -9.968  11.033  66.524  1.00  0.00    -0.212 C  
HETATM   13  C   UNL     1      -8.475  10.876  66.119  1.00  0.00    -0.171 C  
HETATM   14  C   UNL     1      -7.673  10.271  67.277  1.00  0.00    -0.095 C  
HETATM   15  N   UNL     1      -8.120   8.924  67.655  1.00  0.00    -0.106 NA 
HETATM   16  C   UNL     1      -9.559   8.944  67.979  1.00  0.00    -0.148 C  
HETATM   17  C   UNL     1     -10.420   9.585  66.889  1.00  0.00    -0.279 C  
BRANCH  12  18
HETATM   18  C   UNL     1     -10.844  11.392  65.297  1.00  0.00    -0.233 C  
HETATM   19  O   UNL     1     -11.771  12.193  65.311  1.00  0.00    -0.350 OA 
BRANCH  18  20
HETATM   20  O   UNL     1     -10.425  10.735  64.172  1.00  0.00    -0.364 OA 
HETATM   21  C   UNL     1     -10.035  11.571  63.085  1.00  0.00    -0.377 C  
ENDBRANCH  18  20
ENDBRANCH  12  18
BRANCH  15  22
HETATM   22  C   UNL     1      -7.808   7.878  66.660  1.00  0.00    -0.102 C  
BRANCH  22  23
HETATM   23  C   UNL     1      -6.347   7.866  66.203  1.00  0.00    -0.046 C  
BRANCH  23  24
HETATM   24  C   UNL     1      -6.260   7.475  64.751  1.00  0.00    -0.038 C  
HETATM   25  O   UNL     1      -6.018   6.351  64.335  1.00  0.00    -0.022 OA 
BRANCH  24  26
HETATM   26  O   UNL     1      -6.527   8.557  63.966  1.00  0.00    -0.071 OA 
HETATM   27  C   UNL     1      -7.824   8.521  63.373  1.00  0.00    -0.150 C  
ENDBRANCH  24  26
ENDBRANCH  23  24
ENDBRANCH  22  23
ENDBRANCH  15  22
ENDBRANCH   4  12
ENDBRANCH   2   3
TORSDOF 9
ENDMDL
MODEL      127
REMARK 921   NORMALIZED FREE ENERGY PREDICTED BY IDOCK:   -3.53 KCAL/MOL
REMARK 922        TOTAL FREE ENERGY PREDICTED BY IDOCK:   -5.57 KCAL/MOL
REMARK 923 INTER-LIGAND FREE ENERGY PREDICTED BY IDOCK:   -5.40 KCAL/MOL
REMARK 924 INTRA-LIGAND FREE ENERGY PREDICTED BY IDOCK:   -0.17 KCAL/MOL
REMARK 927      BINDING AFFINITY PREDICTED BY RF-SCORE:    0.00 PKD
ROOT
HETATM    1  C   UNL     1     -11.612  13.525  64.812  1.00  0.00    -0.372 C  
HETATM    2  C   UNL     1     -12.018  12.386  65.736  1.00  0.00    -0.437 C  
ENDROOT
BRANCH   2   3
HETATM    3  C   UNL     1     -10.842  11.452  66.010  1.00  0.00    -0.249 C  
HETATM    4  N   UNL     1     -10.318  11.373  67.311  1.00  0.00    -0.192 N  
HETATM    5  O   UNL     1     -10.393  10.797  65.066  1.00  0.00    -0.302 OA 
BRANCH   4   6
HETATM    6  C   UNL     1     -10.914  12.128  68.394  1.00  0.00    -0.235 A  
HETATM    7  C   UNL     1     -11.835  11.560  69.292  1.00  0.00    -0.414 A  
HETATM    8  C   UNL     1     -12.376  12.304  70.346  1.00  0.00    -0.309 A  
HETATM    9  C   UNL     1     -10.594  13.482  68.563  1.00  0.00    -0.257 A  
HETATM   10  C   UNL     1     -12.017  13.635  70.517  1.00  0.00    -0.353 A  
HETATM   11  C   UNL     1     -11.135  14.228  69.620  1.00  0.00    -0.218 A  
ENDBRANCH   4   6
BRANCH   4  12
HETATM   12  C   UNL     1      -8.933  10.758  67.543  1.00  0.00    -0.132 C  
HETATM   13  C   UNL     1      -8.726  10.424  69.047  1.00  0.00    -0.170 C  
HETATM   14  C   UNL     1      -9.649   9.274  69.466  1.00  0.00    -0.173 C  
HETATM   15  N   UNL     1      -9.386   8.021  68.747  1.00  0.00    -0.147 NA 
HETATM   16  C   UNL     1      -9.473   8.249  67.291  1.00  0.00    -0.151 C  
HETATM   17  C   UNL     1      -8.616   9.419  66.806  1.00  0.00    -0.134 C  
BRANCH  12  18
HETATM   18  C   UNL     1      -7.837  11.727  67.031  1.00  0.00    -0.161 C  
HETATM   19  O   UNL     1      -7.794  12.926  67.278  1.00  0.00    -0.167 OA 
BRANCH  18  20
HETATM   20  O   UNL     1      -6.887  11.068  66.299  1.00  0.00    -0.133 OA 
HETATM   21  C   UNL     1      -5.542  11.477  66.534  1.00  0.00    -0.119 C  
ENDBRANCH  18  20
ENDBRANCH  12  18
BRANCH  15  22
HETATM   22  C   UNL     1      -8.113   7.366  69.112  1.00  0.00    -0.120 C  
BRANCH  22  23
HETATM   23  C   UNL     1      -8.213   5.845  69.256  1.00  0.00    -0.113 C  
BRANCH  23  24
HETATM   24  C   UNL     1      -7.600   5.170  68.057  1.00  0.00    -0.083 C  
HETATM   25  O   UNL     1      -6.401   5.075  67.834  1.00  0.00    -0.037 OA 
BRANCH  24  26
HETATM   26  O   UNL     1      -8.583   4.647  67.269  1.00  0.00    -0.105 OA 
HETATM   27  C   UNL     1      -8.321   4.777  65.874  1.00  0.00    -0.116 C  
ENDBRANCH  24  26
ENDBRANCH  23  24
ENDBRANCH  22  23
ENDBRANCH  15  22
ENDBRANCH   4  12
ENDBRANCH   2   3
TORSDOF 9
ENDMDL
MODEL      128
REMARK 921   NORMALIZED FREE ENERGY PREDICTED BY IDOCK:   -3.49 KCAL/MOL
REMARK 922        TOTAL FREE ENERGY PREDICTED BY IDOCK:   -5.51 KCAL/MOL
REMARK 923 INTER-LIGAND FREE ENERGY PREDICTED BY IDOCK:   -5.30 KCAL/MOL
REMARK 924 INTRA-LIGAND FREE ENERGY PREDICTED BY IDOCK:   -0.22 KCAL/MOL
REMARK 927      BINDING AFFINITY PREDICTED BY RF-SCORE:    0.00 PKD
ROOT
HETATM    1  C   UNL     1     -12.810   7.135  71.694  1.00  0.00    -0.420 C  
HETATM    2  C   UNL     1     -11.714   6.147  71.319  1.00  0.00    -0.211 C  
ENDROOT
BRANCH   2   3
HETATM    3  C   UNL     1     -11.095   6.497  69.968  1.00  0.00    -0.363 C  
HETATM    4  N   UNL     1      -9.807   7.056  69.928  1.00  0.00    -0.170 N  
HETATM    5  O   UNL     1     -11.760   6.273  68.954  1.00  0.00    -0.065 OA 
BRANCH   4   6
HETATM    6  C   UNL     1      -9.050   7.253  71.147  1.00  0.00    -0.152 A  
HETATM    7  C   UNL     1      -7.893   6.512  71.445  1.00  0.00    -0.100 A  
HETATM    8  C   UNL     1      -7.164   6.741  72.618  1.00  0.00    -0.079 A  
HETATM    9  C   UNL     1      -9.476   8.198  72.090  1.00  0.00    -0.291 A  
HETATM   10  C   UNL     1      -7.584   7.706  73.522  1.00  0.00    -0.142 A  
HETATM   11  C   UNL     1      -8.746   8.429  73.266  1.00  0.00    -0.198 A  
ENDBRANCH   4   6
BRANCH   4  12
HETATM   12  C   UNL     1      -9.316   7.759  68.657  1.00  0.00    -0.148 C  
HETATM   13  C   UNL     1     -10.374   8.781  68.152  1.00  0.00    -0.266 C  
HETATM   14  C   UNL     1     -10.487   9.954  69.132  1.00  0.00    -0.217 C  
HETATM   15  N   UNL     1      -9.241  10.719  69.274  1.00  0.00    -0.110 NA 
HETATM   16  C   UNL     1      -8.142   9.818  69.671  1.00  0.00    -0.154 C  
HETATM   17  C   UNL     1      -8.002   8.593  68.767  1.00  0.00    -0.114 C  
BRANCH  12  18
HETATM   18  C   UNL     1      -8.993   6.706  67.567  1.00  0.00    -0.114 C  
HETATM   19  O   UNL     1      -9.484   6.690  66.444  1.00  0.00    -0.168 OA 
BRANCH  18  20
HETATM   20  O   UNL     1      -8.049   5.813  67.996  1.00  0.00    -0.103 OA 
HETATM   21  C   UNL     1      -8.385   4.438  67.824  1.00  0.00    -0.098 C  
ENDBRANCH  18  20
ENDBRANCH  12  18
BRANCH  15  22
HETATM   22  C   UNL     1      -8.879  11.516  68.085  1.00  0.00    -0.165 C  
BRANCH  22  23
HETATM   23  C   UNL     1      -9.522  12.905  68.045  1.00  0.00    -0.213 C  
BRANCH  23  24
HETATM   24  C   UNL     1     -10.468  13.006  66.878  1.00  0.00    -0.254 C  
HETATM   25  O   UNL     1     -10.527  12.217  65.945  1.00  0.00    -0.240 OA 
BRANCH  24  26
HETATM   26  O   UNL     1     -11.277  14.092  67.032  1.00  0.00    -0.299 OA 
HETATM   27  C   UNL     1     -12.277  14.203  66.022  1.00  0.00    -0.443 C  
ENDBRANCH  24  26
ENDBRANCH  23  24
ENDBRANCH  22  23
ENDBRANCH  15  22
ENDBRANCH   4  12
ENDBRANCH   2   3
TORSDOF 9
ENDMDL
MODEL      129
REMARK 921   NORMALIZED FREE ENERGY PREDICTED BY IDOCK:   -3.48 KCAL/MOL
REMARK 922        TOTAL FREE ENERGY PREDICTED BY IDOCK:   -5.49 KCAL/MOL
REMARK 923 INTER-LIGAND FREE ENERGY PREDICTED BY IDOCK:   -6.28 KCAL/MOL
REMARK 924 INTRA-LIGAND FREE ENERGY PREDICTED BY IDOCK:    0.78 KCAL/MOL
REMARK 927      BINDING AFFINITY PREDICTED BY RF-SCORE:    0.00 PKD
ROOT
HETATM    1  C   UNL     1     -11.953  13.234  64.993  1.00  0.00    -0.407 C  
HETATM    2  C   UNL     1     -10.478  13.601  65.072  1.00  0.00    -0.406 C  
ENDROOT
BRANCH   2   3
HETATM    3  C   UNL     1     -10.270  14.874  65.889  1.00  0.00    -0.314 C  
HETATM    4  N   UNL     1      -9.639  14.790  67.142  1.00  0.00    -0.222 N  
HETATM    5  O   UNL     1     -10.669  15.938  65.410  1.00  0.00    -0.376 OA 
BRANCH   4   6
HETATM    6  C   UNL     1      -9.146  13.521  67.636  1.00  0.00    -0.205 A  
HETATM    7  C   UNL     1      -9.891  12.711  68.511  1.00  0.00    -0.152 A  
HETATM    8  C   UNL     1      -9.403  11.477  68.953  1.00  0.00    -0.006 A  
HETATM    9  C   UNL     1      -7.874  13.069  67.259  1.00  0.00    -0.132 A  
HETATM   10  C   UNL     1      -8.155  11.032  68.539  1.00  0.00    -0.140 A  
HETATM   11  C   UNL     1      -7.384  11.832  67.700  1.00  0.00    -0.119 A  
ENDBRANCH   4   6
BRANCH   4  12
HETATM   12  C   UNL     1      -9.753  15.952  68.136  1.00  0.00    -0.212 C  
HETATM   13  C   UNL     1      -8.392  16.202  68.846  1.00  0.00    -0.233 C  
HETATM   14  C   UNL     1      -7.366  16.748  67.846  1.00  0.00    -0.159 C  
HETATM   15  N   UNL     1      -7.747  18.041  67.265  1.00  0.00    -0.206 NA 
HETATM   16  C   UNL     1      -9.077  17.936  66.634  1.00  0.00    -0.267 C  
HETATM   17  C   UNL     1     -10.144  17.347  67.557  1.00  0.00    -0.322 C  
BRANCH  12  18
HETATM   18  C   UNL     1     -10.873  15.654  69.165  1.00  0.00    -0.246 C  
HETATM   19  O   UNL     1     -11.802  14.877  68.980  1.00  0.00    -0.302 OA 
BRANCH  18  20
HETATM   20  O   UNL     1     -10.673  16.335  70.335  1.00  0.00    -0.250 OA 
HETATM   21  C   UNL     1     -11.492  15.927  71.427  1.00  0.00    -0.417 C  
ENDBRANCH  18  20
ENDBRANCH  12  18
BRANCH  15  22
HETATM   22  C   UNL     1      -7.691  19.173  68.211  1.00  0.00    -0.315 C  
BRANCH  22  23
HETATM   23  C   UNL     1      -6.428  20.030  68.085  1.00  0.00    -0.301 C  
BRANCH  23  24
HETATM   24  C   UNL     1      -5.876  19.937  66.686  1.00  0.00    -0.171 C  
HETATM   25  O   UNL     1      -5.143  19.050  66.273  1.00  0.00    -0.137 OA 
BRANCH  24  26
HETATM   26  O   UNL     1      -6.345  20.974  65.935  1.00  0.00    -0.249 OA 
HETATM   27  C   UNL     1      -6.990  20.557  64.733  1.00  0.00    -0.010 C  
ENDBRANCH  24  26
ENDBRANCH  23  24
ENDBRANCH  22  23
ENDBRANCH  15  22
ENDBRANCH   4  12
ENDBRANCH   2   3
TORSDOF 9
ENDMDL
MODEL      130
REMARK 921   NORMALIZED FREE ENERGY PREDICTED BY IDOCK:   -3.47 KCAL/MOL
REMARK 922        TOTAL FREE ENERGY PREDICTED BY IDOCK:   -5.48 KCAL/MOL
REMARK 923 INTER-LIGAND FREE ENERGY PREDICTED BY IDOCK:   -5.21 KCAL/MOL
REMARK 924 INTRA-LIGAND FREE ENERGY PREDICTED BY IDOCK:   -0.27 KCAL/MOL
REMARK 927      BINDING AFFINITY PREDICTED BY RF-SCORE:    0.00 PKD
ROOT
HETATM    1  C   UNL     1     -12.644  11.585  71.377  1.00  0.00    -0.419 C  
HETATM    2  C   UNL     1     -12.903  10.257  70.681  1.00  0.00    -0.362 C  
ENDROOT
BRANCH   2   3
HETATM    3  C   UNL     1     -11.861   9.214  71.079  1.00  0.00    -0.292 C  
HETATM    4  N   UNL     1     -10.690   9.088  70.314  1.00  0.00    -0.221 N  
HETATM    5  O   UNL     1     -12.094   8.515  72.068  1.00  0.00    -0.316 OA 
BRANCH   4   6
HETATM    6  C   UNL     1     -10.445   9.967  69.190  1.00  0.00    -0.219 A  
HETATM    7  C   UNL     1     -11.260   9.973  68.044  1.00  0.00    -0.190 A  
HETATM    8  C   UNL     1     -11.017  10.852  66.983  1.00  0.00    -0.310 A  
HETATM    9  C   UNL     1      -9.349  10.841  69.211  1.00  0.00    -0.087 A  
HETATM   10  C   UNL     1      -9.947  11.735  67.040  1.00  0.00    -0.224 A  
HETATM   11  C   UNL     1      -9.105  11.724  68.148  1.00  0.00    -0.185 A  
ENDBRANCH   4   6
BRANCH   4  12
HETATM   12  C   UNL     1      -9.822   7.830  70.444  1.00  0.00    -0.183 C  
HETATM   13  C   UNL     1     -10.708   6.552  70.470  1.00  0.00    -0.305 C  
HETATM   14  C   UNL     1     -11.366   6.335  69.103  1.00  0.00    -0.287 C  
HETATM   15  N   UNL     1     -10.400   6.120  68.018  1.00  0.00    -0.175 NA 
HETATM   16  C   UNL     1      -9.448   7.246  67.960  1.00  0.00    -0.136 C  
HETATM   17  C   UNL     1      -8.791   7.557  69.306  1.00  0.00    -0.136 C  
BRANCH  12  18
HETATM   18  C   UNL     1      -8.946   7.927  71.718  1.00  0.00    -0.132 C  
HETATM   19  O   UNL     1      -8.447   8.962  72.145  1.00  0.00    -0.382 OA 
BRANCH  18  20
HETATM   20  O   UNL     1      -8.831   6.715  72.342  1.00  0.00    -0.133 OA 
HETATM   21  C   UNL     1      -7.729   6.590  73.237  1.00  0.00    -0.092 C  
ENDBRANCH  18  20
ENDBRANCH  12  18
BRANCH  15  22
HETATM   22  C   UNL     1      -9.694   4.824  68.081  1.00  0.00    -0.143 C  
BRANCH  22  23
HETATM   23  C   UNL     1      -8.268   4.862  67.526  1.00  0.00    -0.105 C  
BRANCH  23  24
HETATM   24  C   UNL     1      -7.324   4.163  68.469  1.00  0.00    -0.056 C  
HETATM   25  O   UNL     1      -6.260   3.649  68.154  1.00  0.00    -0.031 OA 
BRANCH  24  26
HETATM   26  O   UNL     1      -7.817   4.218  69.739  1.00  0.00    -0.053 OA 
HETATM   27  C   UNL     1      -6.802   4.238  70.741  1.00  0.00    -0.036 C  
ENDBRANCH  24  26
ENDBRANCH  23  24
ENDBRANCH  22  23
ENDBRANCH  15  22
ENDBRANCH   4  12
ENDBRANCH   2   3
TORSDOF 9
ENDMDL
MODEL      131
REMARK 921   NORMALIZED FREE ENERGY PREDICTED BY IDOCK:   -3.45 KCAL/MOL
REMARK 922        TOTAL FREE ENERGY PREDICTED BY IDOCK:   -5.46 KCAL/MOL
REMARK 923 INTER-LIGAND FREE ENERGY PREDICTED BY IDOCK:   -5.21 KCAL/MOL
REMARK 924 INTRA-LIGAND FREE ENERGY PREDICTED BY IDOCK:   -0.24 KCAL/MOL
REMARK 927      BINDING AFFINITY PREDICTED BY RF-SCORE:    0.00 PKD
ROOT
HETATM    1  C   UNL     1     -12.413  11.042  69.945  1.00  0.00    -0.286 C  
HETATM    2  C   UNL     1     -11.073  10.481  70.398  1.00  0.00    -0.321 C  
ENDROOT
BRANCH   2   3
HETATM    3  C   UNL     1     -11.182   8.995  70.732  1.00  0.00    -0.275 C  
HETATM    4  N   UNL     1     -10.041   8.183  70.628  1.00  0.00    -0.193 N  
HETATM    5  O   UNL     1     -12.282   8.562  71.085  1.00  0.00    -0.292 OA 
BRANCH   4   6
HETATM    6  C   UNL     1      -8.762   8.752  70.257  1.00  0.00    -0.161 A  
HETATM    7  C   UNL     1      -8.483   9.193  68.952  1.00  0.00    -0.129 A  
HETATM    8  C   UNL     1      -7.248   9.764  68.625  1.00  0.00    -0.073 A  
HETATM    9  C   UNL     1      -7.740   8.860  71.211  1.00  0.00    -0.145 A  
HETATM   10  C   UNL     1      -6.262   9.894  69.594  1.00  0.00    -0.047 A  
HETATM   11  C   UNL     1      -6.502   9.433  70.885  1.00  0.00    -0.096 A  
ENDBRANCH   4   6
BRANCH   4  12
HETATM   12  C   UNL     1     -10.188   6.657  70.583  1.00  0.00    -0.189 C  
HETATM   13  C   UNL     1     -11.294   6.243  69.570  1.00  0.00    -0.475 C  
HETATM   14  C   UNL     1     -10.845   6.555  68.138  1.00  0.00    -0.295 C  
HETATM   15  N   UNL     1      -9.643   5.816  67.729  1.00  0.00    -0.112 NA 
HETATM   16  C   UNL     1      -8.546   6.074  68.682  1.00  0.00    -0.112 C  
HETATM   17  C   UNL     1      -8.938   5.835  70.141  1.00  0.00    -0.148 C  
BRANCH  12  18
HETATM   18  C   UNL     1     -10.500   6.118  72.001  1.00  0.00    -0.211 C  
HETATM   19  O   UNL     1     -11.555   5.587  72.330  1.00  0.00    -0.255 OA 
BRANCH  18  20
HETATM   20  O   UNL     1      -9.429   6.264  72.841  1.00  0.00    -0.147 OA 
HETATM   21  C   UNL     1      -9.749   6.380  74.225  1.00  0.00    -0.274 C  
ENDBRANCH  18  20
ENDBRANCH  12  18
BRANCH  15  22
HETATM   22  C   UNL     1      -9.857   4.368  67.535  1.00  0.00    -0.128 C  
BRANCH  22  23
HETATM   23  C   UNL     1      -9.106   3.781  66.337  1.00  0.00    -0.157 C  
BRANCH  23  24
HETATM   24  C   UNL     1      -9.847   4.084  65.061  1.00  0.00    -0.202 C  
HETATM   25  O   UNL     1     -11.063   4.109  64.939  1.00  0.00    -0.240 OA 
BRANCH  24  26
HETATM   26  O   UNL     1      -8.957   4.363  64.066  1.00  0.00    -0.138 OA 
HETATM   27  C   UNL     1      -7.964   5.314  64.444  1.00  0.00    -0.114 C  
ENDBRANCH  24  26
ENDBRANCH  23  24
ENDBRANCH  22  23
ENDBRANCH  15  22
ENDBRANCH   4  12
ENDBRANCH   2   3
TORSDOF 9
ENDMDL
MODEL      132
REMARK 921   NORMALIZED FREE ENERGY PREDICTED BY IDOCK:   -3.45 KCAL/MOL
REMARK 922        TOTAL FREE ENERGY PREDICTED BY IDOCK:   -5.45 KCAL/MOL
REMARK 923 INTER-LIGAND FREE ENERGY PREDICTED BY IDOCK:   -5.27 KCAL/MOL
REMARK 924 INTRA-LIGAND FREE ENERGY PREDICTED BY IDOCK:   -0.18 KCAL/MOL
REMARK 927      BINDING AFFINITY PREDICTED BY RF-SCORE:    0.00 PKD
ROOT
HETATM    1  C   UNL     1      -5.852   5.509  71.536  1.00  0.00    -0.024 C  
HETATM    2  C   UNL     1      -6.850   5.642  70.395  1.00  0.00    -0.049 C  
ENDROOT
BRANCH   2   3
HETATM    3  C   UNL     1      -7.860   6.754  70.671  1.00  0.00    -0.105 C  
HETATM    4  N   UNL     1      -8.852   7.032  69.717  1.00  0.00    -0.142 N  
HETATM    5  O   UNL     1      -7.761   7.371  71.735  1.00  0.00    -0.084 OA 
BRANCH   4   6
HETATM    6  C   UNL     1      -8.953   6.244  68.506  1.00  0.00    -0.123 A  
HETATM    7  C   UNL     1      -7.997   6.316  67.478  1.00  0.00    -0.109 A  
HETATM    8  C   UNL     1      -8.103   5.524  66.329  1.00  0.00    -0.106 A  
HETATM    9  C   UNL     1     -10.044   5.385  68.318  1.00  0.00    -0.225 A  
HETATM   10  C   UNL     1      -9.174   4.653  66.179  1.00  0.00    -0.140 A  
HETATM   11  C   UNL     1     -10.151   4.590  67.168  1.00  0.00    -0.160 A  
ENDBRANCH   4   6
BRANCH   4  12
HETATM   12  C   UNL     1      -9.624   8.355  69.778  1.00  0.00    -0.170 C  
HETATM   13  C   UNL     1      -8.650   9.549  69.992  1.00  0.00    -0.234 C  
HETATM   14  C   UNL     1      -7.781   9.754  68.746  1.00  0.00    -0.081 C  
HETATM   15  N   UNL     1      -8.555  10.090  67.543  1.00  0.00    -0.122 NA 
HETATM   16  C   UNL     1      -9.576   9.054  67.296  1.00  0.00    -0.159 C  
HETATM   17  C   UNL     1     -10.449   8.757  68.516  1.00  0.00    -0.212 C  
BRANCH  12  18
HETATM   18  C   UNL     1     -10.685   8.292  70.906  1.00  0.00    -0.218 C  
HETATM   19  O   UNL     1     -10.753   9.077  71.845  1.00  0.00    -0.347 OA 
BRANCH  18  20
HETATM   20  O   UNL     1     -11.574   7.272  70.702  1.00  0.00    -0.295 OA 
HETATM   21  C   UNL     1     -11.828   6.447  71.836  1.00  0.00    -0.329 C  
ENDBRANCH  18  20
ENDBRANCH  12  18
BRANCH  15  22
HETATM   22  C   UNL     1      -9.154  11.440  67.564  1.00  0.00    -0.157 C  
BRANCH  22  23
HETATM   23  C   UNL     1      -9.909  11.807  66.284  1.00  0.00    -0.245 C  
BRANCH  23  24
HETATM   24  C   UNL     1     -11.036  12.756  66.601  1.00  0.00    -0.270 C  
HETATM   25  O   UNL     1     -12.191  12.429  66.836  1.00  0.00    -0.527 OA 
BRANCH  24  26
HETATM   26  O   UNL     1     -10.568  14.036  66.621  1.00  0.00    -0.272 OA 
HETATM   27  C   UNL     1     -10.066  14.477  65.361  1.00  0.00    -0.364 C  
ENDBRANCH  24  26
ENDBRANCH  23  24
ENDBRANCH  22  23
ENDBRANCH  15  22
ENDBRANCH   4  12
ENDBRANCH   2   3
TORSDOF 9
ENDMDL
MODEL      133
REMARK 921   NORMALIZED FREE ENERGY PREDICTED BY IDOCK:   -3.45 KCAL/MOL
REMARK 922        TOTAL FREE ENERGY PREDICTED BY IDOCK:   -5.45 KCAL/MOL
REMARK 923 INTER-LIGAND FREE ENERGY PREDICTED BY IDOCK:   -5.93 KCAL/MOL
REMARK 924 INTRA-LIGAND FREE ENERGY PREDICTED BY IDOCK:    0.48 KCAL/MOL
REMARK 927      BINDING AFFINITY PREDICTED BY RF-SCORE:    0.00 PKD
ROOT
HETATM    1  C   UNL     1     -10.369  15.346  68.110  1.00  0.00    -0.239 C  
HETATM    2  C   UNL     1      -9.608  14.832  66.897  1.00  0.00    -0.251 C  
ENDROOT
BRANCH   2   3
HETATM    3  C   UNL     1      -8.887  13.524  67.212  1.00  0.00    -0.224 C  
HETATM    4  N   UNL     1      -9.272  12.350  66.542  1.00  0.00    -0.229 N  
HETATM    5  O   UNL     1      -7.984  13.550  68.052  1.00  0.00    -0.126 OA 
BRANCH   4   6
HETATM    6  C   UNL     1     -10.305  12.384  65.529  1.00  0.00    -0.271 A  
HETATM    7  C   UNL     1     -10.049  12.080  64.180  1.00  0.00    -0.340 A  
HETATM    8  C   UNL     1     -11.071  12.094  63.224  1.00  0.00    -0.408 A  
HETATM    9  C   UNL     1     -11.613  12.749  65.874  1.00  0.00    -0.428 A  
HETATM   10  C   UNL     1     -12.368  12.425  63.595  1.00  0.00    -0.647 A  
HETATM   11  C   UNL     1     -12.639  12.763  64.918  1.00  0.00    -0.541 A  
ENDBRANCH   4   6
BRANCH   4  12
HETATM   12  C   UNL     1      -8.850  10.982  67.091  1.00  0.00    -0.140 C  
HETATM   13  C   UNL     1      -8.719  11.029  68.641  1.00  0.00    -0.161 C  
HETATM   14  C   UNL     1     -10.099  11.209  69.284  1.00  0.00    -0.041 C  
HETATM   15  N   UNL     1     -11.023  10.103  69.002  1.00  0.00    -0.226 NA 
HETATM   16  C   UNL     1     -11.154   9.915  67.544  1.00  0.00    -0.071 C  
HETATM   17  C   UNL     1      -9.810   9.781  66.825  1.00  0.00    -0.265 C  
BRANCH  12  18
HETATM   18  C   UNL     1      -7.519  10.540  66.433  1.00  0.00    -0.133 C  
HETATM   19  O   UNL     1      -6.404  10.871  66.820  1.00  0.00    -0.077 OA 
BRANCH  18  20
HETATM   20  O   UNL     1      -7.736   9.691  65.382  1.00  0.00    -0.110 OA 
HETATM   21  C   UNL     1      -6.755   9.732  64.349  1.00  0.00    -0.119 C  
ENDBRANCH  18  20
ENDBRANCH  12  18
BRANCH  15  22
HETATM   22  C   UNL     1     -10.678   8.836  69.678  1.00  0.00    -0.208 C  
BRANCH  22  23
HETATM   23  C   UNL     1     -10.222   7.726  68.727  1.00  0.00    -0.212 C  
BRANCH  23  24
HETATM   24  C   UNL     1      -9.098   6.940  69.349  1.00  0.00    -0.141 C  
HETATM   25  O   UNL     1      -9.232   5.943  70.046  1.00  0.00    -0.144 OA 
BRANCH  24  26
HETATM   26  O   UNL     1      -7.901   7.485  68.991  1.00  0.00    -0.115 OA 
HETATM   27  C   UNL     1      -6.922   7.433  70.025  1.00  0.00    -0.060 C  
ENDBRANCH  24  26
ENDBRANCH  23  24
ENDBRANCH  22  23
ENDBRANCH  15  22
ENDBRANCH   4  12
ENDBRANCH   2   3
TORSDOF 9
ENDMDL
MODEL      134
REMARK 921   NORMALIZED FREE ENERGY PREDICTED BY IDOCK:   -3.45 KCAL/MOL
REMARK 922        TOTAL FREE ENERGY PREDICTED BY IDOCK:   -5.45 KCAL/MOL
REMARK 923 INTER-LIGAND FREE ENERGY PREDICTED BY IDOCK:   -5.13 KCAL/MOL
REMARK 924 INTRA-LIGAND FREE ENERGY PREDICTED BY IDOCK:   -0.32 KCAL/MOL
REMARK 927      BINDING AFFINITY PREDICTED BY RF-SCORE:    0.00 PKD
ROOT
HETATM    1  C   UNL     1      -6.402  11.062  69.911  1.00  0.00    -0.137 C  
HETATM    2  C   UNL     1      -6.767   9.609  69.644  1.00  0.00    -0.054 C  
ENDROOT
BRANCH   2   3
HETATM    3  C   UNL     1      -7.588   9.474  68.364  1.00  0.00    -0.081 C  
HETATM    4  N   UNL     1      -8.936   9.086  68.452  1.00  0.00    -0.134 N  
HETATM    5  O   UNL     1      -7.029   9.713  67.291  1.00  0.00    -0.083 OA 
BRANCH   4   6
HETATM    6  C   UNL     1      -9.557   8.864  69.741  1.00  0.00    -0.171 A  
HETATM    7  C   UNL     1     -10.560   9.708  70.250  1.00  0.00    -0.333 A  
HETATM    8  C   UNL     1     -11.164   9.457  71.487  1.00  0.00    -0.457 A  
HETATM    9  C   UNL     1      -9.149   7.788  70.539  1.00  0.00    -0.154 A  
HETATM   10  C   UNL     1     -10.768   8.364  72.246  1.00  0.00    -0.417 A  
HETATM   11  C   UNL     1      -9.753   7.534  71.779  1.00  0.00    -0.187 A  
ENDBRANCH   4   6
BRANCH   4  12
HETATM   12  C   UNL     1      -9.669   8.578  67.205  1.00  0.00    -0.192 C  
HETATM   13  C   UNL     1      -8.774   7.588  66.406  1.00  0.00    -0.158 C  
HETATM   14  C   UNL     1      -8.578   6.292  67.201  1.00  0.00    -0.107 C  
HETATM   15  N   UNL     1      -9.830   5.568  67.456  1.00  0.00    -0.135 NA 
HETATM   16  C   UNL     1     -10.792   6.453  68.141  1.00  0.00    -0.308 C  
HETATM   17  C   UNL     1     -10.998   7.792  67.431  1.00  0.00    -0.060 C  
BRANCH  12  18
HETATM   18  C   UNL     1     -10.098   9.778  66.323  1.00  0.00    -0.243 C  
HETATM   19  O   UNL     1     -10.704  10.762  66.730  1.00  0.00    -0.255 OA 
BRANCH  18  20
HETATM   20  O   UNL     1      -9.675   9.627  65.030  1.00  0.00    -0.289 OA 
HETATM   21  C   UNL     1      -9.713  10.808  64.233  1.00  0.00    -0.302 C  
ENDBRANCH  18  20
ENDBRANCH  12  18
BRANCH  15  22
HETATM   22  C   UNL     1     -10.430   4.950  66.256  1.00  0.00    -0.304 C  
BRANCH  22  23
HETATM   23  C   UNL     1      -9.510   3.958  65.539  1.00  0.00    -0.171 C  
BRANCH  23  24
HETATM   24  C   UNL     1      -9.452   4.274  64.067  1.00  0.00    -0.127 C  
HETATM   25  O   UNL     1     -10.110   3.719  63.198  1.00  0.00    -0.156 OA 
BRANCH  24  26
HETATM   26  O   UNL     1      -8.580   5.299  63.850  1.00  0.00    -0.127 OA 
HETATM   27  C   UNL     1      -8.651   5.834  62.530  1.00  0.00     0.014 C  
ENDBRANCH  24  26
ENDBRANCH  23  24
ENDBRANCH  22  23
ENDBRANCH  15  22
ENDBRANCH   4  12
ENDBRANCH   2   3
TORSDOF 9
ENDMDL
MODEL      135
REMARK 921   NORMALIZED FREE ENERGY PREDICTED BY IDOCK:   -3.44 KCAL/MOL
REMARK 922        TOTAL FREE ENERGY PREDICTED BY IDOCK:   -5.44 KCAL/MOL
REMARK 923 INTER-LIGAND FREE ENERGY PREDICTED BY IDOCK:   -5.75 KCAL/MOL
REMARK 924 INTRA-LIGAND FREE ENERGY PREDICTED BY IDOCK:    0.31 KCAL/MOL
REMARK 927      BINDING AFFINITY PREDICTED BY RF-SCORE:    0.00 PKD
ROOT
HETATM    1  C   UNL     1      -6.006   4.740  71.461  1.00  0.00    -0.017 C  
HETATM    2  C   UNL     1      -6.890   5.323  70.368  1.00  0.00    -0.048 C  
ENDROOT
BRANCH   2   3
HETATM    3  C   UNL     1      -7.763   6.453  70.908  1.00  0.00    -0.101 C  
HETATM    4  N   UNL     1      -8.790   6.971  70.101  1.00  0.00    -0.145 N  
HETATM    5  O   UNL     1      -7.529   6.870  72.044  1.00  0.00    -0.089 OA 
BRANCH   4   6
HETATM    6  C   UNL     1      -9.054   6.411  68.792  1.00  0.00    -0.125 A  
HETATM    7  C   UNL     1      -8.547   6.981  67.611  1.00  0.00    -0.122 A  
HETATM    8  C   UNL     1      -8.795   6.405  66.360  1.00  0.00    -0.146 A  
HETATM    9  C   UNL     1      -9.857   5.269  68.668  1.00  0.00    -0.216 A  
HETATM   10  C   UNL     1      -9.564   5.254  66.263  1.00  0.00    -0.175 A  
HETATM   11  C   UNL     1     -10.106   4.690  67.415  1.00  0.00    -0.150 A  
ENDBRANCH   4   6
BRANCH   4  12
HETATM   12  C   UNL     1      -9.423   8.325  70.443  1.00  0.00    -0.167 C  
HETATM   13  C   UNL     1     -10.890   8.391  69.929  1.00  0.00    -0.207 C  
HETATM   14  C   UNL     1     -11.774   7.425  70.727  1.00  0.00    -0.276 C  
HETATM   15  N   UNL     1     -11.845   7.745  72.158  1.00  0.00    -0.309 NA 
HETATM   16  C   UNL     1     -10.487   7.793  72.731  1.00  0.00    -0.328 C  
HETATM   17  C   UNL     1      -9.530   8.699  71.954  1.00  0.00    -0.369 C  
BRANCH  12  18
HETATM   18  C   UNL     1      -8.570   9.470  69.841  1.00  0.00    -0.204 C  
HETATM   19  O   UNL     1      -8.917  10.183  68.907  1.00  0.00    -0.137 OA 
BRANCH  18  20
HETATM   20  O   UNL     1      -7.387   9.621  70.513  1.00  0.00    -0.130 OA 
HETATM   21  C   UNL     1      -6.622  10.769  70.154  1.00  0.00    -0.143 C  
ENDBRANCH  18  20
ENDBRANCH  12  18
BRANCH  15  22
HETATM   22  C   UNL     1     -12.603   8.974  72.469  1.00  0.00    -0.272 C  
BRANCH  22  23
HETATM   23  C   UNL     1     -13.130   9.711  71.234  1.00  0.00    -0.437 C  
BRANCH  23  24
HETATM   24  C   UNL     1     -12.828  11.183  71.341  1.00  0.00    -0.439 C  
HETATM   25  O   UNL     1     -13.461  11.989  72.008  1.00  0.00    -0.447 OA 
BRANCH  24  26
HETATM   26  O   UNL     1     -11.718  11.480  70.607  1.00  0.00    -0.272 OA 
HETATM   27  C   UNL     1     -12.014  12.053  69.336  1.00  0.00    -0.275 C  
ENDBRANCH  24  26
ENDBRANCH  23  24
ENDBRANCH  22  23
ENDBRANCH  15  22
ENDBRANCH   4  12
ENDBRANCH   2   3
TORSDOF 9
ENDMDL
MODEL      136
REMARK 921   NORMALIZED FREE ENERGY PREDICTED BY IDOCK:   -3.44 KCAL/MOL
REMARK 922        TOTAL FREE ENERGY PREDICTED BY IDOCK:   -5.43 KCAL/MOL
REMARK 923 INTER-LIGAND FREE ENERGY PREDICTED BY IDOCK:   -5.04 KCAL/MOL
REMARK 924 INTRA-LIGAND FREE ENERGY PREDICTED BY IDOCK:   -0.38 KCAL/MOL
REMARK 927      BINDING AFFINITY PREDICTED BY RF-SCORE:    0.00 PKD
ROOT
HETATM    1  C   UNL     1      -6.581   9.935  64.344  1.00  0.00    -0.125 C  
HETATM    2  C   UNL     1      -7.079  10.546  65.646  1.00  0.00    -0.119 C  
ENDROOT
BRANCH   2   3
HETATM    3  C   UNL     1      -7.302   9.472  66.709  1.00  0.00    -0.090 C  
HETATM    4  N   UNL     1      -8.357   9.622  67.624  1.00  0.00    -0.121 N  
HETATM    5  O   UNL     1      -6.537   8.505  66.721  1.00  0.00    -0.056 OA 
BRANCH   4   6
HETATM    6  C   UNL     1      -9.256  10.753  67.535  1.00  0.00    -0.143 A  
HETATM    7  C   UNL     1      -9.073  11.924  68.291  1.00  0.00    -0.183 A  
HETATM    8  C   UNL     1      -9.941  13.014  68.166  1.00  0.00    -0.231 A  
HETATM    9  C   UNL     1     -10.370  10.697  66.686  1.00  0.00    -0.297 A  
HETATM   10  C   UNL     1     -11.019  12.951  67.293  1.00  0.00    -0.289 A  
HETATM   11  C   UNL     1     -11.241  11.789  66.559  1.00  0.00    -0.380 A  
ENDBRANCH   4   6
BRANCH   4  12
HETATM   12  C   UNL     1      -8.379   8.787  68.911  1.00  0.00    -0.127 C  
HETATM   13  C   UNL     1      -9.712   9.004  69.682  1.00  0.00    -0.177 C  
HETATM   14  C   UNL     1     -10.882   8.397  68.899  1.00  0.00     0.034 C  
HETATM   15  N   UNL     1     -10.769   6.945  68.712  1.00  0.00    -0.224 NA 
HETATM   16  C   UNL     1      -9.486   6.620  68.058  1.00  0.00    -0.118 C  
HETATM   17  C   UNL     1      -8.274   7.238  68.756  1.00  0.00    -0.129 C  
BRANCH  12  18
HETATM   18  C   UNL     1      -7.158   9.152  69.793  1.00  0.00    -0.061 C  
HETATM   19  O   UNL     1      -6.892  10.283  70.183  1.00  0.00    -0.127 OA 
BRANCH  18  20
HETATM   20  O   UNL     1      -6.430   8.042  70.126  1.00  0.00    -0.036 OA 
HETATM   21  C   UNL     1      -5.564   8.193  71.248  1.00  0.00    -0.033 C  
ENDBRANCH  18  20
ENDBRANCH  12  18
BRANCH  15  22
HETATM   22  C   UNL     1     -10.956   6.157  69.947  1.00  0.00    -0.389 C  
BRANCH  22  23
HETATM   23  C   UNL     1     -12.116   6.636  70.823  1.00  0.00    -0.364 C  
BRANCH  23  24
HETATM   24  C   UNL     1     -11.769   6.472  72.279  1.00  0.00    -0.281 C  
HETATM   25  O   UNL     1     -11.730   5.408  72.882  1.00  0.00    -0.297 OA 
BRANCH  24  26
HETATM   26  O   UNL     1     -11.467   7.686  72.821  1.00  0.00    -0.355 OA 
HETATM   27  C   UNL     1     -10.087   7.834  73.148  1.00  0.00    -0.327 C  
ENDBRANCH  24  26
ENDBRANCH  23  24
ENDBRANCH  22  23
ENDBRANCH  15  22
ENDBRANCH   4  12
ENDBRANCH   2   3
TORSDOF 9
ENDMDL
MODEL      137
REMARK 921   NORMALIZED FREE ENERGY PREDICTED BY IDOCK:   -3.33 KCAL/MOL
REMARK 922        TOTAL FREE ENERGY PREDICTED BY IDOCK:   -5.27 KCAL/MOL
REMARK 923 INTER-LIGAND FREE ENERGY PREDICTED BY IDOCK:   -5.68 KCAL/MOL
REMARK 924 INTRA-LIGAND FREE ENERGY PREDICTED BY IDOCK:    0.41 KCAL/MOL
REMARK 927      BINDING AFFINITY PREDICTED BY RF-SCORE:    0.00 PKD
ROOT
HETATM    1  C   UNL     1     -12.356  11.969  70.605  1.00  0.00    -0.394 C  
HETATM    2  C   UNL     1     -12.137  11.062  69.403  1.00  0.00    -0.389 C  
ENDROOT
BRANCH   2   3
HETATM    3  C   UNL     1     -10.649  10.874  69.117  1.00  0.00    -0.220 C  
HETATM    4  N   UNL     1     -10.093  11.457  67.966  1.00  0.00    -0.175 N  
HETATM    5  O   UNL     1      -9.987  10.210  69.918  1.00  0.00    -0.242 OA 
BRANCH   4   6
HETATM    6  C   UNL     1     -10.905  12.269  67.084  1.00  0.00    -0.244 A  
HETATM    7  C   UNL     1     -11.652  11.719  66.027  1.00  0.00    -0.206 A  
HETATM    8  C   UNL     1     -12.451  12.522  65.206  1.00  0.00    -0.390 A  
HETATM    9  C   UNL     1     -10.951  13.659  67.256  1.00  0.00    -0.299 A  
HETATM   10  C   UNL     1     -12.509  13.893  65.416  1.00  0.00    -0.528 A  
HETATM   11  C   UNL     1     -11.752  14.465  66.433  1.00  0.00    -0.397 A  
ENDBRANCH   4   6
BRANCH   4  12
HETATM   12  C   UNL     1      -8.727  10.986  67.452  1.00  0.00    -0.132 C  
HETATM   13  C   UNL     1      -8.397   9.566  67.995  1.00  0.00    -0.118 C  
HETATM   14  C   UNL     1      -9.338   8.528  67.372  1.00  0.00    -0.148 C  
HETATM   15  N   UNL     1      -9.213   8.429  65.912  1.00  0.00    -0.184 NA 
HETATM   16  C   UNL     1      -9.425   9.753  65.297  1.00  0.00    -0.279 C  
HETATM   17  C   UNL     1      -8.555  10.853  65.907  1.00  0.00    -0.179 C  
BRANCH  12  18
HETATM   18  C   UNL     1      -7.634  12.006  67.858  1.00  0.00    -0.124 C  
HETATM   19  O   UNL     1      -7.233  12.920  67.146  1.00  0.00    -0.105 OA 
BRANCH  18  20
HETATM   20  O   UNL     1      -7.195  11.790  69.136  1.00  0.00    -0.105 OA 
HETATM   21  C   UNL     1      -5.845  12.170  69.391  1.00  0.00    -0.087 C  
ENDBRANCH  18  20
ENDBRANCH  12  18
BRANCH  15  22
HETATM   22  C   UNL     1      -7.949   7.819  65.451  1.00  0.00    -0.125 C  
BRANCH  22  23
HETATM   23  C   UNL     1      -7.652   6.452  66.073  1.00  0.00    -0.087 C  
BRANCH  23  24
HETATM   24  C   UNL     1      -8.689   5.449  65.642  1.00  0.00    -0.152 C  
HETATM   25  O   UNL     1      -8.869   5.067  64.494  1.00  0.00    -0.151 OA 
BRANCH  24  26
HETATM   26  O   UNL     1      -9.378   5.001  66.730  1.00  0.00    -0.125 OA 
HETATM   27  C   UNL     1      -8.587   4.214  67.617  1.00  0.00    -0.100 C  
ENDBRANCH  24  26
ENDBRANCH  23  24
ENDBRANCH  22  23
ENDBRANCH  15  22
ENDBRANCH   4  12
ENDBRANCH   2   3
TORSDOF 9
ENDMDL
MODEL      138
REMARK 921   NORMALIZED FREE ENERGY PREDICTED BY IDOCK:   -3.33 KCAL/MOL
REMARK 922        TOTAL FREE ENERGY PREDICTED BY IDOCK:   -5.27 KCAL/MOL
REMARK 923 INTER-LIGAND FREE ENERGY PREDICTED BY IDOCK:   -5.49 KCAL/MOL
REMARK 924 INTRA-LIGAND FREE ENERGY PREDICTED BY IDOCK:    0.22 KCAL/MOL
REMARK 927      BINDING AFFINITY PREDICTED BY RF-SCORE:    0.00 PKD
ROOT
HETATM    1  C   UNL     1      -5.608  10.396  70.921  1.00  0.00    -0.092 C  
HETATM    2  C   UNL     1      -6.645  10.652  69.837  1.00  0.00    -0.137 C  
ENDROOT
BRANCH   2   3
HETATM    3  C   UNL     1      -6.868  12.148  69.630  1.00  0.00     0.112 C  
HETATM    4  N   UNL     1      -7.746  12.578  68.621  1.00  0.00    -0.100 N  
HETATM    5  O   UNL     1      -6.260  12.930  70.366  1.00  0.00    -0.086 OA 
BRANCH   4   6
HETATM    6  C   UNL     1      -8.472  11.617  67.816  1.00  0.00    -0.144 A  
HETATM    7  C   UNL     1      -9.712  11.085  68.213  1.00  0.00    -0.181 A  
HETATM    8  C   UNL     1     -10.406  10.178  67.405  1.00  0.00    -0.289 A  
HETATM    9  C   UNL     1      -7.932  11.169  66.603  1.00  0.00    -0.159 A  
HETATM   10  C   UNL     1      -9.869   9.774  66.190  1.00  0.00    -0.329 A  
HETATM   11  C   UNL     1      -8.627  10.260  65.792  1.00  0.00    -0.163 A  
ENDBRANCH   4   6
BRANCH   4  12
HETATM   12  C   UNL     1      -7.704  14.032  68.137  1.00  0.00    -0.143 C  
HETATM   13  C   UNL     1      -8.649  14.232  66.918  1.00  0.00    -0.172 C  
HETATM   14  C   UNL     1     -10.113  14.091  67.354  1.00  0.00    -0.244 C  
HETATM   15  N   UNL     1     -10.528  15.097  68.340  1.00  0.00    -0.229 NA 
HETATM   16  C   UNL     1      -9.634  15.050  69.513  1.00  0.00    -0.085 C  
HETATM   17  C   UNL     1      -8.150  15.132  69.151  1.00  0.00    -0.214 C  
BRANCH  12  18
HETATM   18  C   UNL     1      -6.248  14.426  67.784  1.00  0.00    -0.136 C  
HETATM   19  O   UNL     1      -5.442  13.693  67.224  1.00  0.00    -0.333 OA 
BRANCH  18  20
HETATM   20  O   UNL     1      -5.979  15.721  68.136  1.00  0.00    -0.109 OA 
HETATM   21  C   UNL     1      -5.435  16.536  67.101  1.00  0.00    -0.104 C  
ENDBRANCH  18  20
ENDBRANCH  12  18
BRANCH  15  22
HETATM   22  C   UNL     1     -10.636  16.468  67.802  1.00  0.00    -0.332 C  
BRANCH  22  23
HETATM   23  C   UNL     1     -10.532  17.566  68.865  1.00  0.00    -0.286 C  
BRANCH  23  24
HETATM   24  C   UNL     1     -10.173  18.879  68.221  1.00  0.00    -0.380 C  
HETATM   25  O   UNL     1     -10.799  19.419  67.319  1.00  0.00    -0.484 OA 
BRANCH  24  26
HETATM   26  O   UNL     1      -9.062  19.397  68.817  1.00  0.00    -0.371 OA 
HETATM   27  C   UNL     1      -7.845  19.013  68.181  1.00  0.00    -0.300 C  
ENDBRANCH  24  26
ENDBRANCH  23  24
ENDBRANCH  22  23
ENDBRANCH  15  22
ENDBRANCH   4  12
ENDBRANCH   2   3
TORSDOF 9
ENDMDL
MODEL      139
REMARK 921   NORMALIZED FREE ENERGY PREDICTED BY IDOCK:   -3.33 KCAL/MOL
REMARK 922        TOTAL FREE ENERGY PREDICTED BY IDOCK:   -5.27 KCAL/MOL
REMARK 923 INTER-LIGAND FREE ENERGY PREDICTED BY IDOCK:   -5.08 KCAL/MOL
REMARK 924 INTRA-LIGAND FREE ENERGY PREDICTED BY IDOCK:   -0.19 KCAL/MOL
REMARK 927      BINDING AFFINITY PREDICTED BY RF-SCORE:    0.00 PKD
ROOT
HETATM    1  C   UNL     1     -10.560  18.875  66.020  1.00  0.00    -0.470 C  
HETATM    2  C   UNL     1     -10.296  17.424  65.645  1.00  0.00    -0.161 C  
ENDROOT
BRANCH   2   3
HETATM    3  C   UNL     1     -10.629  16.486  66.803  1.00  0.00    -0.224 C  
HETATM    4  N   UNL     1      -9.640  16.198  67.759  1.00  0.00    -0.222 N  
HETATM    5  O   UNL     1     -11.767  16.012  66.853  1.00  0.00     0.348 OA 
BRANCH   4   6
HETATM    6  C   UNL     1      -8.335  16.820  67.680  1.00  0.00    -0.182 A  
HETATM    7  C   UNL     1      -7.403  16.494  66.678  1.00  0.00    -0.268 A  
HETATM    8  C   UNL     1      -6.159  17.129  66.608  1.00  0.00    -0.247 A  
HETATM    9  C   UNL     1      -7.953  17.770  68.636  1.00  0.00    -0.276 A  
HETATM   10  C   UNL     1      -5.814  18.094  67.545  1.00  0.00    -0.153 A  
HETATM   11  C   UNL     1      -6.706  18.408  68.567  1.00  0.00    -0.253 A  
ENDBRANCH   4   6
BRANCH   4  12
HETATM   12  C   UNL     1      -9.806  14.995  68.694  1.00  0.00    -0.222 C  
HETATM   13  C   UNL     1     -10.309  13.752  67.906  1.00  0.00    -0.244 C  
HETATM   14  C   UNL     1      -9.218  13.254  66.950  1.00  0.00    -0.241 C  
HETATM   15  N   UNL     1      -7.997  12.814  67.637  1.00  0.00    -0.152 NA 
HETATM   16  C   UNL     1      -7.480  13.902  68.489  1.00  0.00    -0.122 C  
HETATM   17  C   UNL     1      -8.530  14.487  69.435  1.00  0.00     0.182 C  
BRANCH  12  18
HETATM   18  C   UNL     1     -10.779  15.355  69.845  1.00  0.00    -0.303 C  
HETATM   19  O   UNL     1     -10.921  16.479  70.313  1.00  0.00    -0.332 OA 
BRANCH  18  20
HETATM   20  O   UNL     1     -11.502  14.267  70.252  1.00  0.00    -0.246 OA 
HETATM   21  C   UNL     1     -12.487  14.525  71.249  1.00  0.00    -0.346 C  
ENDBRANCH  18  20
ENDBRANCH  12  18
BRANCH  15  22
HETATM   22  C   UNL     1      -8.148  11.560  68.401  1.00  0.00    -0.149 C  
BRANCH  22  23
HETATM   23  C   UNL     1      -9.123  10.560  67.774  1.00  0.00    -0.140 C  
BRANCH  23  24
HETATM   24  C   UNL     1      -8.370   9.538  66.964  1.00  0.00    -0.124 C  
HETATM   25  O   UNL     1      -7.677   8.641  67.424  1.00  0.00    -0.096 OA 
BRANCH  24  26
HETATM   26  O   UNL     1      -8.602   9.740  65.636  1.00  0.00    -0.132 OA 
HETATM   27  C   UNL     1      -9.950  10.100  65.344  1.00  0.00    -0.307 C  
ENDBRANCH  24  26
ENDBRANCH  23  24
ENDBRANCH  22  23
ENDBRANCH  15  22
ENDBRANCH   4  12
ENDBRANCH   2   3
TORSDOF 9
ENDMDL
MODEL      140
REMARK 921   NORMALIZED FREE ENERGY PREDICTED BY IDOCK:   -3.33 KCAL/MOL
REMARK 922        TOTAL FREE ENERGY PREDICTED BY IDOCK:   -5.27 KCAL/MOL
REMARK 923 INTER-LIGAND FREE ENERGY PREDICTED BY IDOCK:   -5.09 KCAL/MOL
REMARK 924 INTRA-LIGAND FREE ENERGY PREDICTED BY IDOCK:   -0.18 KCAL/MOL
REMARK 927      BINDING AFFINITY PREDICTED BY RF-SCORE:    0.00 PKD
ROOT
HETATM    1  C   UNL     1      -5.315   9.274  69.006  1.00  0.00    -0.037 C  
HETATM    2  C   UNL     1      -6.340   8.230  69.428  1.00  0.00    -0.038 C  
ENDROOT
BRANCH   2   3
HETATM    3  C   UNL     1      -7.706   8.866  69.671  1.00  0.00    -0.078 C  
HETATM    4  N   UNL     1      -8.734   8.663  68.734  1.00  0.00    -0.134 N  
HETATM    5  O   UNL     1      -7.855   9.542  70.692  1.00  0.00    -0.167 OA 
BRANCH   4   6
HETATM    6  C   UNL     1      -8.520   7.820  67.576  1.00  0.00    -0.120 A  
HETATM    7  C   UNL     1      -7.733   8.226  66.483  1.00  0.00    -0.092 A  
HETATM    8  C   UNL     1      -7.521   7.382  65.388  1.00  0.00    -0.090 A  
HETATM    9  C   UNL     1      -9.124   6.558  67.508  1.00  0.00    -0.115 A  
HETATM   10  C   UNL     1      -8.100   6.121  65.356  1.00  0.00    -0.133 A  
HETATM   11  C   UNL     1      -8.911   5.711  66.410  1.00  0.00    -0.129 A  
ENDBRANCH   4   6
BRANCH   4  12
HETATM   12  C   UNL     1      -9.968   9.573  68.742  1.00  0.00    -0.174 C  
HETATM   13  C   UNL     1      -9.547  11.068  68.821  1.00  0.00    -0.194 C  
HETATM   14  C   UNL     1      -8.857  11.493  67.520  1.00  0.00    -0.155 C  
HETATM   15  N   UNL     1      -9.724  11.391  66.339  1.00  0.00    -0.199 NA 
HETATM   16  C   UNL     1     -10.252  10.019  66.218  1.00  0.00    -0.215 C  
HETATM   17  C   UNL     1     -10.910   9.505  67.500  1.00  0.00    -0.239 C  
BRANCH  12  18
HETATM   18  C   UNL     1     -10.893   9.191  69.925  1.00  0.00    -0.228 C  
HETATM   19  O   UNL     1     -11.493   9.994  70.630  1.00  0.00    -0.293 OA 
BRANCH  18  20
HETATM   20  O   UNL     1     -10.998   7.833  70.063  1.00  0.00    -0.249 OA 
HETATM   21  C   UNL     1     -12.048   7.385  70.915  1.00  0.00    -0.257 C  
ENDBRANCH  18  20
ENDBRANCH  12  18
BRANCH  15  22
HETATM   22  C   UNL     1     -10.811  12.390  66.295  1.00  0.00    -0.266 C  
BRANCH  22  23
HETATM   23  C   UNL     1     -10.327  13.832  66.123  1.00  0.00    -0.301 C  
BRANCH  23  24
HETATM   24  C   UNL     1     -11.021  14.734  67.111  1.00  0.00    -0.320 C  
HETATM   25  O   UNL     1     -11.757  14.360  68.014  1.00  0.00    -0.311 OA 
BRANCH  24  26
HETATM   26  O   UNL     1     -10.678  16.031  66.871  1.00  0.00    -0.314 OA 
HETATM   27  C   UNL     1      -9.892  16.612  67.909  1.00  0.00    -0.248 C  
ENDBRANCH  24  26
ENDBRANCH  23  24
ENDBRANCH  22  23
ENDBRANCH  15  22
ENDBRANCH   4  12
ENDBRANCH   2   3
TORSDOF 9
ENDMDL
MODEL      141
REMARK 921   NORMALIZED FREE ENERGY PREDICTED BY IDOCK:   -3.32 KCAL/MOL
REMARK 922        TOTAL FREE ENERGY PREDICTED BY IDOCK:   -5.26 KCAL/MOL
REMARK 923 INTER-LIGAND FREE ENERGY PREDICTED BY IDOCK:   -5.07 KCAL/MOL
REMARK 924 INTRA-LIGAND FREE ENERGY PREDICTED BY IDOCK:   -0.18 KCAL/MOL
REMARK 927      BINDING AFFINITY PREDICTED BY RF-SCORE:    0.00 PKD
ROOT
HETATM    1  C   UNL     1     -10.601   4.408  65.334  1.00  0.00    -0.192 C  
HETATM    2  C   UNL     1      -9.847   5.683  65.682  1.00  0.00     0.188 C  
ENDROOT
BRANCH   2   3
HETATM    3  C   UNL     1      -9.828   5.918  67.190  1.00  0.00    -0.143 C  
HETATM    4  N   UNL     1      -9.403   7.162  67.686  1.00  0.00    -0.127 N  
HETATM    5  O   UNL     1     -10.191   4.994  67.923  1.00  0.00    -0.148 OA 
BRANCH   4   6
HETATM    6  C   UNL     1      -9.033   8.230  66.780  1.00  0.00    -0.147 A  
HETATM    7  C   UNL     1      -7.714   8.414  66.329  1.00  0.00    -0.094 A  
HETATM    8  C   UNL     1      -7.388   9.437  65.432  1.00  0.00    -0.096 A  
HETATM    9  C   UNL     1     -10.003   9.138  66.336  1.00  0.00    -0.358 A  
HETATM   10  C   UNL     1      -8.371  10.305  64.977  1.00  0.00    -0.169 A  
HETATM   11  C   UNL     1      -9.677  10.164  65.436  1.00  0.00    -0.355 A  
ENDBRANCH   4   6
BRANCH   4  12
HETATM   12  C   UNL     1      -9.012   7.306  69.162  1.00  0.00    -0.135 C  
HETATM   13  C   UNL     1      -9.108   8.791  69.612  1.00  0.00    -0.149 C  
HETATM   14  C   UNL     1     -10.572   9.246  69.633  1.00  0.00    -0.229 C  
HETATM   15  N   UNL     1     -11.403   8.495  70.582  1.00  0.00    -0.257 NA 
HETATM   16  C   UNL     1     -11.315   7.050  70.294  1.00  0.00    -0.295 C  
HETATM   17  C   UNL     1      -9.878   6.534  70.205  1.00  0.00    -0.185 C  
BRANCH  12  18
HETATM   18  C   UNL     1      -7.585   6.746  69.383  1.00  0.00    -0.096 C  
HETATM   19  O   UNL     1      -6.551   7.379  69.203  1.00  0.00    -0.038 OA 
BRANCH  18  20
HETATM   20  O   UNL     1      -7.616   5.461  69.853  1.00  0.00    -0.070 OA 
HETATM   21  C   UNL     1      -6.378   4.758  69.794  1.00  0.00    -0.030 C  
ENDBRANCH  18  20
ENDBRANCH  12  18
BRANCH  15  22
HETATM   22  C   UNL     1     -11.111   8.778  72.002  1.00  0.00    -0.371 C  
BRANCH  22  23
HETATM   23  C   UNL     1     -11.438   7.620  72.949  1.00  0.00    -0.342 C  
BRANCH  23  24
HETATM   24  C   UNL     1     -10.204   7.206  73.707  1.00  0.00    -0.352 C  
HETATM   25  O   UNL     1      -9.182   7.869  73.812  1.00  0.00    -0.281 OA 
BRANCH  24  26
HETATM   26  O   UNL     1     -10.408   5.991  74.291  1.00  0.00    -0.281 OA 
HETATM   27  C   UNL     1     -11.151   5.088  73.476  1.00  0.00    -0.317 C  
ENDBRANCH  24  26
ENDBRANCH  23  24
ENDBRANCH  22  23
ENDBRANCH  15  22
ENDBRANCH   4  12
ENDBRANCH   2   3
TORSDOF 9
ENDMDL
MODEL      142
REMARK 921   NORMALIZED FREE ENERGY PREDICTED BY IDOCK:   -3.32 KCAL/MOL
REMARK 922        TOTAL FREE ENERGY PREDICTED BY IDOCK:   -5.25 KCAL/MOL
REMARK 923 INTER-LIGAND FREE ENERGY PREDICTED BY IDOCK:   -5.56 KCAL/MOL
REMARK 924 INTRA-LIGAND FREE ENERGY PREDICTED BY IDOCK:    0.31 KCAL/MOL
REMARK 927      BINDING AFFINITY PREDICTED BY RF-SCORE:    0.00 PKD
ROOT
HETATM    1  C   UNL     1      -7.712   3.481  72.516  1.00  0.00    -0.067 C  
HETATM    2  C   UNL     1      -9.210   3.751  72.518  1.00  0.00    -0.144 C  
ENDROOT
BRANCH   2   3
HETATM    3  C   UNL     1      -9.626   4.560  71.292  1.00  0.00    -0.172 C  
HETATM    4  N   UNL     1      -9.336   5.934  71.246  1.00  0.00    -0.156 N  
HETATM    5  O   UNL     1     -10.208   3.968  70.380  1.00  0.00    -0.021 OA 
BRANCH   4   6
HETATM    6  C   UNL     1      -8.607   6.570  72.324  1.00  0.00    -0.123 A  
HETATM    7  C   UNL     1      -7.228   6.830  72.250  1.00  0.00    -0.086 A  
HETATM    8  C   UNL     1      -6.552   7.471  73.295  1.00  0.00    -0.066 A  
HETATM    9  C   UNL     1      -9.274   6.933  73.502  1.00  0.00    -0.179 A  
HETATM   10  C   UNL     1      -7.239   7.854  74.439  1.00  0.00    -0.181 A  
HETATM   11  C   UNL     1      -8.598   7.576  74.549  1.00  0.00    -0.204 A  
ENDBRANCH   4   6
BRANCH   4  12
HETATM   12  C   UNL     1     -10.057   6.835  70.237  1.00  0.00    -0.179 C  
HETATM   13  C   UNL     1     -11.598   6.655  70.342  1.00  0.00    -0.457 C  
HETATM   14  C   UNL     1     -12.107   7.215  71.676  1.00  0.00    -0.336 C  
HETATM   15  N   UNL     1     -11.869   8.655  71.833  1.00  0.00    -0.325 NA 
HETATM   16  C   UNL     1     -10.433   8.950  71.664  1.00  0.00    -0.338 C  
HETATM   17  C   UNL     1      -9.841   8.374  70.376  1.00  0.00    -0.194 C  
BRANCH  12  18
HETATM   18  C   UNL     1      -9.556   6.523  68.804  1.00  0.00    -0.126 C  
HETATM   19  O   UNL     1     -10.270   6.475  67.809  1.00  0.00    -0.140 OA 
BRANCH  18  20
HETATM   20  O   UNL     1      -8.199   6.350  68.773  1.00  0.00    -0.118 OA 
HETATM   21  C   UNL     1      -7.746   5.190  68.079  1.00  0.00    -0.084 C  
ENDBRANCH  18  20
ENDBRANCH  12  18
BRANCH  15  22
HETATM   22  C   UNL     1     -12.698   9.508  70.957  1.00  0.00    -0.238 C  
BRANCH  22  23
HETATM   23  C   UNL     1     -13.184  10.799  71.621  1.00  0.00    -0.487 C  
BRANCH  23  24
HETATM   24  C   UNL     1     -12.707  11.995  70.840  1.00  0.00    -0.199 C  
HETATM   25  O   UNL     1     -12.696  13.148  71.249  1.00  0.00    -0.363 OA 
BRANCH  24  26
HETATM   26  O   UNL     1     -12.254  11.597  69.617  1.00  0.00    -0.273 OA 
HETATM   27  C   UNL     1     -11.469  12.585  68.954  1.00  0.00    -0.307 C  
ENDBRANCH  24  26
ENDBRANCH  23  24
ENDBRANCH  22  23
ENDBRANCH  15  22
ENDBRANCH   4  12
ENDBRANCH   2   3
TORSDOF 9
ENDMDL
MODEL      143
REMARK 921   NORMALIZED FREE ENERGY PREDICTED BY IDOCK:   -3.29 KCAL/MOL
REMARK 922        TOTAL FREE ENERGY PREDICTED BY IDOCK:   -5.21 KCAL/MOL
REMARK 923 INTER-LIGAND FREE ENERGY PREDICTED BY IDOCK:   -5.03 KCAL/MOL
REMARK 924 INTRA-LIGAND FREE ENERGY PREDICTED BY IDOCK:   -0.18 KCAL/MOL
REMARK 927      BINDING AFFINITY PREDICTED BY RF-SCORE:    0.00 PKD
ROOT
HETATM    1  C   UNL     1      -5.971   8.387  67.236  1.00  0.00    -0.051 C  
HETATM    2  C   UNL     1      -6.544   8.234  68.638  1.00  0.00    -0.054 C  
ENDROOT
BRANCH   2   3
HETATM    3  C   UNL     1      -7.294   6.912  68.785  1.00  0.00    -0.094 C  
HETATM    4  N   UNL     1      -8.696   6.905  68.695  1.00  0.00    -0.123 N  
HETATM    5  O   UNL     1      -6.630   5.890  68.980  1.00  0.00    -0.047 OA 
BRANCH   4   6
HETATM    6  C   UNL     1      -9.423   8.125  68.416  1.00  0.00    -0.142 A  
HETATM    7  C   UNL     1     -10.062   8.358  67.185  1.00  0.00    -0.335 A  
HETATM    8  C   UNL     1     -10.782   9.535  66.951  1.00  0.00    -0.184 A  
HETATM    9  C   UNL     1      -9.492   9.136  69.384  1.00  0.00    -0.161 A  
HETATM   10  C   UNL     1     -10.867  10.509  67.937  1.00  0.00    -0.333 A  
HETATM   11  C   UNL     1     -10.214  10.316  69.151  1.00  0.00    -0.234 A  
ENDBRANCH   4   6
BRANCH   4  12
HETATM   12  C   UNL     1      -9.490   5.697  69.206  1.00  0.00    -0.130 C  
HETATM   13  C   UNL     1      -8.936   5.216  70.578  1.00  0.00    -0.165 C  
HETATM   14  C   UNL     1      -9.227   6.261  71.662  1.00  0.00    -0.144 C  
HETATM   15  N   UNL     1     -10.661   6.494  71.879  1.00  0.00    -0.207 NA 
HETATM   16  C   UNL     1     -11.306   6.875  70.608  1.00  0.00    -0.320 C  
HETATM   17  C   UNL     1     -11.015   5.904  69.462  1.00  0.00    -0.438 C  
BRANCH  12  18
HETATM   18  C   UNL     1      -9.445   4.557  68.157  1.00  0.00    -0.149 C  
HETATM   19  O   UNL     1      -9.660   3.375  68.400  1.00  0.00    -0.166 OA 
BRANCH  18  20
HETATM   20  O   UNL     1      -9.179   5.039  66.904  1.00  0.00    -0.115 OA 
HETATM   21  C   UNL     1     -10.215   4.849  65.944  1.00  0.00    -0.223 C  
ENDBRANCH  18  20
ENDBRANCH  12  18
BRANCH  15  22
HETATM   22  C   UNL     1     -11.368   5.369  72.523  1.00  0.00    -0.225 C  
BRANCH  22  23
HETATM   23  C   UNL     1     -10.867   5.042  73.933  1.00  0.00    -0.336 C  
BRANCH  23  24
HETATM   24  C   UNL     1     -10.458   3.594  74.015  1.00  0.00    -0.195 C  
HETATM   25  O   UNL     1      -9.389   3.185  74.444  1.00  0.00    -0.084 OA 
BRANCH  24  26
HETATM   26  O   UNL     1     -11.475   2.802  73.571  1.00  0.00    -0.217 OA 
HETATM   27  C   UNL     1     -11.038   1.529  73.102  1.00  0.00    -0.153 C  
ENDBRANCH  24  26
ENDBRANCH  23  24
ENDBRANCH  22  23
ENDBRANCH  15  22
ENDBRANCH   4  12
ENDBRANCH   2   3
TORSDOF 9
ENDMDL
MODEL      144
REMARK 921   NORMALIZED FREE ENERGY PREDICTED BY IDOCK:   -3.29 KCAL/MOL
REMARK 922        TOTAL FREE ENERGY PREDICTED BY IDOCK:   -5.20 KCAL/MOL
REMARK 923 INTER-LIGAND FREE ENERGY PREDICTED BY IDOCK:   -4.96 KCAL/MOL
REMARK 924 INTRA-LIGAND FREE ENERGY PREDICTED BY IDOCK:   -0.24 KCAL/MOL
REMARK 927      BINDING AFFINITY PREDICTED BY RF-SCORE:    0.00 PKD
ROOT
HETATM    1  C   UNL     1      -7.711  14.894  68.878  1.00  0.00    -0.148 C  
HETATM    2  C   UNL     1      -7.877  14.378  67.456  1.00  0.00    -0.207 C  
ENDROOT
BRANCH   2   3
HETATM    3  C   UNL     1      -7.235  13.002  67.291  1.00  0.00    -0.049 C  
HETATM    4  N   UNL     1      -8.021  11.929  66.839  1.00  0.00    -0.156 N  
HETATM    5  O   UNL     1      -6.038  12.888  67.564  1.00  0.00    -0.148 OA 
BRANCH   4   6
HETATM    6  C   UNL     1      -9.411  12.129  66.485  1.00  0.00    -0.228 A  
HETATM    7  C   UNL     1      -9.893  11.929  65.179  1.00  0.00    -0.243 A  
HETATM    8  C   UNL     1     -11.246  12.103  64.869  1.00  0.00    -0.374 A  
HETATM    9  C   UNL     1     -10.326  12.557  67.456  1.00  0.00    -0.225 A  
HETATM   10  C   UNL     1     -12.143  12.494  65.855  1.00  0.00    -0.420 A  
HETATM   11  C   UNL     1     -11.683  12.731  67.147  1.00  0.00    -0.443 A  
ENDBRANCH   4   6
BRANCH   4  12
HETATM   12  C   UNL     1      -7.527  10.488  67.021  1.00  0.00    -0.100 C  
HETATM   13  C   UNL     1      -6.817  10.322  68.395  1.00  0.00    -0.061 C  
HETATM   14  C   UNL     1      -7.834  10.449  69.536  1.00  0.00    -0.155 C  
HETATM   15  N   UNL     1      -8.877   9.415  69.506  1.00  0.00    -0.151 NA 
HETATM   16  C   UNL     1      -9.562   9.430  68.199  1.00  0.00    -0.142 C  
HETATM   17  C   UNL     1      -8.604   9.360  67.009  1.00  0.00    -0.131 C  
BRANCH  12  18
HETATM   18  C   UNL     1      -6.581  10.106  65.855  1.00  0.00    -0.105 C  
HETATM   19  O   UNL     1      -6.634  10.584  64.728  1.00  0.00    -0.083 OA 
BRANCH  18  20
HETATM   20  O   UNL     1      -5.640   9.195  66.250  1.00  0.00    -0.047 OA 
HETATM   21  C   UNL     1      -5.258   8.243  65.261  1.00  0.00    -0.032 C  
ENDBRANCH  18  20
ENDBRANCH  12  18
BRANCH  15  22
HETATM   22  C   UNL     1      -8.399   8.060  69.846  1.00  0.00    -0.121 C  
BRANCH  22  23
HETATM   23  C   UNL     1      -9.496   6.992  69.845  1.00  0.00    -0.157 C  
BRANCH  23  24
HETATM   24  C   UNL     1     -10.564   7.344  70.847  1.00  0.00    -0.223 C  
HETATM   25  O   UNL     1     -11.754   7.472  70.598  1.00  0.00    -0.281 OA 
BRANCH  24  26
HETATM   26  O   UNL     1     -10.010   7.465  72.087  1.00  0.00    -0.166 OA 
HETATM   27  C   UNL     1     -10.961   7.367  73.145  1.00  0.00    -0.359 C  
ENDBRANCH  24  26
ENDBRANCH  23  24
ENDBRANCH  22  23
ENDBRANCH  15  22
ENDBRANCH   4  12
ENDBRANCH   2   3
TORSDOF 9
ENDMDL
MODEL      145
REMARK 921   NORMALIZED FREE ENERGY PREDICTED BY IDOCK:   -3.27 KCAL/MOL
REMARK 922        TOTAL FREE ENERGY PREDICTED BY IDOCK:   -5.17 KCAL/MOL
REMARK 923 INTER-LIGAND FREE ENERGY PREDICTED BY IDOCK:   -5.20 KCAL/MOL
REMARK 924 INTRA-LIGAND FREE ENERGY PREDICTED BY IDOCK:    0.02 KCAL/MOL
REMARK 927      BINDING AFFINITY PREDICTED BY RF-SCORE:    0.00 PKD
ROOT
HETATM    1  C   UNL     1     -10.160   4.986  69.291  1.00  0.00    -0.270 C  
HETATM    2  C   UNL     1     -11.041   6.203  69.046  1.00  0.00    -0.437 C  
ENDROOT
BRANCH   2   3
HETATM    3  C   UNL     1     -10.472   7.081  67.934  1.00  0.00    -0.214 C  
HETATM    4  N   UNL     1      -9.481   8.026  68.245  1.00  0.00    -0.140 N  
HETATM    5  O   UNL     1     -10.912   6.922  66.792  1.00  0.00    -0.329 OA 
BRANCH   4   6
HETATM    6  C   UNL     1      -8.965   8.138  69.593  1.00  0.00    -0.154 A  
HETATM    7  C   UNL     1      -7.643   7.793  69.926  1.00  0.00    -0.090 A  
HETATM    8  C   UNL     1      -7.161   7.935  71.232  1.00  0.00    -0.059 A  
HETATM    9  C   UNL     1      -9.799   8.585  70.627  1.00  0.00    -0.218 A  
HETATM   10  C   UNL     1      -7.994   8.414  72.234  1.00  0.00    -0.172 A  
HETATM   11  C   UNL     1      -9.316   8.729  71.936  1.00  0.00    -0.343 A  
ENDBRANCH   4   6
BRANCH   4  12
HETATM   12  C   UNL     1      -9.168   9.160  67.260  1.00  0.00    -0.133 C  
HETATM   13  C   UNL     1     -10.479   9.838  66.770  1.00  0.00    -0.259 C  
HETATM   14  C   UNL     1     -11.143  10.602  67.922  1.00  0.00    -0.308 C  
HETATM   15  N   UNL     1     -10.314  11.690  68.456  1.00  0.00    -0.207 NA 
HETATM   16  C   UNL     1      -9.001  11.164  68.875  1.00  0.00    -0.081 C  
HETATM   17  C   UNL     1      -8.300  10.343  67.790  1.00  0.00    -0.114 C  
BRANCH  12  18
HETATM   18  C   UNL     1      -8.347   8.607  66.068  1.00  0.00    -0.131 C  
HETATM   19  O   UNL     1      -8.241   9.158  64.978  1.00  0.00    -0.132 OA 
BRANCH  18  20
HETATM   20  O   UNL     1      -7.709   7.441  66.395  1.00  0.00    -0.089 OA 
HETATM   21  C   UNL     1      -7.738   6.428  65.394  1.00  0.00    -0.098 C  
ENDBRANCH  18  20
ENDBRANCH  12  18
BRANCH  15  22
HETATM   22  C   UNL     1     -10.164  12.843  67.544  1.00  0.00    -0.213 C  
BRANCH  22  23
HETATM   23  C   UNL     1      -9.391  14.019  68.147  1.00  0.00    -0.201 C  
BRANCH  23  24
HETATM   24  C   UNL     1      -8.596  14.720  67.076  1.00  0.00    -0.234 C  
HETATM   25  O   UNL     1      -9.054  15.495  66.248  1.00  0.00    -0.289 OA 
BRANCH  24  26
HETATM   26  O   UNL     1      -7.278  14.388  67.189  1.00  0.00    -0.113 OA 
HETATM   27  C   UNL     1      -6.466  15.452  67.681  1.00  0.00    -0.165 C  
ENDBRANCH  24  26
ENDBRANCH  23  24
ENDBRANCH  22  23
ENDBRANCH  15  22
ENDBRANCH   4  12
ENDBRANCH   2   3
TORSDOF 9
ENDMDL
MODEL      146
REMARK 921   NORMALIZED FREE ENERGY PREDICTED BY IDOCK:   -3.27 KCAL/MOL
REMARK 922        TOTAL FREE ENERGY PREDICTED BY IDOCK:   -5.17 KCAL/MOL
REMARK 923 INTER-LIGAND FREE ENERGY PREDICTED BY IDOCK:   -5.10 KCAL/MOL
REMARK 924 INTRA-LIGAND FREE ENERGY PREDICTED BY IDOCK:   -0.07 KCAL/MOL
REMARK 927      BINDING AFFINITY PREDICTED BY RF-SCORE:    0.00 PKD
ROOT
HETATM    1  C   UNL     1     -11.942  14.266  68.018  1.00  0.00    -0.353 C  
HETATM    2  C   UNL     1     -11.282  13.234  68.921  1.00  0.00    -0.322 C  
ENDROOT
BRANCH   2   3
HETATM    3  C   UNL     1     -11.155  11.885  68.216  1.00  0.00    -0.239 C  
HETATM    4  N   UNL     1      -9.901  11.483  67.728  1.00  0.00    -0.174 N  
HETATM    5  O   UNL     1     -12.171  11.196  68.102  1.00  0.00    -0.612 OA 
BRANCH   4   6
HETATM    6  C   UNL     1      -8.729  12.309  67.932  1.00  0.00    -0.177 A  
HETATM    7  C   UNL     1      -8.450  13.432  67.133  1.00  0.00    -0.179 A  
HETATM    8  C   UNL     1      -7.325  14.230  67.368  1.00  0.00    -0.152 A  
HETATM    9  C   UNL     1      -7.814  11.989  68.944  1.00  0.00     0.042 A  
HETATM   10  C   UNL     1      -6.450  13.915  68.398  1.00  0.00    -0.103 A  
HETATM   11  C   UNL     1      -6.687  12.789  69.181  1.00  0.00    -0.080 A  
ENDBRANCH   4   6
BRANCH   4  12
HETATM   12  C   UNL     1      -9.807  10.345  66.703  1.00  0.00    -0.202 C  
HETATM   13  C   UNL     1      -8.413   9.658  66.772  1.00  0.00    -0.129 C  
HETATM   14  C   UNL     1      -8.262   8.898  68.095  1.00  0.00    -0.114 C  
HETATM   15  N   UNL     1      -9.241   7.816  68.261  1.00  0.00    -0.140 NA 
HETATM   16  C   UNL     1     -10.610   8.350  68.127  1.00  0.00    -0.118 C  
HETATM   17  C   UNL     1     -10.821   9.169  66.852  1.00  0.00    -0.014 C  
BRANCH  12  18
HETATM   18  C   UNL     1     -10.088  10.895  65.282  1.00  0.00    -0.280 C  
HETATM   19  O   UNL     1     -11.101  11.504  64.957  1.00  0.00    -0.275 OA 
BRANCH  18  20
HETATM   20  O   UNL     1      -9.040  10.657  64.436  1.00  0.00    -0.196 OA 
HETATM   21  C   UNL     1      -9.392  10.125  63.161  1.00  0.00    -0.298 C  
ENDBRANCH  18  20
ENDBRANCH  12  18
BRANCH  15  22
HETATM   22  C   UNL     1      -9.026   6.659  67.368  1.00  0.00    -0.114 C  
BRANCH  22  23
HETATM   23  C   UNL     1     -10.124   5.596  67.448  1.00  0.00    -0.206 C  
BRANCH  23  24
HETATM   24  C   UNL     1      -9.843   4.484  66.471  1.00  0.00    -0.227 C  
HETATM   25  O   UNL     1      -9.810   4.604  65.254  1.00  0.00    -0.171 OA 
BRANCH  24  26
HETATM   26  O   UNL     1      -9.594   3.327  67.148  1.00  0.00    -0.183 OA 
HETATM   27  C   UNL     1      -8.236   2.902  67.064  1.00  0.00    -0.088 C  
ENDBRANCH  24  26
ENDBRANCH  23  24
ENDBRANCH  22  23
ENDBRANCH  15  22
ENDBRANCH   4  12
ENDBRANCH   2   3
TORSDOF 9
ENDMDL
MODEL      147
REMARK 921   NORMALIZED FREE ENERGY PREDICTED BY IDOCK:   -3.25 KCAL/MOL
REMARK 922        TOTAL FREE ENERGY PREDICTED BY IDOCK:   -5.14 KCAL/MOL
REMARK 923 INTER-LIGAND FREE ENERGY PREDICTED BY IDOCK:   -4.76 KCAL/MOL
REMARK 924 INTRA-LIGAND FREE ENERGY PREDICTED BY IDOCK:   -0.37 KCAL/MOL
REMARK 927      BINDING AFFINITY PREDICTED BY RF-SCORE:    0.00 PKD
ROOT
HETATM    1  C   UNL     1     -12.303  12.192  70.843  1.00  0.00    -0.370 C  
HETATM    2  C   UNL     1     -12.275  11.110  69.773  1.00  0.00    -0.369 C  
ENDROOT
BRANCH   2   3
HETATM    3  C   UNL     1     -10.919  10.408  69.734  1.00  0.00    -0.293 C  
HETATM    4  N   UNL     1     -10.036  10.680  68.676  1.00  0.00    -0.175 N  
HETATM    5  O   UNL     1     -10.651   9.620  70.644  1.00  0.00    -0.278 OA 
BRANCH   4   6
HETATM    6  C   UNL     1     -10.381  11.651  67.659  1.00  0.00    -0.189 A  
HETATM    7  C   UNL     1     -11.385  11.418  66.702  1.00  0.00    -0.230 A  
HETATM    8  C   UNL     1     -11.717  12.384  65.746  1.00  0.00    -0.470 A  
HETATM    9  C   UNL     1      -9.691  12.869  67.591  1.00  0.00    -0.212 A  
HETATM   10  C   UNL     1     -11.045  13.598  65.719  1.00  0.00    -0.292 A  
HETATM   11  C   UNL     1     -10.024  13.839  66.633  1.00  0.00    -0.279 A  
ENDBRANCH   4   6
BRANCH   4  12
HETATM   12  C   UNL     1      -8.860   9.736  68.398  1.00  0.00    -0.120 C  
HETATM   13  C   UNL     1      -9.287   8.254  68.599  1.00  0.00    -0.143 C  
HETATM   14  C   UNL     1     -10.283   7.838  67.511  1.00  0.00    -0.235 C  
HETATM   15  N   UNL     1      -9.727   7.905  66.153  1.00  0.00    -0.085 NA 
HETATM   16  C   UNL     1      -9.210   9.261  65.888  1.00  0.00    -0.219 C  
HETATM   17  C   UNL     1      -8.247   9.767  66.964  1.00  0.00    -0.117 C  
BRANCH  12  18
HETATM   18  C   UNL     1      -7.666  10.102  69.315  1.00  0.00    -0.126 C  
HETATM   19  O   UNL     1      -7.166  11.218  69.400  1.00  0.00    -0.118 OA 
BRANCH  18  20
HETATM   20  O   UNL     1      -7.260   9.030  70.063  1.00  0.00    -0.049 OA 
HETATM   21  C   UNL     1      -5.946   9.125  70.606  1.00  0.00    -0.044 C  
ENDBRANCH  18  20
ENDBRANCH  12  18
BRANCH  15  22
HETATM   22  C   UNL     1      -8.708   6.876  65.862  1.00  0.00    -0.134 C  
BRANCH  22  23
HETATM   23  C   UNL     1      -7.965   7.088  64.540  1.00  0.00    -0.104 C  
BRANCH  23  24
HETATM   24  C   UNL     1      -6.498   6.795  64.716  1.00  0.00    -0.042 C  
HETATM   25  O   UNL     1      -5.726   6.487  63.819  1.00  0.00    -0.028 OA 
BRANCH  24  26
HETATM   26  O   UNL     1      -6.149   6.957  66.024  1.00  0.00    -0.033 OA 
HETATM   27  C   UNL     1      -5.166   6.025  66.468  1.00  0.00    -0.009 C  
ENDBRANCH  24  26
ENDBRANCH  23  24
ENDBRANCH  22  23
ENDBRANCH  15  22
ENDBRANCH   4  12
ENDBRANCH   2   3
TORSDOF 9
ENDMDL
MODEL      148
REMARK 921   NORMALIZED FREE ENERGY PREDICTED BY IDOCK:   -3.24 KCAL/MOL
REMARK 922        TOTAL FREE ENERGY PREDICTED BY IDOCK:   -5.12 KCAL/MOL
REMARK 923 INTER-LIGAND FREE ENERGY PREDICTED BY IDOCK:   -6.01 KCAL/MOL
REMARK 924 INTRA-LIGAND FREE ENERGY PREDICTED BY IDOCK:    0.88 KCAL/MOL
REMARK 927      BINDING AFFINITY PREDICTED BY RF-SCORE:    0.00 PKD
ROOT
HETATM    1  C   UNL     1      -8.295  10.422  62.764  1.00  0.00    -0.180 C  
HETATM    2  C   UNL     1      -9.513  10.891  63.548  1.00  0.00    -0.322 C  
ENDROOT
BRANCH   2   3
HETATM    3  C   UNL     1      -9.350  10.608  65.040  1.00  0.00    -0.217 C  
HETATM    4  N   UNL     1      -9.991  11.442  65.970  1.00  0.00    -0.222 N  
HETATM    5  O   UNL     1      -8.654   9.645  65.372  1.00  0.00    -0.136 OA 
BRANCH   4   6
HETATM    6  C   UNL     1     -10.837  12.530  65.526  1.00  0.00    -0.278 A  
HETATM    7  C   UNL     1     -12.241  12.455  65.559  1.00  0.00    -0.356 A  
HETATM    8  C   UNL     1     -13.036  13.531  65.148  1.00  0.00    -0.110 A  
HETATM    9  C   UNL     1     -10.262  13.704  65.022  1.00  0.00    -0.356 A  
HETATM   10  C   UNL     1     -12.445  14.698  64.685  1.00  0.00    -0.302 A  
HETATM   11  C   UNL     1     -11.058  14.783  64.611  1.00  0.00    -0.337 A  
ENDBRANCH   4   6
BRANCH   4  12
HETATM   12  C   UNL     1      -9.554  11.427  67.440  1.00  0.00    -0.174 C  
HETATM   13  C   UNL     1     -10.794  11.414  68.380  1.00  0.00    -0.248 C  
HETATM   14  C   UNL     1     -11.533  10.076  68.263  1.00  0.00     0.084 C  
HETATM   15  N   UNL     1     -10.721   8.922  68.668  1.00  0.00    -0.136 NA 
HETATM   16  C   UNL     1      -9.468   8.889  67.889  1.00  0.00    -0.142 C  
HETATM   17  C   UNL     1      -8.700  10.211  67.917  1.00  0.00    -0.122 C  
BRANCH  12  18
HETATM   18  C   UNL     1      -8.648  12.649  67.731  1.00  0.00    -0.179 C  
HETATM   19  O   UNL     1      -7.468  12.736  67.410  1.00  0.00    -0.150 OA 
BRANCH  18  20
HETATM   20  O   UNL     1      -9.340  13.651  68.355  1.00  0.00    -0.203 OA 
HETATM   21  C   UNL     1      -8.587  14.826  68.646  1.00  0.00    -0.169 C  
ENDBRANCH  18  20
ENDBRANCH  12  18
BRANCH  15  22
HETATM   22  C   UNL     1     -10.453   8.847  70.119  1.00  0.00    -0.214 C  
BRANCH  22  23
HETATM   23  C   UNL     1     -11.448   7.979  70.894  1.00  0.00    -0.291 C  
BRANCH  23  24
HETATM   24  C   UNL     1     -11.550   8.454  72.320  1.00  0.00    -0.383 C  
HETATM   25  O   UNL     1     -11.081   7.879  73.292  1.00  0.00    -0.328 OA 
BRANCH  24  26
HETATM   26  O   UNL     1     -12.216   9.643  72.363  1.00  0.00    -0.137 OA 
HETATM   27  C   UNL     1     -13.230   9.761  71.368  1.00  0.00    -0.398 C  
ENDBRANCH  24  26
ENDBRANCH  23  24
ENDBRANCH  22  23
ENDBRANCH  15  22
ENDBRANCH   4  12
ENDBRANCH   2   3
TORSDOF 9
ENDMDL
MODEL      149
REMARK 921   NORMALIZED FREE ENERGY PREDICTED BY IDOCK:   -3.18 KCAL/MOL
REMARK 922        TOTAL FREE ENERGY PREDICTED BY IDOCK:   -5.03 KCAL/MOL
REMARK 923 INTER-LIGAND FREE ENERGY PREDICTED BY IDOCK:   -5.21 KCAL/MOL
REMARK 924 INTRA-LIGAND FREE ENERGY PREDICTED BY IDOCK:    0.17 KCAL/MOL
REMARK 927      BINDING AFFINITY PREDICTED BY RF-SCORE:    0.00 PKD
ROOT
HETATM    1  C   UNL     1     -10.936   6.225  67.485  1.00  0.00    -0.444 C  
HETATM    2  C   UNL     1     -11.284   6.096  68.961  1.00  0.00    -0.375 C  
ENDROOT
BRANCH   2   3
HETATM    3  C   UNL     1     -10.023   6.016  69.819  1.00  0.00    -0.175 C  
HETATM    4  N   UNL     1      -9.801   6.992  70.805  1.00  0.00    -0.186 N  
HETATM    5  O   UNL     1      -9.241   5.086  69.610  1.00  0.00    -0.108 OA 
BRANCH   4   6
HETATM    6  C   UNL     1     -10.777   8.036  71.043  1.00  0.00    -0.220 A  
HETATM    7  C   UNL     1     -11.610   8.045  72.176  1.00  0.00    -0.399 A  
HETATM    8  C   UNL     1     -12.527   9.079  72.396  1.00  0.00    -0.375 A  
HETATM    9  C   UNL     1     -10.930   9.076  70.116  1.00  0.00    -0.256 A  
HETATM   10  C   UNL     1     -12.637  10.119  71.482  1.00  0.00    -0.537 A  
HETATM   11  C   UNL     1     -11.847  10.113  70.336  1.00  0.00    -0.373 A  
ENDBRANCH   4   6
BRANCH   4  12
HETATM   12  C   UNL     1      -8.403   7.166  71.410  1.00  0.00    -0.112 C  
HETATM   13  C   UNL     1      -7.305   6.845  70.355  1.00  0.00    -0.081 C  
HETATM   14  C   UNL     1      -7.302   7.911  69.254  1.00  0.00    -0.082 C  
HETATM   15  N   UNL     1      -6.990   9.259  69.747  1.00  0.00    -0.054 NA 
HETATM   16  C   UNL     1      -7.929   9.631  70.822  1.00  0.00     0.070 C  
HETATM   17  C   UNL     1      -8.026   8.586  71.935  1.00  0.00    -0.170 C  
BRANCH  12  18
HETATM   18  C   UNL     1      -8.256   6.262  72.660  1.00  0.00    -0.106 C  
HETATM   19  O   UNL     1      -8.843   6.437  73.721  1.00  0.00    -0.123 OA 
BRANCH  18  20
HETATM   20  O   UNL     1      -7.419   5.206  72.420  1.00  0.00    -0.090 OA 
HETATM   21  C   UNL     1      -7.996   3.915  72.600  1.00  0.00    -0.082 C  
ENDBRANCH  18  20
ENDBRANCH  12  18
BRANCH  15  22
HETATM   22  C   UNL     1      -5.587   9.441  70.172  1.00  0.00    -0.031 C  
BRANCH  22  23
HETATM   23  C   UNL     1      -5.406  10.444  71.315  1.00  0.00    -0.074 C  
BRANCH  23  24
HETATM   24  C   UNL     1      -5.431  11.851  70.778  1.00  0.00    -0.142 C  
HETATM   25  O   UNL     1      -5.397  12.158  69.594  1.00  0.00    -0.069 OA 
BRANCH  24  26
HETATM   26  O   UNL     1      -5.533  12.737  71.809  1.00  0.00    -0.393 OA 
HETATM   27  C   UNL     1      -5.636  14.094  71.384  1.00  0.00    -0.225 C  
ENDBRANCH  24  26
ENDBRANCH  23  24
ENDBRANCH  22  23
ENDBRANCH  15  22
ENDBRANCH   4  12
ENDBRANCH   2   3
TORSDOF 9
ENDMDL
MODEL      150
REMARK 921   NORMALIZED FREE ENERGY PREDICTED BY IDOCK:   -3.16 KCAL/MOL
REMARK 922        TOTAL FREE ENERGY PREDICTED BY IDOCK:   -5.01 KCAL/MOL
REMARK 923 INTER-LIGAND FREE ENERGY PREDICTED BY IDOCK:   -5.57 KCAL/MOL
REMARK 924 INTRA-LIGAND FREE ENERGY PREDICTED BY IDOCK:    0.57 KCAL/MOL
REMARK 927      BINDING AFFINITY PREDICTED BY RF-SCORE:    0.00 PKD
ROOT
HETATM    1  C   UNL     1     -12.410  15.628  64.129  1.00  0.00     0.134 C  
HETATM    2  C   UNL     1     -11.021  15.689  64.748  1.00  0.00    -0.418 C  
ENDROOT
BRANCH   2   3
HETATM    3  C   UNL     1     -10.960  14.886  66.045  1.00  0.00    -0.334 C  
HETATM    4  N   UNL     1     -10.197  15.375  67.119  1.00  0.00    -0.247 N  
HETATM    5  O   UNL     1     -11.590  13.827  66.099  1.00  0.00    -0.329 OA 
BRANCH   4   6
HETATM    6  C   UNL     1      -9.515  16.649  67.020  1.00  0.00    -0.230 A  
HETATM    7  C   UNL     1      -8.323  16.811  66.293  1.00  0.00    -0.353 A  
HETATM    8  C   UNL     1      -7.698  18.059  66.191  1.00  0.00    -0.266 A  
HETATM    9  C   UNL     1     -10.031  17.772  67.680  1.00  0.00    -0.322 A  
HETATM   10  C   UNL     1      -8.245  19.167  66.824  1.00  0.00    -0.292 A  
HETATM   11  C   UNL     1      -9.406  19.023  67.578  1.00  0.00    -0.341 A  
ENDBRANCH   4   6
BRANCH   4  12
HETATM   12  C   UNL     1      -9.807  14.439  68.270  1.00  0.00    -0.229 C  
HETATM   13  C   UNL     1      -9.913  12.952  67.827  1.00  0.00    -0.230 C  
HETATM   14  C   UNL     1      -8.834  12.630  66.787  1.00  0.00    -0.168 C  
HETATM   15  N   UNL     1      -7.466  12.791  67.295  1.00  0.00    -0.132 NA 
HETATM   16  C   UNL     1      -7.283  14.157  67.824  1.00  0.00    -0.176 C  
HETATM   17  C   UNL     1      -8.357  14.568  68.832  1.00  0.00    -0.112 C  
BRANCH  12  18
HETATM   18  C   UNL     1     -10.705  14.720  69.501  1.00  0.00    -0.215 C  
HETATM   19  O   UNL     1     -10.668  15.744  70.173  1.00  0.00    -0.308 OA 
BRANCH  18  20
HETATM   20  O   UNL     1     -11.584  13.696  69.725  1.00  0.00    -0.279 OA 
HETATM   21  C   UNL     1     -12.500  13.900  70.798  1.00  0.00    -0.375 C  
ENDBRANCH  18  20
ENDBRANCH  12  18
BRANCH  15  22
HETATM   22  C   UNL     1      -7.063  11.774  68.287  1.00  0.00    -0.079 C  
BRANCH  22  23
HETATM   23  C   UNL     1      -5.911  10.876  67.827  1.00  0.00    -0.043 C  
BRANCH  23  24
HETATM   24  C   UNL     1      -6.448   9.565  67.314  1.00  0.00    -0.070 C  
HETATM   25  O   UNL     1      -7.341   9.441  66.488  1.00  0.00    -0.091 OA 
BRANCH  24  26
HETATM   26  O   UNL     1      -5.763   8.532  67.883  1.00  0.00    -0.038 OA 
HETATM   27  C   UNL     1      -5.801   7.334  67.111  1.00  0.00    -0.030 C  
ENDBRANCH  24  26
ENDBRANCH  23  24
ENDBRANCH  22  23
ENDBRANCH  15  22
ENDBRANCH   4  12
ENDBRANCH   2   3
TORSDOF 9
ENDMDL
MODEL      151
REMARK 921   NORMALIZED FREE ENERGY PREDICTED BY IDOCK:   -3.12 KCAL/MOL
REMARK 922        TOTAL FREE ENERGY PREDICTED BY IDOCK:   -4.94 KCAL/MOL
REMARK 923 INTER-LIGAND FREE ENERGY PREDICTED BY IDOCK:   -5.39 KCAL/MOL
REMARK 924 INTRA-LIGAND FREE ENERGY PREDICTED BY IDOCK:    0.44 KCAL/MOL
REMARK 927      BINDING AFFINITY PREDICTED BY RF-SCORE:    0.00 PKD
ROOT
HETATM    1  C   UNL     1     -12.185  14.523  64.527  1.00  0.00    -0.483 C  
HETATM    2  C   UNL     1     -12.655  13.975  65.866  1.00  0.00    -0.484 C  
ENDROOT
BRANCH   2   3
HETATM    3  C   UNL     1     -11.937  12.672  66.210  1.00  0.00    -0.374 C  
HETATM    4  N   UNL     1     -11.094  12.629  67.333  1.00  0.00    -0.261 N  
HETATM    5  O   UNL     1     -12.128  11.697  65.479  1.00  0.00    -0.195 OA 
BRANCH   4   6
HETATM    6  C   UNL     1     -10.942  13.790  68.187  1.00  0.00    -0.246 A  
HETATM    7  C   UNL     1      -9.842  14.659  68.089  1.00  0.00    -0.224 A  
HETATM    8  C   UNL     1      -9.733  15.789  68.908  1.00  0.00    -0.225 A  
HETATM    9  C   UNL     1     -11.904  14.068  69.167  1.00  0.00    -0.391 A  
HETATM   10  C   UNL     1     -10.715  16.065  69.849  1.00  0.00    -0.334 A  
HETATM   11  C   UNL     1     -11.796  15.200  69.988  1.00  0.00    -0.361 A  
ENDBRANCH   4   6
BRANCH   4  12
HETATM   12  C   UNL     1     -10.082  11.487  67.489  1.00  0.00    -0.183 C  
HETATM   13  C   UNL     1      -9.502  11.461  68.931  1.00  0.00    -0.064 C  
HETATM   14  C   UNL     1     -10.588  11.052  69.932  1.00  0.00     0.106 C  
HETATM   15  N   UNL     1     -11.119   9.702  69.699  1.00  0.00    -0.223 NA 
HETATM   16  C   UNL     1     -11.622   9.592  68.316  1.00  0.00     0.784 C  
HETATM   17  C   UNL     1     -10.607  10.036  67.262  1.00  0.00    -0.319 C  
BRANCH  12  18
HETATM   18  C   UNL     1      -8.955  11.639  66.437  1.00  0.00    -0.198 C  
HETATM   19  O   UNL     1      -7.787  11.903  66.698  1.00  0.00    -0.115 OA 
BRANCH  18  20
HETATM   20  O   UNL     1      -9.413  11.395  65.171  1.00  0.00    -0.227 OA 
HETATM   21  C   UNL     1      -8.669  10.434  64.425  1.00  0.00    -0.198 C  
ENDBRANCH  18  20
ENDBRANCH  12  18
BRANCH  15  22
HETATM   22  C   UNL     1     -10.171   8.614  70.013  1.00  0.00    -0.194 C  
BRANCH  22  23
HETATM   23  C   UNL     1      -9.388   8.824  71.312  1.00  0.00    -0.319 C  
BRANCH  23  24
HETATM   24  C   UNL     1      -9.168   7.504  72.005  1.00  0.00    -0.132 C  
HETATM   25  O   UNL     1      -8.512   6.573  71.560  1.00  0.00    -0.124 OA 
BRANCH  24  26
HETATM   26  O   UNL     1      -9.783   7.514  73.222  1.00  0.00    -0.220 OA 
HETATM   27  C   UNL     1      -9.448   6.392  74.035  1.00  0.00    -0.182 C  
ENDBRANCH  24  26
ENDBRANCH  23  24
ENDBRANCH  22  23
ENDBRANCH  15  22
ENDBRANCH   4  12
ENDBRANCH   2   3
TORSDOF 9
ENDMDL
MODEL      152
REMARK 921   NORMALIZED FREE ENERGY PREDICTED BY IDOCK:   -3.11 KCAL/MOL
REMARK 922        TOTAL FREE ENERGY PREDICTED BY IDOCK:   -4.93 KCAL/MOL
REMARK 923 INTER-LIGAND FREE ENERGY PREDICTED BY IDOCK:   -7.66 KCAL/MOL
REMARK 924 INTRA-LIGAND FREE ENERGY PREDICTED BY IDOCK:    2.74 KCAL/MOL
REMARK 927      BINDING AFFINITY PREDICTED BY RF-SCORE:    0.00 PKD
ROOT
HETATM    1  C   UNL     1      -7.749   9.964  70.105  1.00  0.00    -0.188 C  
HETATM    2  C   UNL     1      -8.745   9.711  68.982  1.00  0.00    -0.142 C  
ENDROOT
BRANCH   2   3
HETATM    3  C   UNL     1      -8.967  10.970  68.148  1.00  0.00    -0.152 C  
HETATM    4  N   UNL     1     -10.147  11.711  68.324  1.00  0.00    -0.196 N  
HETATM    5  O   UNL     1      -8.090  11.290  67.342  1.00  0.00    -0.126 OA 
BRANCH   4   6
HETATM    6  C   UNL     1     -11.123  11.318  69.320  1.00  0.00    -0.255 A  
HETATM    7  C   UNL     1     -11.490   9.977  69.529  1.00  0.00    -0.176 A  
HETATM    8  C   UNL     1     -12.415   9.621  70.515  1.00  0.00    -0.066 A  
HETATM    9  C   UNL     1     -11.755  12.293  70.104  1.00  0.00    -0.280 A  
HETATM   10  C   UNL     1     -13.003  10.600  71.305  1.00  0.00    -0.513 A  
HETATM   11  C   UNL     1     -12.683  11.937  71.094  1.00  0.00    -0.384 A  
ENDBRANCH   4   6
BRANCH   4  12
HETATM   12  C   UNL     1     -10.574  12.735  67.266  1.00  0.00    -0.233 C  
HETATM   13  C   UNL     1     -11.443  13.856  67.905  1.00  0.00    -0.350 C  
HETATM   14  C   UNL     1     -10.590  14.717  68.844  1.00  0.00    -0.253 C  
HETATM   15  N   UNL     1      -9.493  15.414  68.161  1.00  0.00    -0.201 NA 
HETATM   16  C   UNL     1      -8.648  14.440  67.444  1.00  0.00    -0.202 C  
HETATM   17  C   UNL     1      -9.439  13.508  66.525  1.00  0.00    -0.265 C  
BRANCH  12  18
HETATM   18  C   UNL     1     -11.339  12.021  66.123  1.00  0.00    -0.351 C  
HETATM   19  O   UNL     1     -12.512  12.224  65.834  1.00  0.00    -0.535 OA 
BRANCH  18  20
HETATM   20  O   UNL     1     -10.526  11.158  65.438  1.00  0.00    -0.264 OA 
HETATM   21  C   UNL     1     -10.576  11.269  64.018  1.00  0.00    -0.386 C  
ENDBRANCH  18  20
ENDBRANCH  12  18
BRANCH  15  22
HETATM   22  C   UNL     1      -9.929  16.506  67.268  1.00  0.00    -0.264 C  
BRANCH  22  23
HETATM   23  C   UNL     1      -9.906  16.144  65.781  1.00  0.00    -0.354 C  
BRANCH  23  24
HETATM   24  C   UNL     1     -10.805  17.072  65.007  1.00  0.00    -0.006 C  
HETATM   25  O   UNL     1     -10.945  18.267  65.226  1.00  0.00    -0.571 OA 
BRANCH  24  26
HETATM   26  O   UNL     1     -11.416  16.388  63.998  1.00  0.00    -1.048 OA 
HETATM   27  C   UNL     1     -11.297  14.972  64.120  1.00  0.00     0.097 C  
ENDBRANCH  24  26
ENDBRANCH  23  24
ENDBRANCH  22  23
ENDBRANCH  15  22
ENDBRANCH   4  12
ENDBRANCH   2   3
TORSDOF 9
ENDMDL
MODEL      153
REMARK 921   NORMALIZED FREE ENERGY PREDICTED BY IDOCK:   -3.11 KCAL/MOL
REMARK 922        TOTAL FREE ENERGY PREDICTED BY IDOCK:   -4.93 KCAL/MOL
REMARK 923 INTER-LIGAND FREE ENERGY PREDICTED BY IDOCK:   -4.71 KCAL/MOL
REMARK 924 INTRA-LIGAND FREE ENERGY PREDICTED BY IDOCK:   -0.21 KCAL/MOL
REMARK 927      BINDING AFFINITY PREDICTED BY RF-SCORE:    0.00 PKD
ROOT
HETATM    1  C   UNL     1      -5.762  11.364  71.326  1.00  0.00     0.218 C  
HETATM    2  C   UNL     1      -5.419  11.991  69.982  1.00  0.00    -0.109 C  
ENDROOT
BRANCH   2   3
HETATM    3  C   UNL     1      -6.392  13.115  69.634  1.00  0.00    -0.086 C  
HETATM    4  N   UNL     1      -7.179  13.006  68.476  1.00  0.00    -0.099 N  
HETATM    5  O   UNL     1      -6.448  14.086  70.393  1.00  0.00    -0.111 OA 
BRANCH   4   6
HETATM    6  C   UNL     1      -7.110  11.821  67.645  1.00  0.00    -0.107 A  
HETATM    7  C   UNL     1      -7.920  10.694  67.870  1.00  0.00    -0.106 A  
HETATM    8  C   UNL     1      -7.853   9.572  67.036  1.00  0.00    -0.098 A  
HETATM    9  C   UNL     1      -6.197  11.763  66.583  1.00  0.00    -0.025 A  
HETATM   10  C   UNL     1      -6.966   9.549  65.968  1.00  0.00    -0.091 A  
HETATM   11  C   UNL     1      -6.129  10.639  65.747  1.00  0.00    -0.134 A  
ENDBRANCH   4   6
BRANCH   4  12
HETATM   12  C   UNL     1      -7.868  14.248  67.898  1.00  0.00    -0.152 C  
HETATM   13  C   UNL     1      -8.593  13.904  66.566  1.00  0.00     0.174 C  
HETATM   14  C   UNL     1      -9.790  12.984  66.837  1.00  0.00    -0.240 C  
HETATM   15  N   UNL     1     -10.814  13.595  67.694  1.00  0.00    -0.254 NA 
HETATM   16  C   UNL     1     -10.207  14.040  68.964  1.00  0.00    -0.089 C  
HETATM   17  C   UNL     1      -8.971  14.921  68.771  1.00  0.00    -0.188 C  
BRANCH  12  18
HETATM   18  C   UNL     1      -6.826  15.376  67.689  1.00  0.00    -0.182 C  
HETATM   19  O   UNL     1      -5.809  15.271  67.013  1.00  0.00    -0.199 OA 
BRANCH  18  20
HETATM   20  O   UNL     1      -7.202  16.530  68.321  1.00  0.00    -0.150 OA 
HETATM   21  C   UNL     1      -6.489  17.701  67.931  1.00  0.00    -0.179 C  
ENDBRANCH  18  20
ENDBRANCH  12  18
BRANCH  15  22
HETATM   22  C   UNL     1     -11.573  14.686  67.051  1.00  0.00    -0.371 C  
BRANCH  22  23
HETATM   23  C   UNL     1     -12.766  14.210  66.219  1.00  0.00    -0.164 C  
BRANCH  23  24
HETATM   24  C   UNL     1     -12.399  14.172  64.758  1.00  0.00    -0.417 C  
HETATM   25  O   UNL     1     -11.944  15.110  64.119  1.00  0.00    -0.467 OA 
BRANCH  24  26
HETATM   26  O   UNL     1     -12.615  12.921  64.261  1.00  0.00    -0.604 OA 
HETATM   27  C   UNL     1     -11.498  12.393  63.550  1.00  0.00    -0.483 C  
ENDBRANCH  24  26
ENDBRANCH  23  24
ENDBRANCH  22  23
ENDBRANCH  15  22
ENDBRANCH   4  12
ENDBRANCH   2   3
TORSDOF 9
ENDMDL
MODEL      154
REMARK 921   NORMALIZED FREE ENERGY PREDICTED BY IDOCK:   -3.10 KCAL/MOL
REMARK 922        TOTAL FREE ENERGY PREDICTED BY IDOCK:   -4.91 KCAL/MOL
REMARK 923 INTER-LIGAND FREE ENERGY PREDICTED BY IDOCK:   -4.89 KCAL/MOL
REMARK 924 INTRA-LIGAND FREE ENERGY PREDICTED BY IDOCK:   -0.02 KCAL/MOL
REMARK 927      BINDING AFFINITY PREDICTED BY RF-SCORE:    0.00 PKD
ROOT
HETATM    1  C   UNL     1      -7.929  18.147  66.510  1.00  0.00    -0.290 C  
HETATM    2  C   UNL     1      -7.834  16.732  65.959  1.00  0.00    -0.069 C  
ENDROOT
BRANCH   2   3
HETATM    3  C   UNL     1      -9.136  15.966  66.177  1.00  0.00    -0.350 C  
HETATM    4  N   UNL     1      -9.223  15.049  67.238  1.00  0.00    -0.195 N  
HETATM    5  O   UNL     1     -10.072  16.186  65.404  1.00  0.00    -0.485 OA 
BRANCH   4   6
HETATM    6  C   UNL     1      -8.111  14.864  68.146  1.00  0.00    -0.137 A  
HETATM    7  C   UNL     1      -8.083  15.437  69.430  1.00  0.00    -0.249 A  
HETATM    8  C   UNL     1      -7.008  15.221  70.300  1.00  0.00     0.142 A  
HETATM    9  C   UNL     1      -7.000  14.108  67.749  1.00  0.00    -0.189 A  
HETATM   10  C   UNL     1      -5.933  14.438  69.898  1.00  0.00    -0.132 A  
HETATM   11  C   UNL     1      -5.922  13.890  68.619  1.00  0.00    -0.088 A  
ENDBRANCH   4   6
BRANCH   4  12
HETATM   12  C   UNL     1     -10.348  14.006  67.258  1.00  0.00    -0.264 C  
HETATM   13  C   UNL     1     -10.465  13.299  65.878  1.00  0.00    -0.289 C  
HETATM   14  C   UNL     1      -9.234  12.422  65.625  1.00  0.00     0.153 C  
HETATM   15  N   UNL     1      -9.074  11.342  66.606  1.00  0.00    -0.174 NA 
HETATM   16  C   UNL     1      -9.037  11.902  67.971  1.00  0.00    -0.189 C  
HETATM   17  C   UNL     1     -10.212  12.833  68.278  1.00  0.00    -0.245 C  
BRANCH  12  18
HETATM   18  C   UNL     1     -11.684  14.684  67.654  1.00  0.00    -0.363 C  
HETATM   19  O   UNL     1     -12.762  14.471  67.111  1.00  0.00     0.169 OA 
BRANCH  18  20
HETATM   20  O   UNL     1     -11.524  15.523  68.722  1.00  0.00    -0.314 OA 
HETATM   21  C   UNL     1     -12.029  15.037  69.963  1.00  0.00    -0.332 C  
ENDBRANCH  18  20
ENDBRANCH  12  18
BRANCH  15  22
HETATM   22  C   UNL     1     -10.081  10.267  66.495  1.00  0.00    -0.231 C  
BRANCH  22  23
HETATM   23  C   UNL     1      -9.495   8.895  66.149  1.00  0.00    -0.318 C  
BRANCH  23  24
HETATM   24  C   UNL     1      -8.473   8.493  67.180  1.00  0.00    -0.118 C  
HETATM   25  O   UNL     1      -7.265   8.435  66.993  1.00  0.00    -0.078 OA 
BRANCH  24  26
HETATM   26  O   UNL     1      -9.092   8.236  68.367  1.00  0.00    -0.136 OA 
HETATM   27  C   UNL     1      -8.184   7.971  69.434  1.00  0.00    -0.122 C  
ENDBRANCH  24  26
ENDBRANCH  23  24
ENDBRANCH  22  23
ENDBRANCH  15  22
ENDBRANCH   4  12
ENDBRANCH   2   3
TORSDOF 9
ENDMDL
MODEL      155
REMARK 921   NORMALIZED FREE ENERGY PREDICTED BY IDOCK:   -3.05 KCAL/MOL
REMARK 922        TOTAL FREE ENERGY PREDICTED BY IDOCK:   -4.84 KCAL/MOL
REMARK 923 INTER-LIGAND FREE ENERGY PREDICTED BY IDOCK:   -4.88 KCAL/MOL
REMARK 924 INTRA-LIGAND FREE ENERGY PREDICTED BY IDOCK:    0.04 KCAL/MOL
REMARK 927      BINDING AFFINITY PREDICTED BY RF-SCORE:    0.00 PKD
ROOT
HETATM    1  C   UNL     1      -9.240  10.969  62.535  1.00  0.00    -0.337 C  
HETATM    2  C   UNL     1      -9.609  11.178  63.997  1.00  0.00    -0.288 C  
ENDROOT
BRANCH   2   3
HETATM    3  C   UNL     1      -9.321   9.926  64.822  1.00  0.00    -0.278 C  
HETATM    4  N   UNL     1      -9.366  10.004  66.224  1.00  0.00    -0.161 N  
HETATM    5  O   UNL     1      -9.059   8.884  64.217  1.00  0.00     0.014 OA 
BRANCH   4   6
HETATM    6  C   UNL     1      -9.727  11.241  66.883  1.00  0.00    -0.192 A  
HETATM    7  C   UNL     1      -8.771  12.193  67.278  1.00  0.00    -0.182 A  
HETATM    8  C   UNL     1      -9.149  13.394  67.890  1.00  0.00    -0.208 A  
HETATM    9  C   UNL     1     -11.072  11.516  67.167  1.00  0.00    -0.355 A  
HETATM   10  C   UNL     1     -10.490  13.662  68.130  1.00  0.00    -0.250 A  
HETATM   11  C   UNL     1     -11.452  12.720  67.780  1.00  0.00    -0.376 A  
ENDBRANCH   4   6
BRANCH   4  12
HETATM   12  C   UNL     1      -8.724   8.899  67.073  1.00  0.00    -0.123 C  
HETATM   13  C   UNL     1      -9.124   9.054  68.568  1.00  0.00    -0.133 C  
HETATM   14  C   UNL     1     -10.617   8.759  68.750  1.00  0.00    -0.145 C  
HETATM   15  N   UNL     1     -10.990   7.386  68.386  1.00  0.00    -0.005 NA 
HETATM   16  C   UNL     1     -10.573   7.103  66.999  1.00  0.00    -0.343 C  
HETATM   17  C   UNL     1      -9.103   7.426  66.727  1.00  0.00    -0.178 C  
BRANCH  12  18
HETATM   18  C   UNL     1      -7.185   8.933  66.901  1.00  0.00    -0.082 C  
HETATM   19  O   UNL     1      -6.576   8.430  65.964  1.00  0.00    -0.052 OA 
BRANCH  18  20
HETATM   20  O   UNL     1      -6.583   9.637  67.908  1.00  0.00    -0.061 OA 
HETATM   21  C   UNL     1      -5.307   9.150  68.316  1.00  0.00    -0.038 C  
ENDBRANCH  18  20
ENDBRANCH  12  18
BRANCH  15  22
HETATM   22  C   UNL     1     -10.491   6.353  69.317  1.00  0.00    -0.231 C  
BRANCH  22  23
HETATM   23  C   UNL     1     -10.394   6.819  70.772  1.00  0.00    -0.227 C  
BRANCH  23  24
HETATM   24  C   UNL     1     -10.223   5.634  71.686  1.00  0.00    -0.208 C  
HETATM   25  O   UNL     1     -11.103   5.142  72.378  1.00  0.00    -0.216 OA 
BRANCH  24  26
HETATM   26  O   UNL     1      -8.945   5.168  71.602  1.00  0.00    -0.132 OA 
HETATM   27  C   UNL     1      -8.867   3.755  71.424  1.00  0.00    -0.096 C  
ENDBRANCH  24  26
ENDBRANCH  23  24
ENDBRANCH  22  23
ENDBRANCH  15  22
ENDBRANCH   4  12
ENDBRANCH   2   3
TORSDOF 9
ENDMDL
MODEL      156
REMARK 921   NORMALIZED FREE ENERGY PREDICTED BY IDOCK:   -3.05 KCAL/MOL
REMARK 922        TOTAL FREE ENERGY PREDICTED BY IDOCK:   -4.83 KCAL/MOL
REMARK 923 INTER-LIGAND FREE ENERGY PREDICTED BY IDOCK:   -5.36 KCAL/MOL
REMARK 924 INTRA-LIGAND FREE ENERGY PREDICTED BY IDOCK:    0.53 KCAL/MOL
REMARK 927      BINDING AFFINITY PREDICTED BY RF-SCORE:    0.00 PKD
ROOT
HETATM    1  C   UNL     1      -6.043   9.287  71.109  1.00  0.00    -0.071 C  
HETATM    2  C   UNL     1      -7.530   9.538  70.904  1.00  0.00    -0.043 C  
ENDROOT
BRANCH   2   3
HETATM    3  C   UNL     1      -7.798  10.183  69.546  1.00  0.00    -0.162 C  
HETATM    4  N   UNL     1      -8.740   9.598  68.683  1.00  0.00    -0.122 N  
HETATM    5  O   UNL     1      -7.169  11.204  69.258  1.00  0.00    -0.115 OA 
BRANCH   4   6
HETATM    6  C   UNL     1      -9.487   8.426  69.091  1.00  0.00    -0.155 A  
HETATM    7  C   UNL     1     -10.679   8.511  69.832  1.00  0.00    -0.224 A  
HETATM    8  C   UNL     1     -11.396   7.365  70.191  1.00  0.00    -0.200 A  
HETATM    9  C   UNL     1      -9.016   7.147  68.765  1.00  0.00    -0.128 A  
HETATM   10  C   UNL     1     -10.930   6.109  69.827  1.00  0.00    -0.459 A  
HETATM   11  C   UNL     1      -9.734   5.997  69.123  1.00  0.00    -0.168 A  
ENDBRANCH   4   6
BRANCH   4  12
HETATM   12  C   UNL     1      -8.759   9.980  67.198  1.00  0.00    -0.128 C  
HETATM   13  C   UNL     1     -10.077   9.502  66.525  1.00  0.00    -0.326 C  
HETATM   14  C   UNL     1     -11.269  10.301  67.067  1.00  0.00     0.123 C  
HETATM   15  N   UNL     1     -11.184  11.740  66.784  1.00  0.00    -0.316 NA 
HETATM   16  C   UNL     1      -9.916  12.282  67.310  1.00  0.00    -0.204 C  
HETATM   17  C   UNL     1      -8.684  11.500  66.854  1.00  0.00    -0.181 C  
BRANCH  12  18
HETATM   18  C   UNL     1      -7.521   9.380  66.487  1.00  0.00    -0.093 C  
HETATM   19  O   UNL     1      -6.543  10.025  66.124  1.00  0.00    -0.079 OA 
BRANCH  18  20
HETATM   20  O   UNL     1      -7.629   8.023  66.349  1.00  0.00    -0.088 OA 
HETATM   21  C   UNL     1      -7.955   7.565  65.040  1.00  0.00    -0.132 C  
ENDBRANCH  18  20
ENDBRANCH  12  18
BRANCH  15  22
HETATM   22  C   UNL     1     -11.368  12.091  65.361  1.00  0.00    -0.321 C  
BRANCH  22  23
HETATM   23  C   UNL     1     -10.531  13.287  64.900  1.00  0.00    -0.387 C  
BRANCH  23  24
HETATM   24  C   UNL     1     -11.411  14.496  64.714  1.00  0.00    -0.396 C  
HETATM   25  O   UNL     1     -12.484  14.506  64.127  1.00  0.00    -0.707 OA 
BRANCH  24  26
HETATM   26  O   UNL     1     -10.849  15.574  65.330  1.00  0.00    -0.353 OA 
HETATM   27  C   UNL     1     -11.048  16.797  64.624  1.00  0.00     0.076 C  
ENDBRANCH  24  26
ENDBRANCH  23  24
ENDBRANCH  22  23
ENDBRANCH  15  22
ENDBRANCH   4  12
ENDBRANCH   2   3
TORSDOF 9
ENDMDL
MODEL      157
REMARK 921   NORMALIZED FREE ENERGY PREDICTED BY IDOCK:   -3.03 KCAL/MOL
REMARK 922        TOTAL FREE ENERGY PREDICTED BY IDOCK:   -4.81 KCAL/MOL
REMARK 923 INTER-LIGAND FREE ENERGY PREDICTED BY IDOCK:   -4.77 KCAL/MOL
REMARK 924 INTRA-LIGAND FREE ENERGY PREDICTED BY IDOCK:   -0.04 KCAL/MOL
REMARK 927      BINDING AFFINITY PREDICTED BY RF-SCORE:    0.00 PKD
ROOT
HETATM    1  C   UNL     1     -11.156   6.171  66.881  1.00  0.00    -0.301 C  
HETATM    2  C   UNL     1     -11.125   6.478  68.371  1.00  0.00    -0.340 C  
ENDROOT
BRANCH   2   3
HETATM    3  C   UNL     1      -9.695   6.701  68.858  1.00  0.00    -0.135 C  
HETATM    4  N   UNL     1      -9.418   7.796  69.693  1.00  0.00    -0.157 N  
HETATM    5  O   UNL     1      -8.830   5.900  68.494  1.00  0.00    -0.112 OA 
BRANCH   4   6
HETATM    6  C   UNL     1     -10.481   8.678  70.130  1.00  0.00    -0.217 A  
HETATM    7  C   UNL     1     -10.962   9.732  69.334  1.00  0.00    -0.241 A  
HETATM    8  C   UNL     1     -12.008  10.553  69.769  1.00  0.00    -0.309 A  
HETATM    9  C   UNL     1     -11.055   8.508  71.397  1.00  0.00    -0.328 A  
HETATM   10  C   UNL     1     -12.586  10.345  71.014  1.00  0.00    -0.491 A  
HETATM   11  C   UNL     1     -12.104   9.330  71.834  1.00  0.00    -0.440 A  
ENDBRANCH   4   6
BRANCH   4  12
HETATM   12  C   UNL     1      -7.971   8.265  69.886  1.00  0.00    -0.108 C  
HETATM   13  C   UNL     1      -7.145   8.046  68.586  1.00  0.00    -0.072 C  
HETATM   14  C   UNL     1      -7.634   8.991  67.482  1.00  0.00    -0.089 C  
HETATM   15  N   UNL     1      -7.470  10.412  67.815  1.00  0.00    -0.088 NA 
HETATM   16  C   UNL     1      -8.150  10.711  69.089  1.00  0.00    -0.141 C  
HETATM   17  C   UNL     1      -7.751   9.772  70.228  1.00  0.00    -0.187 C  
BRANCH  12  18
HETATM   18  C   UNL     1      -7.333   7.519  71.084  1.00  0.00    -0.071 C  
HETATM   19  O   UNL     1      -7.958   7.056  72.031  1.00  0.00    -0.094 OA 
BRANCH  18  20
HETATM   20  O   UNL     1      -5.978   7.398  70.936  1.00  0.00    -0.034 OA 
HETATM   21  C   UNL     1      -5.393   6.266  71.574  1.00  0.00    -0.022 C  
ENDBRANCH  18  20
ENDBRANCH  12  18
BRANCH  15  22
HETATM   22  C   UNL     1      -6.067  10.873  67.834  1.00  0.00    -0.050 C  
BRANCH  22  23
HETATM   23  C   UNL     1      -5.833  12.191  67.090  1.00  0.00    -0.139 C  
BRANCH  23  24
HETATM   24  C   UNL     1      -5.731  13.329  68.071  1.00  0.00    -0.119 C  
HETATM   25  O   UNL     1      -5.164  13.281  69.154  1.00  0.00    -0.072 OA 
BRANCH  24  26
HETATM   26  O   UNL     1      -6.335  14.437  67.556  1.00  0.00    -0.295 OA 
HETATM   27  C   UNL     1      -7.732  14.266  67.326  1.00  0.00    -0.120 C  
ENDBRANCH  24  26
ENDBRANCH  23  24
ENDBRANCH  22  23
ENDBRANCH  15  22
ENDBRANCH   4  12
ENDBRANCH   2   3
TORSDOF 9
ENDMDL
MODEL      158
REMARK 921   NORMALIZED FREE ENERGY PREDICTED BY IDOCK:   -3.02 KCAL/MOL
REMARK 922        TOTAL FREE ENERGY PREDICTED BY IDOCK:   -4.80 KCAL/MOL
REMARK 923 INTER-LIGAND FREE ENERGY PREDICTED BY IDOCK:   -4.41 KCAL/MOL
REMARK 924 INTRA-LIGAND FREE ENERGY PREDICTED BY IDOCK:   -0.39 KCAL/MOL
REMARK 927      BINDING AFFINITY PREDICTED BY RF-SCORE:    0.00 PKD
ROOT
HETATM    1  C   UNL     1      -7.333   2.850  73.369  1.00  0.00    -0.046 C  
HETATM    2  C   UNL     1      -8.565   3.676  73.705  1.00  0.00    -0.086 C  
ENDROOT
BRANCH   2   3
HETATM    3  C   UNL     1      -9.276   4.148  72.439  1.00  0.00    -0.116 C  
HETATM    4  N   UNL     1      -9.123   5.480  72.022  1.00  0.00    -0.141 N  
HETATM    5  O   UNL     1      -9.964   3.329  71.825  1.00  0.00    -0.170 OA 
BRANCH   4   6
HETATM    6  C   UNL     1      -8.263   6.388  72.753  1.00  0.00    -0.107 A  
HETATM    7  C   UNL     1      -6.874   6.441  72.548  1.00  0.00    -0.069 A  
HETATM    8  C   UNL     1      -6.069   7.346  73.248  1.00  0.00    -0.056 A  
HETATM    9  C   UNL     1      -8.809   7.243  73.721  1.00  0.00    -0.231 A  
HETATM   10  C   UNL     1      -6.635   8.208  74.177  1.00  0.00    -0.143 A  
HETATM   11  C   UNL     1      -8.003   8.151  74.423  1.00  0.00    -0.308 A  
ENDBRANCH   4   6
BRANCH   4  12
HETATM   12  C   UNL     1     -10.098   6.080  71.002  1.00  0.00    -0.192 C  
HETATM   13  C   UNL     1      -9.491   7.352  70.344  1.00  0.00    -0.165 C  
HETATM   14  C   UNL     1      -8.304   6.971  69.452  1.00  0.00    -0.133 C  
HETATM   15  N   UNL     1      -8.671   6.090  68.336  1.00  0.00    -0.114 NA 
HETATM   16  C   UNL     1      -9.340   4.880  68.850  1.00  0.00    -0.129 C  
HETATM   17  C   UNL     1     -10.506   5.182  69.793  1.00  0.00    -0.274 C  
BRANCH  12  18
HETATM   18  C   UNL     1     -11.448   6.401  71.692  1.00  0.00    -0.303 C  
HETATM   19  O   UNL     1     -11.859   5.854  72.709  1.00  0.00    -0.207 OA 
BRANCH  18  20
HETATM   20  O   UNL     1     -12.113   7.410  71.051  1.00  0.00    -0.312 OA 
HETATM   21  C   UNL     1     -13.502   7.514  71.351  1.00  0.00    -0.317 C  
ENDBRANCH  18  20
ENDBRANCH  12  18
BRANCH  15  22
HETATM   22  C   UNL     1      -9.478   6.744  67.286  1.00  0.00    -0.135 C  
BRANCH  22  23
HETATM   23  C   UNL     1      -8.686   7.112  66.028  1.00  0.00    -0.162 C  
BRANCH  23  24
HETATM   24  C   UNL     1      -8.393   5.875  65.220  1.00  0.00    -0.146 C  
HETATM   25  O   UNL     1      -7.346   5.648  64.628  1.00  0.00    -0.063 OA 
BRANCH  24  26
HETATM   26  O   UNL     1      -9.457   5.025  65.274  1.00  0.00    -0.139 OA 
HETATM   27  C   UNL     1      -9.092   3.651  65.161  1.00  0.00    -0.143 C  
ENDBRANCH  24  26
ENDBRANCH  23  24
ENDBRANCH  22  23
ENDBRANCH  15  22
ENDBRANCH   4  12
ENDBRANCH   2   3
TORSDOF 9
ENDMDL
MODEL      159
REMARK 921   NORMALIZED FREE ENERGY PREDICTED BY IDOCK:   -3.02 KCAL/MOL
REMARK 922        TOTAL FREE ENERGY PREDICTED BY IDOCK:   -4.79 KCAL/MOL
REMARK 923 INTER-LIGAND FREE ENERGY PREDICTED BY IDOCK:   -4.69 KCAL/MOL
REMARK 924 INTRA-LIGAND FREE ENERGY PREDICTED BY IDOCK:   -0.10 KCAL/MOL
REMARK 927      BINDING AFFINITY PREDICTED BY RF-SCORE:    0.00 PKD
ROOT
HETATM    1  C   UNL     1      -6.158  11.805  67.933  1.00  0.00    -0.050 C  
HETATM    2  C   UNL     1      -6.477  11.326  66.524  1.00  0.00    -0.111 C  
ENDROOT
BRANCH   2   3
HETATM    3  C   UNL     1      -6.471   9.801  66.445  1.00  0.00    -0.071 C  
HETATM    4  N   UNL     1      -7.529   9.143  65.796  1.00  0.00    -0.090 N  
HETATM    5  O   UNL     1      -5.525   9.200  66.962  1.00  0.00    -0.039 OA 
BRANCH   4   6
HETATM    6  C   UNL     1      -8.590   9.899  65.163  1.00  0.00    -0.153 A  
HETATM    7  C   UNL     1      -8.733   9.974  63.766  1.00  0.00    -0.228 A  
HETATM    8  C   UNL     1      -9.783  10.689  63.180  1.00  0.00    -0.375 A  
HETATM    9  C   UNL     1      -9.509  10.607  65.948  1.00  0.00    -0.239 A  
HETATM   10  C   UNL     1     -10.704  11.354  63.977  1.00  0.00    -0.450 A  
HETATM   11  C   UNL     1     -10.563  11.323  65.362  1.00  0.00    -0.312 A  
ENDBRANCH   4   6
BRANCH   4  12
HETATM   12  C   UNL     1      -7.753   7.643  66.023  1.00  0.00    -0.090 C  
HETATM   13  C   UNL     1      -7.359   7.243  67.474  1.00  0.00    -0.092 C  
HETATM   14  C   UNL     1      -8.339   7.860  68.478  1.00  0.00    -0.128 C  
HETATM   15  N   UNL     1      -9.721   7.395  68.306  1.00  0.00    -0.150 NA 
HETATM   16  C   UNL     1     -10.169   7.651  66.924  1.00  0.00    -0.294 C  
HETATM   17  C   UNL     1      -9.210   7.110  65.863  1.00  0.00     0.003 C  
BRANCH  12  18
HETATM   18  C   UNL     1      -6.946   6.828  64.981  1.00  0.00    -0.051 C  
HETATM   19  O   UNL     1      -5.797   6.434  65.141  1.00  0.00    -0.021 OA 
BRANCH  18  20
HETATM   20  O   UNL     1      -7.693   6.560  63.867  1.00  0.00    -0.097 OA 
HETATM   21  C   UNL     1      -7.631   5.215  63.398  1.00  0.00    -0.064 C  
ENDBRANCH  18  20
ENDBRANCH  12  18
BRANCH  15  22
HETATM   22  C   UNL     1      -9.940   5.985  68.689  1.00  0.00    -0.149 C  
BRANCH  22  23
HETATM   23  C   UNL     1     -10.136   5.770  70.192  1.00  0.00    -0.274 C  
BRANCH  23  24
HETATM   24  C   UNL     1     -11.209   6.690  70.713  1.00  0.00    -0.315 C  
HETATM   25  O   UNL     1     -12.393   6.640  70.408  1.00  0.00    -0.274 OA 
BRANCH  24  26
HETATM   26  O   UNL     1     -10.670   7.568  71.605  1.00  0.00    -0.213 OA 
HETATM   27  C   UNL     1     -11.511   7.823  72.728  1.00  0.00    -0.359 C  
ENDBRANCH  24  26
ENDBRANCH  23  24
ENDBRANCH  22  23
ENDBRANCH  15  22
ENDBRANCH   4  12
ENDBRANCH   2   3
TORSDOF 9
ENDMDL
MODEL      160
REMARK 921   NORMALIZED FREE ENERGY PREDICTED BY IDOCK:   -3.01 KCAL/MOL
REMARK 922        TOTAL FREE ENERGY PREDICTED BY IDOCK:   -4.77 KCAL/MOL
REMARK 923 INTER-LIGAND FREE ENERGY PREDICTED BY IDOCK:   -4.66 KCAL/MOL
REMARK 924 INTRA-LIGAND FREE ENERGY PREDICTED BY IDOCK:   -0.11 KCAL/MOL
REMARK 927      BINDING AFFINITY PREDICTED BY RF-SCORE:    0.00 PKD
ROOT
HETATM    1  C   UNL     1      -7.699  10.170  68.940  1.00  0.00    -0.093 C  
HETATM    2  C   UNL     1      -8.241   9.756  70.300  1.00  0.00    -0.178 C  
ENDROOT
BRANCH   2   3
HETATM    3  C   UNL     1      -9.378   8.748  70.157  1.00  0.00    -0.169 C  
HETATM    4  N   UNL     1      -9.179   7.423  70.581  1.00  0.00    -0.157 N  
HETATM    5  O   UNL     1     -10.440   9.141  69.668  1.00  0.00    -0.210 OA 
BRANCH   4   6
HETATM    6  C   UNL     1      -7.929   7.026  71.194  1.00  0.00    -0.104 A  
HETATM    7  C   UNL     1      -6.732   6.917  70.464  1.00  0.00    -0.053 A  
HETATM    8  C   UNL     1      -5.531   6.557  71.086  1.00  0.00    -0.026 A  
HETATM    9  C   UNL     1      -7.887   6.712  72.559  1.00  0.00    -0.102 A  
HETATM   10  C   UNL     1      -5.505   6.285  72.447  1.00  0.00    -0.032 A  
HETATM   11  C   UNL     1      -6.683   6.352  73.184  1.00  0.00    -0.073 A  
ENDBRANCH   4   6
BRANCH   4  12
HETATM   12  C   UNL     1     -10.133   6.318  70.115  1.00  0.00    -0.179 C  
HETATM   13  C   UNL     1     -10.687   6.633  68.696  1.00  0.00    -0.303 C  
HETATM   14  C   UNL     1      -9.565   6.535  67.655  1.00  0.00    -0.122 C  
HETATM   15  N   UNL     1      -8.977   5.193  67.557  1.00  0.00    -0.109 NA 
HETATM   16  C   UNL     1      -8.493   4.757  68.881  1.00  0.00    -0.081 C  
HETATM   17  C   UNL     1      -9.545   4.878  69.984  1.00  0.00    -0.261 C  
BRANCH  12  18
HETATM   18  C   UNL     1     -11.285   6.152  71.138  1.00  0.00    -0.292 C  
HETATM   19  O   UNL     1     -11.173   5.616  72.234  1.00  0.00    -0.266 OA 
BRANCH  18  20
HETATM   20  O   UNL     1     -12.444   6.723  70.686  1.00  0.00    -0.320 OA 
HETATM   21  C   UNL     1     -13.161   7.493  71.647  1.00  0.00    -0.356 C  
ENDBRANCH  18  20
ENDBRANCH  12  18
BRANCH  15  22
HETATM   22  C   UNL     1      -9.867   4.182  66.952  1.00  0.00    -0.164 C  
BRANCH  22  23
HETATM   23  C   UNL     1     -10.386   4.559  65.562  1.00  0.00    -0.254 C  
BRANCH  23  24
HETATM   24  C   UNL     1     -10.009   3.498  64.561  1.00  0.00    -0.171 C  
HETATM   25  O   UNL     1      -9.173   2.623  64.739  1.00  0.00    -0.131 OA 
BRANCH  24  26
HETATM   26  O   UNL     1     -10.765   3.636  63.435  1.00  0.00    -0.243 OA 
HETATM   27  C   UNL     1     -11.000   2.405  62.756  1.00  0.00    -0.212 C  
ENDBRANCH  24  26
ENDBRANCH  23  24
ENDBRANCH  22  23
ENDBRANCH  15  22
ENDBRANCH   4  12
ENDBRANCH   2   3
TORSDOF 9
ENDMDL
MODEL      161
REMARK 921   NORMALIZED FREE ENERGY PREDICTED BY IDOCK:   -2.99 KCAL/MOL
REMARK 922        TOTAL FREE ENERGY PREDICTED BY IDOCK:   -4.75 KCAL/MOL
REMARK 923 INTER-LIGAND FREE ENERGY PREDICTED BY IDOCK:   -5.32 KCAL/MOL
REMARK 924 INTRA-LIGAND FREE ENERGY PREDICTED BY IDOCK:    0.57 KCAL/MOL
REMARK 927      BINDING AFFINITY PREDICTED BY RF-SCORE:    0.00 PKD
ROOT
HETATM    1  C   UNL     1      -5.172   8.387  66.080  1.00  0.00    -0.028 C  
HETATM    2  C   UNL     1      -6.108   7.581  66.970  1.00  0.00    -0.047 C  
ENDROOT
BRANCH   2   3
HETATM    3  C   UNL     1      -6.794   8.474  68.001  1.00  0.00    -0.070 C  
HETATM    4  N   UNL     1      -8.103   8.170  68.409  1.00  0.00    -0.126 N  
HETATM    5  O   UNL     1      -6.163   9.440  68.439  1.00  0.00    -0.051 OA 
BRANCH   4   6
HETATM    6  C   UNL     1      -8.781   6.996  67.899  1.00  0.00    -0.125 A  
HETATM    7  C   UNL     1      -9.172   5.931  68.729  1.00  0.00    -0.120 A  
HETATM    8  C   UNL     1      -9.850   4.820  68.215  1.00  0.00    -0.181 A  
HETATM    9  C   UNL     1      -9.053   6.885  66.528  1.00  0.00    -0.179 A  
HETATM   10  C   UNL     1     -10.140   4.745  66.860  1.00  0.00    -0.246 A  
HETATM   11  C   UNL     1      -9.733   5.772  66.013  1.00  0.00    -0.051 A  
ENDBRANCH   4   6
BRANCH   4  12
HETATM   12  C   UNL     1      -8.946   9.229  69.130  1.00  0.00    -0.144 C  
HETATM   13  C   UNL     1      -8.297  10.636  68.990  1.00  0.00    -0.153 C  
HETATM   14  C   UNL     1      -8.377  11.114  67.536  1.00  0.00    -0.122 C  
HETATM   15  N   UNL     1      -9.753  11.267  67.046  1.00  0.00    -0.185 NA 
HETATM   16  C   UNL     1     -10.491  10.000  67.214  1.00  0.00    -0.254 C  
HETATM   17  C   UNL     1     -10.411   9.433  68.633  1.00  0.00    -0.227 C  
BRANCH  12  18
HETATM   18  C   UNL     1      -9.115   8.839  70.620  1.00  0.00    -0.186 C  
HETATM   19  O   UNL     1      -8.192   8.683  71.410  1.00  0.00    -0.137 OA 
BRANCH  18  20
HETATM   20  O   UNL     1     -10.436   8.732  70.964  1.00  0.00    -0.202 OA 
HETATM   21  C   UNL     1     -10.700   8.680  72.364  1.00  0.00    -0.240 C  
ENDBRANCH  18  20
ENDBRANCH  12  18
BRANCH  15  22
HETATM   22  C   UNL     1     -10.489  12.399  67.644  1.00  0.00    -0.216 C  
BRANCH  22  23
HETATM   23  C   UNL     1     -11.863  12.652  67.018  1.00  0.00    -0.415 C  
BRANCH  23  24
HETATM   24  C   UNL     1     -11.707  13.107  65.591  1.00  0.00    -0.364 C  
HETATM   25  O   UNL     1     -10.999  14.033  65.217  1.00  0.00    -0.307 OA 
BRANCH  24  26
HETATM   26  O   UNL     1     -12.447  12.310  64.768  1.00  0.00    -0.454 OA 
HETATM   27  C   UNL     1     -11.812  12.039  63.521  1.00  0.00    -0.492 C  
ENDBRANCH  24  26
ENDBRANCH  23  24
ENDBRANCH  22  23
ENDBRANCH  15  22
ENDBRANCH   4  12
ENDBRANCH   2   3
TORSDOF 9
ENDMDL
MODEL      162
REMARK 921   NORMALIZED FREE ENERGY PREDICTED BY IDOCK:   -2.97 KCAL/MOL
REMARK 922        TOTAL FREE ENERGY PREDICTED BY IDOCK:   -4.72 KCAL/MOL
REMARK 923 INTER-LIGAND FREE ENERGY PREDICTED BY IDOCK:   -4.88 KCAL/MOL
REMARK 924 INTRA-LIGAND FREE ENERGY PREDICTED BY IDOCK:    0.16 KCAL/MOL
REMARK 927      BINDING AFFINITY PREDICTED BY RF-SCORE:    0.00 PKD
ROOT
HETATM    1  C   UNL     1      -9.815  10.506  64.037  1.00  0.00    -0.387 C  
HETATM    2  C   UNL     1      -9.991  10.637  65.543  1.00  0.00    -0.333 C  
ENDROOT
BRANCH   2   3
HETATM    3  C   UNL     1      -9.691   9.317  66.249  1.00  0.00    -0.271 C  
HETATM    4  N   UNL     1      -9.978   9.192  67.619  1.00  0.00    -0.182 N  
HETATM    5  O   UNL     1      -9.203   8.402  65.581  1.00  0.00    -0.154 OA 
BRANCH   4   6
HETATM    6  C   UNL     1     -10.596  10.281  68.346  1.00  0.00    -0.216 A  
HETATM    7  C   UNL     1     -11.759  10.108  69.118  1.00  0.00    -0.027 A  
HETATM    8  C   UNL     1     -12.322  11.171  69.833  1.00  0.00    -0.330 A  
HETATM    9  C   UNL     1     -10.047  11.568  68.279  1.00  0.00    -0.205 A  
HETATM   10  C   UNL     1     -11.741  12.431  69.780  1.00  0.00    -0.361 A  
HETATM   11  C   UNL     1     -10.610  12.635  68.996  1.00  0.00    -0.079 A  
ENDBRANCH   4   6
BRANCH   4  12
HETATM   12  C   UNL     1      -9.355   8.049  68.430  1.00  0.00    -0.138 C  
HETATM   13  C   UNL     1      -7.825   7.957  68.162  1.00  0.00    -0.127 C  
HETATM   14  C   UNL     1      -7.110   9.180  68.747  1.00  0.00    -0.073 C  
HETATM   15  N   UNL     1      -7.246   9.294  70.205  1.00  0.00    -0.073 NA 
HETATM   16  C   UNL     1      -8.674   9.304  70.578  1.00  0.00    -0.236 C  
HETATM   17  C   UNL     1      -9.465   8.138  69.984  1.00  0.00    -0.167 C  
BRANCH  12  18
HETATM   18  C   UNL     1     -10.063   6.715  68.087  1.00  0.00    -0.158 C  
HETATM   19  O   UNL     1     -11.257   6.602  67.835  1.00  0.00    -0.251 OA 
BRANCH  18  20
HETATM   20  O   UNL     1      -9.178   5.671  68.053  1.00  0.00    -0.108 OA 
HETATM   21  C   UNL     1      -9.496   4.630  67.134  1.00  0.00    -0.153 C  
ENDBRANCH  18  20
ENDBRANCH  12  18
BRANCH  15  22
HETATM   22  C   UNL     1      -6.499   8.272  70.967  1.00  0.00    -0.039 C  
BRANCH  22  23
HETATM   23  C   UNL     1      -6.165   8.684  72.403  1.00  0.00    -0.075 C  
BRANCH  23  24
HETATM   24  C   UNL     1      -7.206   8.150  73.351  1.00  0.00    -0.133 C  
HETATM   25  O   UNL     1      -7.850   8.821  74.146  1.00  0.00    -0.405 OA 
BRANCH  24  26
HETATM   26  O   UNL     1      -7.351   6.807  73.168  1.00  0.00    -0.076 OA 
HETATM   27  C   UNL     1      -8.651   6.326  73.504  1.00  0.00    -0.124 C  
ENDBRANCH  24  26
ENDBRANCH  23  24
ENDBRANCH  22  23
ENDBRANCH  15  22
ENDBRANCH   4  12
ENDBRANCH   2   3
TORSDOF 9
ENDMDL
MODEL      163
REMARK 921   NORMALIZED FREE ENERGY PREDICTED BY IDOCK:   -2.96 KCAL/MOL
REMARK 922        TOTAL FREE ENERGY PREDICTED BY IDOCK:   -4.71 KCAL/MOL
REMARK 923 INTER-LIGAND FREE ENERGY PREDICTED BY IDOCK:   -4.77 KCAL/MOL
REMARK 924 INTRA-LIGAND FREE ENERGY PREDICTED BY IDOCK:    0.07 KCAL/MOL
REMARK 927      BINDING AFFINITY PREDICTED BY RF-SCORE:    0.00 PKD
ROOT
HETATM    1  C   UNL     1      -5.126  10.845  65.131  1.00  0.00    -0.104 C  
HETATM    2  C   UNL     1      -5.281   9.982  66.375  1.00  0.00    -0.043 C  
ENDROOT
BRANCH   2   3
HETATM    3  C   UNL     1      -6.512  10.392  67.180  1.00  0.00    -0.072 C  
HETATM    4  N   UNL     1      -7.724   9.714  66.971  1.00  0.00    -0.095 N  
HETATM    5  O   UNL     1      -6.391  11.313  67.991  1.00  0.00    -0.052 OA 
BRANCH   4   6
HETATM    6  C   UNL     1      -7.800   8.607  66.041  1.00  0.00    -0.102 A  
HETATM    7  C   UNL     1      -7.710   7.266  66.456  1.00  0.00    -0.093 A  
HETATM    8  C   UNL     1      -7.813   6.213  65.540  1.00  0.00    -0.103 A  
HETATM    9  C   UNL     1      -7.948   8.853  64.670  1.00  0.00    -0.132 A  
HETATM   10  C   UNL     1      -7.995   6.479  64.190  1.00  0.00    -0.088 A  
HETATM   11  C   UNL     1      -8.053   7.798  63.751  1.00  0.00    -0.051 A  
ENDBRANCH   4   6
BRANCH   4  12
HETATM   12  C   UNL     1      -9.040  10.330  67.463  1.00  0.00    -0.137 C  
HETATM   13  C   UNL     1     -10.194   9.290  67.387  1.00  0.00    -0.304 C  
HETATM   14  C   UNL     1      -9.970   8.174  68.414  1.00  0.00    -0.190 C  
HETATM   15  N   UNL     1      -9.964   8.651  69.803  1.00  0.00    -0.186 NA 
HETATM   16  C   UNL     1      -8.952   9.713  69.965  1.00  0.00    -0.237 C  
HETATM   17  C   UNL     1      -9.081  10.838  68.937  1.00  0.00    -0.170 C  
BRANCH  12  18
HETATM   18  C   UNL     1      -9.372  11.593  66.629  1.00  0.00    -0.194 C  
HETATM   19  O   UNL     1      -9.413  11.631  65.405  1.00  0.00    -0.224 OA 
BRANCH  18  20
HETATM   20  O   UNL     1      -9.661  12.662  67.432  1.00  0.00    -0.194 OA 
HETATM   21  C   UNL     1     -10.881  13.338  67.135  1.00  0.00    -0.258 C  
ENDBRANCH  18  20
ENDBRANCH  12  18
BRANCH  15  22
HETATM   22  C   UNL     1     -11.284   9.087  70.302  1.00  0.00    -0.205 C  
BRANCH  22  23
HETATM   23  C   UNL     1     -11.347   9.278  71.820  1.00  0.00    -0.437 C  
BRANCH  23  24
HETATM   24  C   UNL     1     -12.775   9.205  72.293  1.00  0.00    -0.377 C  
HETATM   25  O   UNL     1     -13.190   8.471  73.179  1.00  0.00    -0.096 OA 
BRANCH  24  26
HETATM   26  O   UNL     1     -13.534  10.108  71.610  1.00  0.00    -0.346 OA 
HETATM   27  C   UNL     1     -13.338  11.454  72.039  1.00  0.00    -0.283 C  
ENDBRANCH  24  26
ENDBRANCH  23  24
ENDBRANCH  22  23
ENDBRANCH  15  22
ENDBRANCH   4  12
ENDBRANCH   2   3
TORSDOF 9
ENDMDL
MODEL      164
REMARK 921   NORMALIZED FREE ENERGY PREDICTED BY IDOCK:   -2.93 KCAL/MOL
REMARK 922        TOTAL FREE ENERGY PREDICTED BY IDOCK:   -4.65 KCAL/MOL
REMARK 923 INTER-LIGAND FREE ENERGY PREDICTED BY IDOCK:   -5.30 KCAL/MOL
REMARK 924 INTRA-LIGAND FREE ENERGY PREDICTED BY IDOCK:    0.65 KCAL/MOL
REMARK 927      BINDING AFFINITY PREDICTED BY RF-SCORE:    0.00 PKD
ROOT
HETATM    1  C   UNL     1     -12.383  14.581  64.418  1.00  0.00    -0.437 C  
HETATM    2  C   UNL     1     -12.418  14.144  65.876  1.00  0.00    -0.479 C  
ENDROOT
BRANCH   2   3
HETATM    3  C   UNL     1     -11.758  12.780  66.058  1.00  0.00    -0.418 C  
HETATM    4  N   UNL     1     -10.448  12.713  66.562  1.00  0.00    -0.245 N  
HETATM    5  O   UNL     1     -12.409  11.778  65.752  1.00  0.00    -0.187 OA 
BRANCH   4   6
HETATM    6  C   UNL     1      -9.746  13.918  66.953  1.00  0.00    -0.268 A  
HETATM    7  C   UNL     1      -9.046  14.716  66.030  1.00  0.00    -0.022 A  
HETATM    8  C   UNL     1      -8.398  15.890  66.428  1.00  0.00    -0.310 A  
HETATM    9  C   UNL     1      -9.731  14.316  68.296  1.00  0.00    -0.221 A  
HETATM   10  C   UNL     1      -8.426  16.285  67.759  1.00  0.00    -0.169 A  
HETATM   11  C   UNL     1      -9.082  15.493  68.697  1.00  0.00    -0.202 A  
ENDBRANCH   4   6
BRANCH   4  12
HETATM   12  C   UNL     1      -9.630  11.426  66.403  1.00  0.00    -0.205 C  
HETATM   13  C   UNL     1      -8.418  11.422  67.377  1.00  0.00    -0.143 C  
HETATM   14  C   UNL     1      -8.903  11.303  68.826  1.00  0.00    -0.102 C  
HETATM   15  N   UNL     1      -9.630  10.056  69.099  1.00  0.00    -0.197 NA 
HETATM   16  C   UNL     1     -10.761   9.918  68.163  1.00  0.00    -0.233 C  
HETATM   17  C   UNL     1     -10.360  10.078  66.696  1.00  0.00    -0.281 C  
BRANCH  12  18
HETATM   18  C   UNL     1      -9.164  11.279  64.932  1.00  0.00    -0.112 C  
HETATM   19  O   UNL     1      -8.219  10.591  64.565  1.00  0.00    -0.154 OA 
BRANCH  18  20
HETATM   20  O   UNL     1      -9.971  11.981  64.078  1.00  0.00    -0.311 OA 
HETATM   21  C   UNL     1     -10.310  11.309  62.868  1.00  0.00    -0.078 C  
ENDBRANCH  18  20
ENDBRANCH  12  18
BRANCH  15  22
HETATM   22  C   UNL     1      -8.782   8.847  69.099  1.00  0.00    -0.132 C  
BRANCH  22  23
HETATM   23  C   UNL     1      -7.280   9.137  69.019  1.00  0.00    -0.072 C  
BRANCH  23  24
HETATM   24  C   UNL     1      -6.614   8.787  70.323  1.00  0.00    -0.040 C  
HETATM   25  O   UNL     1      -6.398   7.652  70.724  1.00  0.00    -0.038 OA 
BRANCH  24  26
HETATM   26  O   UNL     1      -6.254   9.927  70.978  1.00  0.00    -0.166 OA 
HETATM   27  C   UNL     1      -5.648  10.900  70.131  1.00  0.00    -0.080 C  
ENDBRANCH  24  26
ENDBRANCH  23  24
ENDBRANCH  22  23
ENDBRANCH  15  22
ENDBRANCH   4  12
ENDBRANCH   2   3
TORSDOF 9
ENDMDL
MODEL      165
REMARK 921   NORMALIZED FREE ENERGY PREDICTED BY IDOCK:   -2.85 KCAL/MOL
REMARK 922        TOTAL FREE ENERGY PREDICTED BY IDOCK:   -4.53 KCAL/MOL
REMARK 923 INTER-LIGAND FREE ENERGY PREDICTED BY IDOCK:   -5.46 KCAL/MOL
REMARK 924 INTRA-LIGAND FREE ENERGY PREDICTED BY IDOCK:    0.92 KCAL/MOL
REMARK 927      BINDING AFFINITY PREDICTED BY RF-SCORE:    0.00 PKD
ROOT
HETATM    1  C   UNL     1     -12.279  12.676  70.523  1.00  0.00    -0.383 C  
HETATM    2  C   UNL     1     -12.191  11.657  69.396  1.00  0.00    -0.246 C  
ENDROOT
BRANCH   2   3
HETATM    3  C   UNL     1     -10.742  11.258  69.125  1.00  0.00    -0.207 C  
HETATM    4  N   UNL     1     -10.115  11.708  67.952  1.00  0.00    -0.183 N  
HETATM    5  O   UNL     1     -10.174  10.548  69.959  1.00  0.00    -0.163 OA 
BRANCH   4   6
HETATM    6  C   UNL     1     -10.813  12.581  67.030  1.00  0.00    -0.254 A  
HETATM    7  C   UNL     1     -11.776  12.104  66.123  1.00  0.00    -0.384 A  
HETATM    8  C   UNL     1     -12.455  12.972  65.261  1.00  0.00    -0.555 A  
HETATM    9  C   UNL     1     -10.523  13.952  67.008  1.00  0.00    -0.278 A  
HETATM   10  C   UNL     1     -12.178  14.333  65.280  1.00  0.00    -0.414 A  
HETATM   11  C   UNL     1     -11.204  14.823  66.146  1.00  0.00    -0.337 A  
ENDBRANCH   4   6
BRANCH   4  12
HETATM   12  C   UNL     1      -8.826  11.035  67.465  1.00  0.00    -0.131 C  
HETATM   13  C   UNL     1      -8.745   9.569  67.981  1.00  0.00    -0.120 C  
HETATM   14  C   UNL     1      -9.819   8.710  67.304  1.00  0.00    -0.197 C  
HETATM   15  N   UNL     1      -9.664   8.621  65.846  1.00  0.00    -0.164 NA 
HETATM   16  C   UNL     1      -9.641   9.975  65.260  1.00  0.00    -0.291 C  
HETATM   17  C   UNL     1      -8.627  10.909  65.923  1.00  0.00    -0.179 C  
BRANCH  12  18
HETATM   18  C   UNL     1      -7.598  11.857  67.929  1.00  0.00    -0.128 C  
HETATM   19  O   UNL     1      -7.654  12.865  68.624  1.00  0.00    -0.126 OA 
BRANCH  18  20
HETATM   20  O   UNL     1      -6.426  11.293  67.502  1.00  0.00    -0.063 OA 
HETATM   21  C   UNL     1      -5.326  11.416  68.400  1.00  0.00    -0.042 C  
ENDBRANCH  18  20
ENDBRANCH  12  18
BRANCH  15  22
HETATM   22  C   UNL     1      -8.499   7.827  65.406  1.00  0.00    -0.110 C  
BRANCH  22  23
HETATM   23  C   UNL     1      -7.309   8.669  64.940  1.00  0.00    -0.090 C  
BRANCH  23  24
HETATM   24  C   UNL     1      -7.059   8.446  63.471  1.00  0.00    -0.090 C  
HETATM   25  O   UNL     1      -7.619   7.609  62.777  1.00  0.00    -0.099 OA 
BRANCH  24  26
HETATM   26  O   UNL     1      -6.138   9.343  63.018  1.00  0.00    -0.092 OA 
HETATM   27  C   UNL     1      -6.718  10.487  62.396  1.00  0.00    -0.133 C  
ENDBRANCH  24  26
ENDBRANCH  23  24
ENDBRANCH  22  23
ENDBRANCH  15  22
ENDBRANCH   4  12
ENDBRANCH   2   3
TORSDOF 9
ENDMDL
MODEL      166
REMARK 921   NORMALIZED FREE ENERGY PREDICTED BY IDOCK:   -2.84 KCAL/MOL
REMARK 922        TOTAL FREE ENERGY PREDICTED BY IDOCK:   -4.51 KCAL/MOL
REMARK 923 INTER-LIGAND FREE ENERGY PREDICTED BY IDOCK:   -4.62 KCAL/MOL
REMARK 924 INTRA-LIGAND FREE ENERGY PREDICTED BY IDOCK:    0.10 KCAL/MOL
REMARK 927      BINDING AFFINITY PREDICTED BY RF-SCORE:    0.00 PKD
ROOT
HETATM    1  C   UNL     1      -8.667  10.305  68.480  1.00  0.00    -0.130 C  
HETATM    2  C   UNL     1      -9.286  10.091  69.854  1.00  0.00    -0.207 C  
ENDROOT
BRANCH   2   3
HETATM    3  C   UNL     1     -10.259   8.915  69.844  1.00  0.00    -0.200 C  
HETATM    4  N   UNL     1     -10.085   7.873  70.769  1.00  0.00    -0.192 N  
HETATM    5  O   UNL     1     -11.171   8.927  69.012  1.00  0.00     0.080 OA 
BRANCH   4   6
HETATM    6  C   UNL     1      -9.027   7.932  71.757  1.00  0.00    -0.132 A  
HETATM    7  C   UNL     1      -9.285   7.938  73.139  1.00  0.00    -0.331 A  
HETATM    8  C   UNL     1      -8.244   7.969  74.073  1.00  0.00    -0.316 A  
HETATM    9  C   UNL     1      -7.690   8.006  71.346  1.00  0.00    -0.092 A  
HETATM   10  C   UNL     1      -6.924   8.006  73.644  1.00  0.00    -0.147 A  
HETATM   11  C   UNL     1      -6.645   8.036  72.281  1.00  0.00    -0.069 A  
ENDBRANCH   4   6
BRANCH   4  12
HETATM   12  C   UNL     1     -10.786   6.527  70.548  1.00  0.00    -0.271 C  
HETATM   13  C   UNL     1     -11.040   6.283  69.033  1.00  0.00    -0.446 C  
HETATM   14  C   UNL     1      -9.710   6.064  68.302  1.00  0.00    -0.124 C  
HETATM   15  N   UNL     1      -8.972   4.884  68.771  1.00  0.00    -0.101 NA 
HETATM   16  C   UNL     1      -8.752   4.974  70.227  1.00  0.00    -0.107 C  
HETATM   17  C   UNL     1     -10.031   5.245  71.020  1.00  0.00    -0.266 C  
BRANCH  12  18
HETATM   18  C   UNL     1     -12.112   6.488  71.348  1.00  0.00    -0.287 C  
HETATM   19  O   UNL     1     -12.247   5.972  72.452  1.00  0.00    -0.251 OA 
BRANCH  18  20
HETATM   20  O   UNL     1     -13.115   7.145  70.690  1.00  0.00    -0.059 OA 
HETATM   21  C   UNL     1     -14.171   7.632  71.514  1.00  0.00    -0.439 C  
ENDBRANCH  18  20
ENDBRANCH  12  18
BRANCH  15  22
HETATM   22  C   UNL     1      -9.591   3.595  68.400  1.00  0.00    -0.096 C  
BRANCH  22  23
HETATM   23  C   UNL     1      -9.279   3.141  66.972  1.00  0.00    -0.198 C  
BRANCH  23  24
HETATM   24  C   UNL     1      -7.889   3.572  66.582  1.00  0.00    -0.081 C  
HETATM   25  O   UNL     1      -7.620   4.523  65.861  1.00  0.00    -0.084 OA 
BRANCH  24  26
HETATM   26  O   UNL     1      -6.970   2.764  67.182  1.00  0.00    -0.047 OA 
HETATM   27  C   UNL     1      -5.715   3.402  67.408  1.00  0.00    -0.022 C  
ENDBRANCH  24  26
ENDBRANCH  23  24
ENDBRANCH  22  23
ENDBRANCH  15  22
ENDBRANCH   4  12
ENDBRANCH   2   3
TORSDOF 9
ENDMDL
MODEL      167
REMARK 921   NORMALIZED FREE ENERGY PREDICTED BY IDOCK:   -2.81 KCAL/MOL
REMARK 922        TOTAL FREE ENERGY PREDICTED BY IDOCK:   -4.47 KCAL/MOL
REMARK 923 INTER-LIGAND FREE ENERGY PREDICTED BY IDOCK:   -6.01 KCAL/MOL
REMARK 924 INTRA-LIGAND FREE ENERGY PREDICTED BY IDOCK:    1.54 KCAL/MOL
REMARK 927      BINDING AFFINITY PREDICTED BY RF-SCORE:    0.00 PKD
ROOT
HETATM    1  C   UNL     1      -6.228  15.478  69.579  1.00  0.00    -0.145 C  
HETATM    2  C   UNL     1      -7.215  15.438  68.421  1.00  0.00    -0.114 C  
ENDROOT
BRANCH   2   3
HETATM    3  C   UNL     1      -7.968  14.110  68.385  1.00  0.00    -0.142 C  
HETATM    4  N   UNL     1      -9.201  14.039  67.715  1.00  0.00    -0.188 N  
HETATM    5  O   UNL     1      -7.458  13.141  68.954  1.00  0.00    -0.084 OA 
BRANCH   4   6
HETATM    6  C   UNL     1      -9.732  15.194  67.023  1.00  0.00    -0.231 A  
HETATM    7  C   UNL     1     -10.020  15.182  65.647  1.00  0.00    -0.387 A  
HETATM    8  C   UNL     1     -10.558  16.304  65.006  1.00  0.00    -0.257 A  
HETATM    9  C   UNL     1      -9.958  16.387  67.722  1.00  0.00    -0.248 A  
HETATM   10  C   UNL     1     -10.807  17.465  65.726  1.00  0.00     0.000 A  
HETATM   11  C   UNL     1     -10.498  17.512  67.082  1.00  0.00    -0.312 A  
ENDBRANCH   4   6
BRANCH   4  12
HETATM   12  C   UNL     1     -10.147  12.861  67.976  1.00  0.00    -0.235 C  
HETATM   13  C   UNL     1     -10.903  12.466  66.675  1.00  0.00    -0.281 C  
HETATM   14  C   UNL     1      -9.928  11.862  65.658  1.00  0.00    -0.241 C  
HETATM   15  N   UNL     1      -9.286  10.627  66.128  1.00  0.00    -0.167 NA 
HETATM   16  C   UNL     1      -8.604  10.872  67.413  1.00  0.00    -0.127 C  
HETATM   17  C   UNL     1      -9.504  11.525  68.464  1.00  0.00    -0.175 C  
BRANCH  12  18
HETATM   18  C   UNL     1     -11.139  13.226  69.109  1.00  0.00    -0.209 C  
HETATM   19  O   UNL     1     -11.055  14.222  69.817  1.00  0.00    -0.221 OA 
BRANCH  18  20
HETATM   20  O   UNL     1     -12.158  12.316  69.196  1.00  0.00    -0.264 OA 
HETATM   21  C   UNL     1     -12.038  11.363  70.249  1.00  0.00    -0.374 C  
ENDBRANCH  18  20
ENDBRANCH  12  18
BRANCH  15  22
HETATM   22  C   UNL     1     -10.193   9.465  66.214  1.00  0.00    -0.214 C  
BRANCH  22  23
HETATM   23  C   UNL     1      -9.583   8.248  66.915  1.00  0.00    -0.269 C  
BRANCH  23  24
HETATM   24  C   UNL     1     -10.674   7.335  67.411  1.00  0.00    -0.288 C  
HETATM   25  O   UNL     1     -11.367   6.613  66.708  1.00  0.00    -0.270 OA 
BRANCH  24  26
HETATM   26  O   UNL     1     -10.752   7.406  68.771  1.00  0.00    -0.194 OA 
HETATM   27  C   UNL     1     -11.367   6.265  69.363  1.00  0.00    -0.378 C  
ENDBRANCH  24  26
ENDBRANCH  23  24
ENDBRANCH  22  23
ENDBRANCH  15  22
ENDBRANCH   4  12
ENDBRANCH   2   3
TORSDOF 9
ENDMDL
MODEL      168
REMARK 921   NORMALIZED FREE ENERGY PREDICTED BY IDOCK:   -2.79 KCAL/MOL
REMARK 922        TOTAL FREE ENERGY PREDICTED BY IDOCK:   -4.45 KCAL/MOL
REMARK 923 INTER-LIGAND FREE ENERGY PREDICTED BY IDOCK:   -6.51 KCAL/MOL
REMARK 924 INTRA-LIGAND FREE ENERGY PREDICTED BY IDOCK:    2.06 KCAL/MOL
REMARK 927      BINDING AFFINITY PREDICTED BY RF-SCORE:    0.00 PKD
ROOT
HETATM    1  C   UNL     1     -13.104  13.809  65.310  1.00  0.00    -0.193 C  
HETATM    2  C   UNL     1     -11.904  14.369  64.560  1.00  0.00    -0.463 C  
ENDROOT
BRANCH   2   3
HETATM    3  C   UNL     1     -11.009  15.189  65.486  1.00  0.00    -0.365 C  
HETATM    4  N   UNL     1     -10.267  14.532  66.481  1.00  0.00    -0.273 N  
HETATM    5  O   UNL     1     -10.973  16.411  65.320  1.00  0.00    -0.308 OA 
BRANCH   4   6
HETATM    6  C   UNL     1     -10.308  13.089  66.601  1.00  0.00    -0.260 A  
HETATM    7  C   UNL     1      -9.171  12.284  66.410  1.00  0.00    -0.203 A  
HETATM    8  C   UNL     1      -9.232  10.894  66.558  1.00  0.00    -0.189 A  
HETATM    9  C   UNL     1     -11.517  12.446  66.897  1.00  0.00    -0.423 A  
HETATM   10  C   UNL     1     -10.432  10.279  66.887  1.00  0.00    -0.291 A  
HETATM   11  C   UNL     1     -11.578  11.052  67.046  1.00  0.00     0.135 A  
ENDBRANCH   4   6
BRANCH   4  12
HETATM   12  C   UNL     1      -9.672  15.332  67.646  1.00  0.00    -0.208 C  
HETATM   13  C   UNL     1     -10.660  16.439  68.113  1.00  0.00    -0.318 C  
HETATM   14  C   UNL     1     -11.892  15.806  68.769  1.00  0.00    -0.309 C  
HETATM   15  N   UNL     1     -11.578  15.028  69.974  1.00  0.00    -0.268 NA 
HETATM   16  C   UNL     1     -10.574  13.994  69.657  1.00  0.00     0.186 C  
HETATM   17  C   UNL     1      -9.335  14.546  68.951  1.00  0.00    -0.136 C  
BRANCH  12  18
HETATM   18  C   UNL     1      -8.311  15.941  67.223  1.00  0.00    -0.186 C  
HETATM   19  O   UNL     1      -8.076  16.427  66.123  1.00  0.00    -0.314 OA 
BRANCH  18  20
HETATM   20  O   UNL     1      -7.407  15.913  68.250  1.00  0.00    -0.119 OA 
HETATM   21  C   UNL     1      -6.105  15.449  67.905  1.00  0.00    -0.150 C  
ENDBRANCH  18  20
ENDBRANCH  12  18
BRANCH  15  22
HETATM   22  C   UNL     1     -11.162  15.844  71.133  1.00  0.00    -0.306 C  
BRANCH  22  23
HETATM   23  C   UNL     1     -12.304  16.199  72.088  1.00  0.00    -0.503 C  
BRANCH  23  24
HETATM   24  C   UNL     1     -13.276  15.052  72.185  1.00  0.00    -0.368 C  
HETATM   25  O   UNL     1     -14.401  15.037  71.706  1.00  0.00    -0.475 OA 
BRANCH  24  26
HETATM   26  O   UNL     1     -12.700  14.015  72.857  1.00  0.00    -0.311 OA 
HETATM   27  C   UNL     1     -12.537  12.844  72.061  1.00  0.00     0.106 C  
ENDBRANCH  24  26
ENDBRANCH  23  24
ENDBRANCH  22  23
ENDBRANCH  15  22
ENDBRANCH   4  12
ENDBRANCH   2   3
TORSDOF 9
ENDMDL
MODEL      169
REMARK 921   NORMALIZED FREE ENERGY PREDICTED BY IDOCK:   -2.75 KCAL/MOL
REMARK 922        TOTAL FREE ENERGY PREDICTED BY IDOCK:   -4.38 KCAL/MOL
REMARK 923 INTER-LIGAND FREE ENERGY PREDICTED BY IDOCK:   -4.62 KCAL/MOL
REMARK 924 INTRA-LIGAND FREE ENERGY PREDICTED BY IDOCK:    0.24 KCAL/MOL
REMARK 927      BINDING AFFINITY PREDICTED BY RF-SCORE:    0.00 PKD
ROOT
HETATM    1  C   UNL     1      -9.867  10.369  64.052  1.00  0.00    -0.355 C  
HETATM    2  C   UNL     1     -10.268  10.686  65.485  1.00  0.00    -0.329 C  
ENDROOT
BRANCH   2   3
HETATM    3  C   UNL     1      -9.652   9.689  66.464  1.00  0.00    -0.196 C  
HETATM    4  N   UNL     1      -9.763   9.924  67.844  1.00  0.00    -0.139 N  
HETATM    5  O   UNL     1      -9.074   8.704  65.997  1.00  0.00    -0.179 OA 
BRANCH   4   6
HETATM    6  C   UNL     1     -10.495  11.071  68.340  1.00  0.00    -0.180 A  
HETATM    7  C   UNL     1     -11.808  10.972  68.833  1.00  0.00    -0.378 A  
HETATM    8  C   UNL     1     -12.484  12.092  69.332  1.00  0.00     0.164 A  
HETATM    9  C   UNL     1      -9.903  12.341  68.321  1.00  0.00    -0.217 A  
HETATM   10  C   UNL     1     -11.866  13.335  69.337  1.00  0.00    -0.386 A  
HETATM   11  C   UNL     1     -10.579  13.464  68.822  1.00  0.00    -0.230 A  
ENDBRANCH   4   6
BRANCH   4  12
HETATM   12  C   UNL     1      -8.853   9.175  68.825  1.00  0.00    -0.132 C  
HETATM   13  C   UNL     1      -9.623   8.825  70.130  1.00  0.00    -0.187 C  
HETATM   14  C   UNL     1     -10.703   7.774  69.843  1.00  0.00    -0.245 C  
HETATM   15  N   UNL     1     -10.162   6.500  69.354  1.00  0.00    -0.175 NA 
HETATM   16  C   UNL     1      -9.335   6.732  68.154  1.00  0.00    -0.122 C  
HETATM   17  C   UNL     1      -8.267   7.809  68.349  1.00  0.00    -0.124 C  
BRANCH  12  18
HETATM   18  C   UNL     1      -7.596  10.027  69.130  1.00  0.00    -0.096 C  
HETATM   19  O   UNL     1      -7.324  10.501  70.227  1.00  0.00    -0.206 OA 
BRANCH  18  20
HETATM   20  O   UNL     1      -6.794  10.152  68.029  1.00  0.00    -0.069 OA 
HETATM   21  C   UNL     1      -5.394  10.191  68.293  1.00  0.00    -0.035 C  
ENDBRANCH  18  20
ENDBRANCH  12  18
BRANCH  15  22
HETATM   22  C   UNL     1      -9.425   5.722  70.371  1.00  0.00    -0.166 C  
BRANCH  22  23
HETATM   23  C   UNL     1      -9.688   4.215  70.316  1.00  0.00    -0.277 C  
BRANCH  23  24
HETATM   24  C   UNL     1      -8.492   3.500  69.745  1.00  0.00    -0.053 C  
HETATM   25  O   UNL     1      -7.341   3.916  69.769  1.00  0.00    -0.048 OA 
BRANCH  24  26
HETATM   26  O   UNL     1      -8.876   2.299  69.227  1.00  0.00    -0.074 OA 
HETATM   27  C   UNL     1      -9.366   2.388  67.892  1.00  0.00    -0.188 C  
ENDBRANCH  24  26
ENDBRANCH  23  24
ENDBRANCH  22  23
ENDBRANCH  15  22
ENDBRANCH   4  12
ENDBRANCH   2   3
TORSDOF 9
ENDMDL
MODEL      170
REMARK 921   NORMALIZED FREE ENERGY PREDICTED BY IDOCK:   -2.70 KCAL/MOL
REMARK 922        TOTAL FREE ENERGY PREDICTED BY IDOCK:   -4.31 KCAL/MOL
REMARK 923 INTER-LIGAND FREE ENERGY PREDICTED BY IDOCK:   -4.88 KCAL/MOL
REMARK 924 INTRA-LIGAND FREE ENERGY PREDICTED BY IDOCK:    0.57 KCAL/MOL
REMARK 927      BINDING AFFINITY PREDICTED BY RF-SCORE:    0.00 PKD
ROOT
HETATM    1  C   UNL     1      -9.774  18.685  70.008  1.00  0.00     1.064 C  
HETATM    2  C   UNL     1     -10.889  17.660  69.855  1.00  0.00     0.997 C  
ENDROOT
BRANCH   2   3
HETATM    3  C   UNL     1     -10.347  16.327  69.346  1.00  0.00    -0.278 C  
HETATM    4  N   UNL     1      -9.762  16.267  68.070  1.00  0.00    -0.228 N  
HETATM    5  O   UNL     1     -10.446  15.344  70.084  1.00  0.00    -0.297 OA 
BRANCH   4   6
HETATM    6  C   UNL     1      -9.627  17.462  67.263  1.00  0.00    -0.258 A  
HETATM    7  C   UNL     1     -10.736  18.142  66.731  1.00  0.00    -0.216 A  
HETATM    8  C   UNL     1     -10.580  19.311  65.977  1.00  0.00    -0.550 A  
HETATM    9  C   UNL     1      -8.353  17.969  66.971  1.00  0.00    -0.248 A  
HETATM   10  C   UNL     1      -9.310  19.816  65.729  1.00  0.00    -0.075 A  
HETATM   11  C   UNL     1      -8.195  19.140  66.216  1.00  0.00    -0.309 A  
ENDBRANCH   4   6
BRANCH   4  12
HETATM   12  C   UNL     1      -9.560  14.911  67.383  1.00  0.00    -0.206 C  
HETATM   13  C   UNL     1     -10.692  13.920  67.781  1.00  0.00    -0.252 C  
HETATM   14  C   UNL     1     -12.028  14.375  67.182  1.00  0.00    -0.389 C  
HETATM   15  N   UNL     1     -12.031  14.404  65.714  1.00  0.00    -0.372 NA 
HETATM   16  C   UNL     1     -10.930  15.257  65.226  1.00  0.00    -0.393 C  
HETATM   17  C   UNL     1      -9.569  14.895  65.823  1.00  0.00    -0.311 C  
BRANCH  12  18
HETATM   18  C   UNL     1      -8.167  14.340  67.748  1.00  0.00    -0.174 C  
HETATM   19  O   UNL     1      -7.969  13.449  68.565  1.00  0.00    -0.139 OA 
BRANCH  18  20
HETATM   20  O   UNL     1      -7.175  14.926  67.008  1.00  0.00    -0.148 OA 
HETATM   21  C   UNL     1      -5.872  14.875  67.583  1.00  0.00    -0.028 C  
ENDBRANCH  18  20
ENDBRANCH  12  18
BRANCH  15  22
HETATM   22  C   UNL     1     -11.999  13.071  65.080  1.00  0.00    -0.397 C  
BRANCH  22  23
HETATM   23  C   UNL     1     -11.306  13.045  63.715  1.00  0.00    -0.434 C  
BRANCH  23  24
HETATM   24  C   UNL     1     -10.382  11.859  63.625  1.00  0.00    -0.441 C  
HETATM   25  O   UNL     1      -9.846  11.456  62.602  1.00  0.00    -0.240 OA 
BRANCH  24  26
HETATM   26  O   UNL     1     -10.201  11.320  64.864  1.00  0.00    -0.251 OA 
HETATM   27  C   UNL     1      -9.684   9.991  64.834  1.00  0.00    -0.307 C  
ENDBRANCH  24  26
ENDBRANCH  23  24
ENDBRANCH  22  23
ENDBRANCH  15  22
ENDBRANCH   4  12
ENDBRANCH   2   3
TORSDOF 9
ENDMDL
MODEL      171
REMARK 921   NORMALIZED FREE ENERGY PREDICTED BY IDOCK:   -2.66 KCAL/MOL
REMARK 922        TOTAL FREE ENERGY PREDICTED BY IDOCK:   -4.24 KCAL/MOL
REMARK 923 INTER-LIGAND FREE ENERGY PREDICTED BY IDOCK:   -5.73 KCAL/MOL
REMARK 924 INTRA-LIGAND FREE ENERGY PREDICTED BY IDOCK:    1.49 KCAL/MOL
REMARK 927      BINDING AFFINITY PREDICTED BY RF-SCORE:    0.00 PKD
ROOT
HETATM    1  C   UNL     1     -13.045  13.214  72.038  1.00  0.00    -0.476 C  
HETATM    2  C   UNL     1     -12.349  12.706  70.783  1.00  0.00    -0.372 C  
ENDROOT
BRANCH   2   3
HETATM    3  C   UNL     1     -11.844  13.864  69.926  1.00  0.00    -0.328 C  
HETATM    4  N   UNL     1     -11.111  13.586  68.760  1.00  0.00    -0.255 N  
HETATM    5  O   UNL     1     -12.102  15.012  70.296  1.00  0.00    -0.287 OA 
BRANCH   4   6
HETATM    6  C   UNL     1     -10.877  12.218  68.345  1.00  0.00    -0.230 A  
HETATM    7  C   UNL     1     -10.060  11.337  69.075  1.00  0.00    -0.147 A  
HETATM    8  C   UNL     1      -9.871  10.012  68.667  1.00  0.00    -0.168 A  
HETATM    9  C   UNL     1     -11.459  11.735  67.165  1.00  0.00    -0.366 A  
HETATM   10  C   UNL     1     -10.486   9.544  67.513  1.00  0.00    -0.336 A  
HETATM   11  C   UNL     1     -11.271  10.407  66.755  1.00  0.00     0.136 A  
ENDBRANCH   4   6
BRANCH   4  12
HETATM   12  C   UNL     1     -10.278  14.689  68.097  1.00  0.00    -0.231 C  
HETATM   13  C   UNL     1      -9.855  15.761  69.142  1.00  0.00    -0.247 C  
HETATM   14  C   UNL     1      -8.848  15.166  70.133  1.00  0.00     0.590 C  
HETATM   15  N   UNL     1      -7.600  14.721  69.500  1.00  0.00    -0.133 NA 
HETATM   16  C   UNL     1      -7.897  13.756  68.424  1.00  0.00    -0.143 C  
HETATM   17  C   UNL     1      -8.937  14.262  67.423  1.00  0.00    -0.205 C  
BRANCH  12  18
HETATM   18  C   UNL     1     -11.084  15.329  66.938  1.00  0.00    -0.288 C  
HETATM   19  O   UNL     1     -10.714  16.294  66.280  1.00  0.00    -0.279 OA 
BRANCH  18  20
HETATM   20  O   UNL     1     -12.250  14.652  66.704  1.00  0.00    -0.317 OA 
HETATM   21  C   UNL     1     -12.385  14.100  65.397  1.00  0.00    -0.463 C  
ENDBRANCH  18  20
ENDBRANCH  12  18
BRANCH  15  22
HETATM   22  C   UNL     1      -6.740  15.820  69.014  1.00  0.00    -0.143 C  
BRANCH  22  23
HETATM   23  C   UNL     1      -6.569  15.852  67.493  1.00  0.00    -0.212 C  
BRANCH  23  24
HETATM   24  C   UNL     1      -6.759  17.255  66.979  1.00  0.00    -0.185 C  
HETATM   25  O   UNL     1      -7.571  18.062  67.410  1.00  0.00    -0.201 OA 
BRANCH  24  26
HETATM   26  O   UNL     1      -5.864  17.507  65.982  1.00  0.00    -0.193 OA 
HETATM   27  C   UNL     1      -6.237  18.600  65.147  1.00  0.00    -0.250 C  
ENDBRANCH  24  26
ENDBRANCH  23  24
ENDBRANCH  22  23
ENDBRANCH  15  22
ENDBRANCH   4  12
ENDBRANCH   2   3
TORSDOF 9
ENDMDL
MODEL      172
REMARK 921   NORMALIZED FREE ENERGY PREDICTED BY IDOCK:   -2.63 KCAL/MOL
REMARK 922        TOTAL FREE ENERGY PREDICTED BY IDOCK:   -4.20 KCAL/MOL
REMARK 923 INTER-LIGAND FREE ENERGY PREDICTED BY IDOCK:   -4.21 KCAL/MOL
REMARK 924 INTRA-LIGAND FREE ENERGY PREDICTED BY IDOCK:    0.01 KCAL/MOL
REMARK 927      BINDING AFFINITY PREDICTED BY RF-SCORE:    0.00 PKD
ROOT
HETATM    1  C   UNL     1      -6.309  11.636  68.904  1.00  0.00    -0.062 C  
HETATM    2  C   UNL     1      -7.397  11.035  69.781  1.00  0.00     0.051 C  
ENDROOT
BRANCH   2   3
HETATM    3  C   UNL     1      -7.530   9.533  69.543  1.00  0.00    -0.092 C  
HETATM    4  N   UNL     1      -8.584   9.055  68.746  1.00  0.00    -0.130 N  
HETATM    5  O   UNL     1      -6.697   8.789  70.066  1.00  0.00    -0.037 OA 
BRANCH   4   6
HETATM    6  C   UNL     1      -9.507   9.976  68.114  1.00  0.00    -0.138 A  
HETATM    7  C   UNL     1     -10.697  10.396  68.735  1.00  0.00    -0.255 A  
HETATM    8  C   UNL     1     -11.558  11.307  68.115  1.00  0.00    -0.359 A  
HETATM    9  C   UNL     1      -9.238  10.466  66.829  1.00  0.00    -0.176 A  
HETATM   10  C   UNL     1     -11.255  11.807  66.856  1.00  0.00    -0.387 A  
HETATM   11  C   UNL     1     -10.101  11.380  66.206  1.00  0.00    -0.263 A  
ENDBRANCH   4   6
BRANCH   4  12
HETATM   12  C   UNL     1      -8.971   7.572  68.795  1.00  0.00    -0.129 C  
HETATM   13  C   UNL     1     -10.046   7.249  67.718  1.00  0.00    -0.225 C  
HETATM   14  C   UNL     1      -9.442   7.366  66.314  1.00  0.00    -0.081 C  
HETATM   15  N   UNL     1      -8.346   6.419  66.070  1.00  0.00    -0.126 NA 
HETATM   16  C   UNL     1      -7.300   6.584  67.097  1.00  0.00    -0.086 C  
HETATM   17  C   UNL     1      -7.839   6.532  68.528  1.00  0.00    -0.106 C  
BRANCH  12  18
HETATM   18  C   UNL     1      -9.476   7.209  70.214  1.00  0.00    -0.162 C  
HETATM   19  O   UNL     1      -8.833   6.575  71.043  1.00  0.00    -0.138 OA 
BRANCH  18  20
HETATM   20  O   UNL     1     -10.721   7.724  70.451  1.00  0.00    -0.227 OA 
HETATM   21  C   UNL     1     -11.680   6.798  70.954  1.00  0.00    -0.372 C  
ENDBRANCH  18  20
ENDBRANCH  12  18
BRANCH  15  22
HETATM   22  C   UNL     1      -8.774   5.010  65.961  1.00  0.00    -0.127 C  
BRANCH  22  23
HETATM   23  C   UNL     1      -8.888   4.502  64.521  1.00  0.00    -0.151 C  
BRANCH  23  24
HETATM   24  C   UNL     1      -8.833   2.997  64.496  1.00  0.00    -0.108 C  
HETATM   25  O   UNL     1      -7.829   2.322  64.678  1.00  0.00    -0.071 OA 
BRANCH  24  26
HETATM   26  O   UNL     1     -10.081   2.494  64.275  1.00  0.00    -0.100 OA 
HETATM   27  C   UNL     1     -10.497   2.587  62.914  1.00  0.00    -0.152 C  
ENDBRANCH  24  26
ENDBRANCH  23  24
ENDBRANCH  22  23
ENDBRANCH  15  22
ENDBRANCH   4  12
ENDBRANCH   2   3
TORSDOF 9
ENDMDL
MODEL      173
REMARK 921   NORMALIZED FREE ENERGY PREDICTED BY IDOCK:   -2.60 KCAL/MOL
REMARK 922        TOTAL FREE ENERGY PREDICTED BY IDOCK:   -4.16 KCAL/MOL
REMARK 923 INTER-LIGAND FREE ENERGY PREDICTED BY IDOCK:   -4.07 KCAL/MOL
REMARK 924 INTRA-LIGAND FREE ENERGY PREDICTED BY IDOCK:   -0.09 KCAL/MOL
REMARK 927      BINDING AFFINITY PREDICTED BY RF-SCORE:    0.00 PKD
ROOT
HETATM    1  C   UNL     1     -11.644   8.683  72.287  1.00  0.00    -0.424 C  
HETATM    2  C   UNL     1     -11.113   8.558  70.866  1.00  0.00    -0.295 C  
ENDROOT
BRANCH   2   3
HETATM    3  C   UNL     1     -10.919   7.094  70.477  1.00  0.00    -0.262 C  
HETATM    4  N   UNL     1      -9.646   6.513  70.603  1.00  0.00    -0.172 N  
HETATM    5  O   UNL     1     -11.900   6.472  70.062  1.00  0.00    -0.404 OA 
BRANCH   4   6
HETATM    6  C   UNL     1      -8.538   7.274  71.142  1.00  0.00    -0.130 A  
HETATM    7  C   UNL     1      -7.953   8.348  70.449  1.00  0.00    -0.099 A  
HETATM    8  C   UNL     1      -6.900   9.085  71.004  1.00  0.00    -0.092 A  
HETATM    9  C   UNL     1      -7.998   6.936  72.391  1.00  0.00    -0.096 A  
HETATM   10  C   UNL     1      -6.403   8.755  72.258  1.00  0.00    -0.051 A  
HETATM   11  C   UNL     1      -6.944   7.674  72.948  1.00  0.00    -0.079 A  
ENDBRANCH   4   6
BRANCH   4  12
HETATM   12  C   UNL     1      -9.329   5.198  69.882  1.00  0.00    -0.143 C  
HETATM   13  C   UNL     1     -10.124   5.098  68.549  1.00  0.00    -0.214 C  
HETATM   14  C   UNL     1      -9.608   6.134  67.545  1.00  0.00    -0.112 C  
HETATM   15  N   UNL     1      -8.199   5.939  67.176  1.00  0.00    -0.105 NA 
HETATM   16  C   UNL     1      -7.359   5.932  68.389  1.00  0.00    -0.084 C  
HETATM   17  C   UNL     1      -7.846   4.956  69.461  1.00  0.00    -0.067 C  
BRANCH  12  18
HETATM   18  C   UNL     1      -9.647   4.000  70.812  1.00  0.00    -0.193 C  
HETATM   19  O   UNL     1     -10.288   4.076  71.854  1.00  0.00    -0.133 OA 
BRANCH  18  20
HETATM   20  O   UNL     1      -9.161   2.826  70.303  1.00  0.00    -0.111 OA 
HETATM   21  C   UNL     1      -9.761   1.641  70.819  1.00  0.00    -0.053 C  
ENDBRANCH  18  20
ENDBRANCH  12  18
BRANCH  15  22
HETATM   22  C   UNL     1      -7.949   4.747  66.342  1.00  0.00    -0.103 C  
BRANCH  22  23
HETATM   23  C   UNL     1      -8.579   4.816  64.948  1.00  0.00    -0.145 C  
BRANCH  23  24
HETATM   24  C   UNL     1      -8.429   3.493  64.244  1.00  0.00    -0.090 C  
HETATM   25  O   UNL     1      -7.616   2.626  64.534  1.00  0.00    -0.072 OA 
BRANCH  24  26
HETATM   26  O   UNL     1      -9.360   3.389  63.254  1.00  0.00    -0.095 OA 
HETATM   27  C   UNL     1     -10.657   3.832  63.647  1.00  0.00    -0.246 C  
ENDBRANCH  24  26
ENDBRANCH  23  24
ENDBRANCH  22  23
ENDBRANCH  15  22
ENDBRANCH   4  12
ENDBRANCH   2   3
TORSDOF 9
ENDMDL
MODEL      174
REMARK 921   NORMALIZED FREE ENERGY PREDICTED BY IDOCK:   -2.57 KCAL/MOL
REMARK 922        TOTAL FREE ENERGY PREDICTED BY IDOCK:   -4.11 KCAL/MOL
REMARK 923 INTER-LIGAND FREE ENERGY PREDICTED BY IDOCK:   -5.56 KCAL/MOL
REMARK 924 INTRA-LIGAND FREE ENERGY PREDICTED BY IDOCK:    1.45 KCAL/MOL
REMARK 927      BINDING AFFINITY PREDICTED BY RF-SCORE:    0.00 PKD
ROOT
HETATM    1  C   UNL     1     -10.316  20.194  66.028  1.00  0.00    -0.483 C  
HETATM    2  C   UNL     1      -8.958  19.526  66.189  1.00  0.00    -0.342 C  
ENDROOT
BRANCH   2   3
HETATM    3  C   UNL     1      -9.107  18.031  66.459  1.00  0.00    -0.269 C  
HETATM    4  N   UNL     1      -8.507  17.478  67.602  1.00  0.00    -0.213 N  
HETATM    5  O   UNL     1      -9.756  17.361  65.652  1.00  0.00    -0.533 OA 
BRANCH   4   6
HETATM    6  C   UNL     1      -7.797  18.318  68.543  1.00  0.00    -0.298 A  
HETATM    7  C   UNL     1      -6.415  18.193  68.773  1.00  0.00    -0.221 A  
HETATM    8  C   UNL     1      -5.747  19.036  69.668  1.00  0.00    -0.249 A  
HETATM    9  C   UNL     1      -8.491  19.288  69.279  1.00  0.00    -0.040 A  
HETATM   10  C   UNL     1      -6.449  20.013  70.361  1.00  0.00    -0.264 A  
HETATM   11  C   UNL     1      -7.823  20.134  70.176  1.00  0.00     0.938 A  
ENDBRANCH   4   6
BRANCH   4  12
HETATM   12  C   UNL     1      -8.311  15.960  67.706  1.00  0.00    -0.150 C  
HETATM   13  C   UNL     1      -8.433  15.491  69.184  1.00  0.00    -0.248 C  
HETATM   14  C   UNL     1      -9.877  15.651  69.673  1.00  0.00    -0.280 C  
HETATM   15  N   UNL     1     -10.842  14.837  68.923  1.00  0.00    -0.245 NA 
HETATM   16  C   UNL     1     -10.748  15.146  67.483  1.00  0.00    -0.284 C  
HETATM   17  C   UNL     1      -9.323  15.058  66.934  1.00  0.00    -0.258 C  
BRANCH  12  18
HETATM   18  C   UNL     1      -6.938  15.567  67.107  1.00  0.00    -0.090 C  
HETATM   19  O   UNL     1      -6.326  14.540  67.378  1.00  0.00    -0.322 OA 
BRANCH  18  20
HETATM   20  O   UNL     1      -6.504  16.491  66.195  1.00  0.00     0.014 OA 
HETATM   21  C   UNL     1      -5.159  16.931  66.363  1.00  0.00     0.103 C  
ENDBRANCH  18  20
ENDBRANCH  12  18
BRANCH  15  22
HETATM   22  C   UNL     1     -10.733  13.385  69.169  1.00  0.00    -0.060 C  
BRANCH  22  23
HETATM   23  C   UNL     1     -11.980  12.764  69.805  1.00  0.00    -0.362 C  
BRANCH  23  24
HETATM   24  C   UNL     1     -11.793  11.279  69.970  1.00  0.00    -0.367 C  
HETATM   25  O   UNL     1     -10.748  10.672  69.782  1.00  0.00    -0.256 OA 
BRANCH  24  26
HETATM   26  O   UNL     1     -12.958  10.712  70.397  1.00  0.00    -0.304 OA 
HETATM   27  C   UNL     1     -12.941  10.353  71.777  1.00  0.00    -0.475 C  
ENDBRANCH  24  26
ENDBRANCH  23  24
ENDBRANCH  22  23
ENDBRANCH  15  22
ENDBRANCH   4  12
ENDBRANCH   2   3
TORSDOF 9
ENDMDL
MODEL      175
REMARK 921   NORMALIZED FREE ENERGY PREDICTED BY IDOCK:   -2.57 KCAL/MOL
REMARK 922        TOTAL FREE ENERGY PREDICTED BY IDOCK:   -4.10 KCAL/MOL
REMARK 923 INTER-LIGAND FREE ENERGY PREDICTED BY IDOCK:   -3.90 KCAL/MOL
REMARK 924 INTRA-LIGAND FREE ENERGY PREDICTED BY IDOCK:   -0.20 KCAL/MOL
REMARK 927      BINDING AFFINITY PREDICTED BY RF-SCORE:    0.00 PKD
ROOT
HETATM    1  C   UNL     1     -10.996   6.323  66.976  1.00  0.00    -0.442 C  
HETATM    2  C   UNL     1     -10.472   5.874  68.332  1.00  0.00    -0.294 C  
ENDROOT
BRANCH   2   3
HETATM    3  C   UNL     1      -8.997   6.229  68.499  1.00  0.00    -0.123 C  
HETATM    4  N   UNL     1      -8.568   6.839  69.690  1.00  0.00    -0.133 N  
HETATM    5  O   UNL     1      -8.231   5.963  67.569  1.00  0.00    -0.105 OA 
BRANCH   4   6
HETATM    6  C   UNL     1      -9.501   7.086  70.770  1.00  0.00    -0.161 A  
HETATM    7  C   UNL     1      -9.449   6.382  71.986  1.00  0.00    -0.154 A  
HETATM    8  C   UNL     1     -10.346   6.657  73.024  1.00  0.00    -0.244 A  
HETATM    9  C   UNL     1     -10.514   8.041  70.616  1.00  0.00    -0.219 A  
HETATM   10  C   UNL     1     -11.320   7.634  72.863  1.00  0.00    -0.394 A  
HETATM   11  C   UNL     1     -11.413   8.319  71.656  1.00  0.00    -0.333 A  
ENDBRANCH   4   6
BRANCH   4  12
HETATM   12  C   UNL     1      -7.207   7.543  69.743  1.00  0.00    -0.080 C  
HETATM   13  C   UNL     1      -6.873   8.197  68.371  1.00  0.00    -0.068 C  
HETATM   14  C   UNL     1      -7.820   9.373  68.101  1.00  0.00    -0.087 C  
HETATM   15  N   UNL     1      -7.706  10.454  69.089  1.00  0.00    -0.114 NA 
HETATM   16  C   UNL     1      -7.922   9.918  70.447  1.00  0.00    -0.011 C  
HETATM   17  C   UNL     1      -7.047   8.707  70.770  1.00  0.00    -0.061 C  
BRANCH  12  18
HETATM   18  C   UNL     1      -6.109   6.532  70.159  1.00  0.00    -0.030 C  
HETATM   19  O   UNL     1      -5.448   5.858  69.378  1.00  0.00    -0.004 OA 
BRANCH  18  20
HETATM   20  O   UNL     1      -5.933   6.513  71.516  1.00  0.00    -0.035 OA 
HETATM   21  C   UNL     1      -5.262   5.365  72.030  1.00  0.00    -0.012 C  
ENDBRANCH  18  20
ENDBRANCH  12  18
BRANCH  15  22
HETATM   22  C   UNL     1      -6.446  11.220  69.008  1.00  0.00    -0.069 C  
BRANCH  22  23
HETATM   23  C   UNL     1      -6.275  12.004  67.704  1.00  0.00    -0.096 C  
BRANCH  23  24
HETATM   24  C   UNL     1      -7.231  13.167  67.668  1.00  0.00    -0.159 C  
HETATM   25  O   UNL     1      -7.082  14.224  68.266  1.00  0.00    -0.091 OA 
BRANCH  24  26
HETATM   26  O   UNL     1      -8.275  12.881  66.839  1.00  0.00    -0.124 OA 
HETATM   27  C   UNL     1      -9.283  13.890  66.828  1.00  0.00    -0.254 C  
ENDBRANCH  24  26
ENDBRANCH  23  24
ENDBRANCH  22  23
ENDBRANCH  15  22
ENDBRANCH   4  12
ENDBRANCH   2   3
TORSDOF 9
ENDMDL
MODEL      176
REMARK 921   NORMALIZED FREE ENERGY PREDICTED BY IDOCK:   -2.55 KCAL/MOL
REMARK 922        TOTAL FREE ENERGY PREDICTED BY IDOCK:   -4.08 KCAL/MOL
REMARK 923 INTER-LIGAND FREE ENERGY PREDICTED BY IDOCK:   -4.42 KCAL/MOL
REMARK 924 INTRA-LIGAND FREE ENERGY PREDICTED BY IDOCK:    0.34 KCAL/MOL
REMARK 927      BINDING AFFINITY PREDICTED BY RF-SCORE:    0.00 PKD
ROOT
HETATM    1  C   UNL     1     -10.427   4.651  65.985  1.00  0.00    -0.303 C  
HETATM    2  C   UNL     1     -10.889   5.936  66.657  1.00  0.00    -0.292 C  
ENDROOT
BRANCH   2   3
HETATM    3  C   UNL     1     -10.271   6.085  68.045  1.00  0.00    -0.181 C  
HETATM    4  N   UNL     1      -9.609   7.279  68.377  1.00  0.00    -0.139 N  
HETATM    5  O   UNL     1     -10.378   5.139  68.829  1.00  0.00    -0.166 OA 
BRANCH   4   6
HETATM    6  C   UNL     1      -9.554   8.379  67.435  1.00  0.00    -0.157 A  
HETATM    7  C   UNL     1     -10.586   9.327  67.322  1.00  0.00    -0.303 A  
HETATM    8  C   UNL     1     -10.496  10.395  66.422  1.00  0.00    -0.246 A  
HETATM    9  C   UNL     1      -8.451   8.514  66.581  1.00  0.00    -0.116 A  
HETATM   10  C   UNL     1      -9.378  10.530  65.610  1.00  0.00    -0.242 A  
HETATM   11  C   UNL     1      -8.360   9.585  65.680  1.00  0.00    -0.131 A  
ENDBRANCH   4   6
BRANCH   4  12
HETATM   12  C   UNL     1      -8.668   7.323  69.587  1.00  0.00    -0.141 C  
HETATM   13  C   UNL     1      -8.760   8.700  70.304  1.00  0.00    -0.151 C  
HETATM   14  C   UNL     1     -10.131   8.859  70.972  1.00  0.00    -0.255 C  
HETATM   15  N   UNL     1     -10.394   7.856  72.013  1.00  0.00    -0.211 NA 
HETATM   16  C   UNL     1     -10.247   6.499  71.452  1.00  0.00    -0.197 C  
HETATM   17  C   UNL     1      -8.920   6.283  70.722  1.00  0.00    -0.144 C  
BRANCH  12  18
HETATM   18  C   UNL     1      -7.217   7.027  69.133  1.00  0.00    -0.090 C  
HETATM   19  O   UNL     1      -6.833   5.957  68.673  1.00  0.00    -0.061 OA 
BRANCH  18  20
HETATM   20  O   UNL     1      -6.414   8.127  69.267  1.00  0.00    -0.038 OA 
HETATM   21  C   UNL     1      -5.201   7.915  69.984  1.00  0.00    -0.023 C  
ENDBRANCH  18  20
ENDBRANCH  12  18
BRANCH  15  22
HETATM   22  C   UNL     1      -9.582   8.023  73.235  1.00  0.00    -0.252 C  
BRANCH  22  23
HETATM   23  C   UNL     1      -8.928   6.731  73.732  1.00  0.00    -0.171 C  
BRANCH  23  24
HETATM   24  C   UNL     1      -7.508   6.998  74.156  1.00  0.00    -0.106 C  
HETATM   25  O   UNL     1      -7.080   8.070  74.561  1.00  0.00    -0.136 OA 
BRANCH  24  26
HETATM   26  O   UNL     1      -6.773   5.853  74.055  1.00  0.00    -0.077 OA 
HETATM   27  C   UNL     1      -7.566   4.689  73.831  1.00  0.00    -0.089 C  
ENDBRANCH  24  26
ENDBRANCH  23  24
ENDBRANCH  22  23
ENDBRANCH  15  22
ENDBRANCH   4  12
ENDBRANCH   2   3
TORSDOF 9
ENDMDL
MODEL      177
REMARK 921   NORMALIZED FREE ENERGY PREDICTED BY IDOCK:   -2.12 KCAL/MOL
REMARK 922        TOTAL FREE ENERGY PREDICTED BY IDOCK:   -3.42 KCAL/MOL
REMARK 923 INTER-LIGAND FREE ENERGY PREDICTED BY IDOCK:   -5.36 KCAL/MOL
REMARK 924 INTRA-LIGAND FREE ENERGY PREDICTED BY IDOCK:    1.94 KCAL/MOL
REMARK 927      BINDING AFFINITY PREDICTED BY RF-SCORE:    0.00 PKD
ROOT
HETATM    1  C   UNL     1      -7.325   6.458  71.541  1.00  0.00    -0.088 C  
HETATM    2  C   UNL     1      -8.682   6.790  70.936  1.00  0.00    -0.142 C  
ENDROOT
BRANCH   2   3
HETATM    3  C   UNL     1      -8.633   8.104  70.160  1.00  0.00    -0.129 C  
HETATM    4  N   UNL     1      -8.880   8.094  68.777  1.00  0.00    -0.138 N  
HETATM    5  O   UNL     1      -8.374   9.135  70.787  1.00  0.00    -0.180 OA 
BRANCH   4   6
HETATM    6  C   UNL     1      -9.227   6.862  68.099  1.00  0.00    -0.126 A  
HETATM    7  C   UNL     1      -8.640   5.628  68.429  1.00  0.00    -0.111 A  
HETATM    8  C   UNL     1      -9.012   4.448  67.776  1.00  0.00    -0.136 A  
HETATM    9  C   UNL     1     -10.166   6.877  67.059  1.00  0.00    -0.317 A  
HETATM   10  C   UNL     1      -9.971   4.479  66.772  1.00  0.00    -0.240 A  
HETATM   11  C   UNL     1     -10.541   5.694  66.404  1.00  0.00    -0.254 A  
ENDBRANCH   4   6
BRANCH   4  12
HETATM   12  C   UNL     1      -8.473   9.297  67.918  1.00  0.00    -0.117 C  
HETATM   13  C   UNL     1      -9.424   9.444  66.695  1.00  0.00    -0.230 C  
HETATM   14  C   UNL     1     -10.826   9.855  67.161  1.00  0.00    -0.157 C  
HETATM   15  N   UNL     1     -10.857  11.157  67.841  1.00  0.00    -0.217 NA 
HETATM   16  C   UNL     1      -9.916  11.153  68.977  1.00  0.00    -0.137 C  
HETATM   17  C   UNL     1      -8.505  10.701  68.598  1.00  0.00    -0.142 C  
BRANCH  12  18
HETATM   18  C   UNL     1      -7.001   9.142  67.463  1.00  0.00    -0.078 C  
HETATM   19  O   UNL     1      -6.086   8.749  68.178  1.00  0.00    -0.049 OA 
BRANCH  18  20
HETATM   20  O   UNL     1      -6.848   9.456  66.139  1.00  0.00    -0.083 OA 
HETATM   21  C   UNL     1      -5.502   9.512  65.675  1.00  0.00    -0.044 C  
ENDBRANCH  18  20
ENDBRANCH  12  18
BRANCH  15  22
HETATM   22  C   UNL     1     -10.621  12.312  66.952  1.00  0.00    -0.224 C  
BRANCH  22  23
HETATM   23  C   UNL     1     -11.883  13.114  66.621  1.00  0.00    -0.449 C  
BRANCH  23  24
HETATM   24  C   UNL     1     -11.887  13.496  65.164  1.00  0.00    -0.343 C  
HETATM   25  O   UNL     1     -12.884  13.590  64.460  1.00  0.00    -0.645 OA 
BRANCH  24  26
HETATM   26  O   UNL     1     -10.614  13.757  64.752  1.00  0.00    -0.386 OA 
HETATM   27  C   UNL     1     -10.234  15.121  64.915  1.00  0.00    -0.196 C  
ENDBRANCH  24  26
ENDBRANCH  23  24
ENDBRANCH  22  23
ENDBRANCH  15  22
ENDBRANCH   4  12
ENDBRANCH   2   3
TORSDOF 9
ENDMDL
MODEL      178
REMARK 921   NORMALIZED FREE ENERGY PREDICTED BY IDOCK:   -1.37 KCAL/MOL
REMARK 922        TOTAL FREE ENERGY PREDICTED BY IDOCK:   -2.27 KCAL/MOL
REMARK 923 INTER-LIGAND FREE ENERGY PREDICTED BY IDOCK:   -2.25 KCAL/MOL
REMARK 924 INTRA-LIGAND FREE ENERGY PREDICTED BY IDOCK:   -0.03 KCAL/MOL
REMARK 927      BINDING AFFINITY PREDICTED BY RF-SCORE:    0.00 PKD
ROOT
HETATM    1  C   UNL     1     -11.222   6.640  66.843  1.00  0.00    -0.178 C  
HETATM    2  C   UNL     1     -11.005   7.123  68.270  1.00  0.00    -0.092 C  
ENDROOT
BRANCH   2   3
HETATM    3  C   UNL     1      -9.891   6.334  68.955  1.00  0.00    -0.143 C  
HETATM    4  N   UNL     1      -8.620   6.916  69.087  1.00  0.00    -0.128 N  
HETATM    5  O   UNL     1     -10.156   5.203  69.371  1.00  0.00    -0.205 OA 
BRANCH   4   6
HETATM    6  C   UNL     1      -8.375   8.267  68.625  1.00  0.00    -0.125 A  
HETATM    7  C   UNL     1      -7.675   8.543  67.437  1.00  0.00    -0.098 A  
HETATM    8  C   UNL     1      -7.475   9.856  66.999  1.00  0.00    -0.091 A  
HETATM    9  C   UNL     1      -8.825   9.358  69.381  1.00  0.00    -0.159 A  
HETATM   10  C   UNL     1      -7.960  10.922  67.745  1.00  0.00    -0.111 A  
HETATM   11  C   UNL     1      -8.626  10.675  68.942  1.00  0.00    -0.158 A  
ENDBRANCH   4   6
BRANCH   4  12
HETATM   12  C   UNL     1      -7.405   6.038  69.413  1.00  0.00    -0.079 C  
HETATM   13  C   UNL     1      -6.276   6.885  70.068  1.00  0.00    -0.031 C  
HETATM   14  C   UNL     1      -6.706   7.351  71.464  1.00  0.00    -0.050 C  
HETATM   15  N   UNL     1      -6.958   6.245  72.397  1.00  0.00    -0.077 NA 
HETATM   16  C   UNL     1      -7.963   5.326  71.828  1.00  0.00    -0.112 C  
HETATM   17  C   UNL     1      -7.627   4.859  70.411  1.00  0.00    -0.059 C  
BRANCH  12  18
HETATM   18  C   UNL     1      -6.902   5.340  68.125  1.00  0.00    -0.060 C  
HETATM   19  O   UNL     1      -5.740   5.012  67.916  1.00  0.00    -0.016 OA 
BRANCH  18  20
HETATM   20  O   UNL     1      -7.929   5.089  67.256  1.00  0.00    -0.098 OA 
HETATM   21  C   UNL     1      -8.082   3.727  66.867  1.00  0.00    -0.095 C  
ENDBRANCH  18  20
ENDBRANCH  12  18
BRANCH  15  22
HETATM   22  C   UNL     1      -5.744   5.518  72.820  1.00  0.00    -0.023 C  
BRANCH  22  23
HETATM   23  C   UNL     1      -5.973   4.539  73.975  1.00  0.00    -0.025 C  
BRANCH  23  24
HETATM   24  C   UNL     1      -5.820   3.121  73.492  1.00  0.00     0.000 C  
HETATM   25  O   UNL     1      -5.459   2.791  72.370  1.00  0.00    -0.003 OA 
BRANCH  24  26
HETATM   26  O   UNL     1      -6.111   2.255  74.503  1.00  0.00    -0.004 OA 
HETATM   27  C   UNL     1      -7.341   1.558  74.318  1.00  0.00    -0.028 C  
ENDBRANCH  24  26
ENDBRANCH  23  24
ENDBRANCH  22  23
ENDBRANCH  15  22
ENDBRANCH   4  12
ENDBRANCH   2   3
TORSDOF 9
ENDMDL
MODEL      179
REMARK 921   NORMALIZED FREE ENERGY PREDICTED BY IDOCK:   -1.11 KCAL/MOL
REMARK 922        TOTAL FREE ENERGY PREDICTED BY IDOCK:   -1.87 KCAL/MOL
REMARK 923 INTER-LIGAND FREE ENERGY PREDICTED BY IDOCK:   -3.84 KCAL/MOL
REMARK 924 INTRA-LIGAND FREE ENERGY PREDICTED BY IDOCK:    1.97 KCAL/MOL
REMARK 927      BINDING AFFINITY PREDICTED BY RF-SCORE:    0.00 PKD
ROOT
HETATM    1  C   UNL     1      -5.152  14.695  70.593  1.00  0.00    -0.117 C  
HETATM    2  C   UNL     1      -6.547  14.957  70.044  1.00  0.00    -0.162 C  
ENDROOT
BRANCH   2   3
HETATM    3  C   UNL     1      -7.101  13.724  69.335  1.00  0.00     0.052 C  
HETATM    4  N   UNL     1      -8.089  13.885  68.349  1.00  0.00    -0.142 N  
HETATM    5  O   UNL     1      -6.653  12.621  69.660  1.00  0.00    -0.088 OA 
BRANCH   4   6
HETATM    6  C   UNL     1      -8.545  15.206  67.971  1.00  0.00    -0.156 A  
HETATM    7  C   UNL     1      -8.241  15.781  66.725  1.00  0.00    -0.302 A  
HETATM    8  C   UNL     1      -8.716  17.049  66.373  1.00  0.00    -0.308 A  
HETATM    9  C   UNL     1      -9.303  15.969  68.869  1.00  0.00    -0.231 A  
HETATM   10  C   UNL     1      -9.496  17.774  67.265  1.00  0.00    -0.255 A  
HETATM   11  C   UNL     1      -9.782  17.240  68.518  1.00  0.00    -0.296 A  
ENDBRANCH   4   6
BRANCH   4  12
HETATM   12  C   UNL     1      -8.925  12.681  67.899  1.00  0.00    -0.189 C  
HETATM   13  C   UNL     1      -8.553  12.267  66.446  1.00  0.00     0.037 C  
HETATM   14  C   UNL     1      -7.133  11.691  66.407  1.00  0.00     0.139 C  
HETATM   15  N   UNL     1      -6.974  10.474  67.214  1.00  0.00    -0.085 NA 
HETATM   16  C   UNL     1      -7.386  10.736  68.606  1.00  0.00    -0.097 C  
HETATM   17  C   UNL     1      -8.776  11.363  68.722  1.00  0.00    -0.080 C  
BRANCH  12  18
HETATM   18  C   UNL     1     -10.433  13.017  68.014  1.00  0.00    -0.228 C  
HETATM   19  O   UNL     1     -11.103  12.882  69.031  1.00  0.00    -0.251 OA 
BRANCH  18  20
HETATM   20  O   UNL     1     -10.923  13.531  66.844  1.00  0.00    -0.283 OA 
HETATM   21  C   UNL     1     -12.265  13.166  66.530  1.00  0.00    -0.291 C  
ENDBRANCH  18  20
ENDBRANCH  12  18
BRANCH  15  22
HETATM   22  C   UNL     1      -7.660   9.287  66.666  1.00  0.00    -0.093 C  
BRANCH  22  23
HETATM   23  C   UNL     1      -7.553   9.151  65.145  1.00  0.00    -0.098 C  
BRANCH  23  24
HETATM   24  C   UNL     1      -7.490   7.697  64.757  1.00  0.00    -0.094 C  
HETATM   25  O   UNL     1      -8.402   6.891  64.882  1.00  0.00    -0.112 OA 
BRANCH  24  26
HETATM   26  O   UNL     1      -6.273   7.417  64.210  1.00  0.00    -0.040 OA 
HETATM   27  C   UNL     1      -5.682   8.530  63.543  1.00  0.00    -0.071 C  
ENDBRANCH  24  26
ENDBRANCH  23  24
ENDBRANCH  22  23
ENDBRANCH  15  22
ENDBRANCH   4  12
ENDBRANCH   2   3
TORSDOF 9
ENDMDL
MODEL      180
REMARK 921   NORMALIZED FREE ENERGY PREDICTED BY IDOCK:   -1.04 KCAL/MOL
REMARK 922        TOTAL FREE ENERGY PREDICTED BY IDOCK:   -1.77 KCAL/MOL
REMARK 923 INTER-LIGAND FREE ENERGY PREDICTED BY IDOCK:   -3.67 KCAL/MOL
REMARK 924 INTRA-LIGAND FREE ENERGY PREDICTED BY IDOCK:    1.90 KCAL/MOL
REMARK 927      BINDING AFFINITY PREDICTED BY RF-SCORE:    0.00 PKD
ROOT
HETATM    1  C   UNL     1      -5.130  15.387  70.594  1.00  0.00    -0.141 C  
HETATM    2  C   UNL     1      -6.470  15.614  69.909  1.00  0.00    -0.137 C  
ENDROOT
BRANCH   2   3
HETATM    3  C   UNL     1      -7.043  14.304  69.372  1.00  0.00    -0.086 C  
HETATM    4  N   UNL     1      -8.031  14.346  68.373  1.00  0.00    -0.133 N  
HETATM    5  O   UNL     1      -6.611  13.249  69.842  1.00  0.00    -0.040 OA 
BRANCH   4   6
HETATM    6  C   UNL     1      -8.468  15.611  67.821  1.00  0.00    -0.151 A  
HETATM    7  C   UNL     1      -9.310  16.491  68.524  1.00  0.00    -0.229 A  
HETATM    8  C   UNL     1      -9.697  17.720  67.979  1.00  0.00    -0.304 A  
HETATM    9  C   UNL     1      -8.068  15.988  66.532  1.00  0.00    -0.304 A  
HETATM   10  C   UNL     1      -9.260  18.089  66.714  1.00  0.00    -0.285 A  
HETATM   11  C   UNL     1      -8.454  17.221  65.984  1.00  0.00    -0.136 A  
ENDBRANCH   4   6
BRANCH   4  12
HETATM   12  C   UNL     1      -8.885  13.105  68.089  1.00  0.00    -0.194 C  
HETATM   13  C   UNL     1      -8.600  12.558  66.661  1.00  0.00    -0.057 C  
HETATM   14  C   UNL     1      -7.181  11.982  66.588  1.00  0.00     0.140 C  
HETATM   15  N   UNL     1      -6.965  10.845  67.493  1.00  0.00    -0.082 NA 
HETATM   16  C   UNL     1      -7.293  11.236  68.878  1.00  0.00    -0.115 C  
HETATM   17  C   UNL     1      -8.678  11.870  69.019  1.00  0.00     0.296 C  
BRANCH  12  18
HETATM   18  C   UNL     1     -10.385  13.449  68.265  1.00  0.00    -0.249 C  
HETATM   19  O   UNL     1     -10.926  13.690  69.338  1.00  0.00    -0.183 OA 
BRANCH  18  20
HETATM   20  O   UNL     1     -11.034  13.498  67.060  1.00  0.00    -0.282 OA 
HETATM   21  C   UNL     1     -12.366  12.992  67.063  1.00  0.00     0.028 C  
ENDBRANCH  18  20
ENDBRANCH  12  18
BRANCH  15  22
HETATM   22  C   UNL     1      -7.677   9.612  67.100  1.00  0.00    -0.091 C  
BRANCH  22  23
HETATM   23  C   UNL     1      -8.510   8.988  68.222  1.00  0.00    -0.129 C  
BRANCH  23  24
HETATM   24  C   UNL     1      -9.868   8.593  67.702  1.00  0.00    -0.180 C  
HETATM   25  O   UNL     1     -10.073   7.917  66.704  1.00  0.00    -0.260 OA 
BRANCH  24  26
HETATM   26  O   UNL     1     -10.837   9.074  68.531  1.00  0.00    -0.139 OA 
HETATM   27  C   UNL     1     -10.624   8.747  69.902  1.00  0.00    -0.224 C  
ENDBRANCH  24  26
ENDBRANCH  23  24
ENDBRANCH  22  23
ENDBRANCH  15  22
ENDBRANCH   4  12
ENDBRANCH   2   3
TORSDOF 9
ENDMDL
MODEL      181
REMARK 921   NORMALIZED FREE ENERGY PREDICTED BY IDOCK:   -0.71 KCAL/MOL
REMARK 922        TOTAL FREE ENERGY PREDICTED BY IDOCK:   -1.27 KCAL/MOL
REMARK 923 INTER-LIGAND FREE ENERGY PREDICTED BY IDOCK:   -2.21 KCAL/MOL
REMARK 924 INTRA-LIGAND FREE ENERGY PREDICTED BY IDOCK:    0.95 KCAL/MOL
REMARK 927      BINDING AFFINITY PREDICTED BY RF-SCORE:    0.00 PKD
ROOT
HETATM    1  C   UNL     1      -7.800  10.562  64.046  1.00  0.00     0.028 C  
HETATM    2  C   UNL     1      -8.371  10.238  65.419  1.00  0.00    -0.164 C  
ENDROOT
BRANCH   2   3
HETATM    3  C   UNL     1      -8.235   8.751  65.736  1.00  0.00    -0.121 C  
HETATM    4  N   UNL     1      -8.788   8.250  66.926  1.00  0.00    -0.136 N  
HETATM    5  O   UNL     1      -7.636   8.040  64.924  1.00  0.00    -0.093 OA 
BRANCH   4   6
HETATM    6  C   UNL     1      -9.523   9.119  67.821  1.00  0.00    -0.140 A  
HETATM    7  C   UNL     1     -10.829   8.826  68.253  1.00  0.00    -0.025 A  
HETATM    8  C   UNL     1     -11.508   9.669  69.140  1.00  0.00     0.124 A  
HETATM    9  C   UNL     1      -8.942  10.311  68.273  1.00  0.00    -0.132 A  
HETATM   10  C   UNL     1     -10.900  10.828  69.603  1.00  0.00    -0.294 A  
HETATM   11  C   UNL     1      -9.621  11.157  69.162  1.00  0.00    -0.024 A  
ENDBRANCH   4   6
BRANCH   4  12
HETATM   12  C   UNL     1      -8.352   6.878  67.454  1.00  0.00    -0.122 C  
HETATM   13  C   UNL     1      -6.810   6.830  67.651  1.00  0.00    -0.080 C  
HETATM   14  C   UNL     1      -6.393   7.753  68.802  1.00  0.00    -0.043 C  
HETATM   15  N   UNL     1      -6.965   7.365  70.098  1.00  0.00    -0.058 NA 
HETATM   16  C   UNL     1      -8.436   7.295  69.998  1.00  0.00    -0.139 C  
HETATM   17  C   UNL     1      -8.927   6.432  68.835  1.00  0.00    -0.123 C  
BRANCH  12  18
HETATM   18  C   UNL     1      -8.825   5.767  66.483  1.00  0.00    -0.126 C  
HETATM   19  O   UNL     1      -9.911   5.752  65.915  1.00  0.00    -0.044 OA 
BRANCH  18  20
HETATM   20  O   UNL     1      -7.858   4.817  66.298  1.00  0.00    -0.097 OA 
HETATM   21  C   UNL     1      -8.002   4.018  65.127  1.00  0.00    -0.093 C  
ENDBRANCH  18  20
ENDBRANCH  12  18
BRANCH  15  22
HETATM   22  C   UNL     1      -6.406   6.119  70.660  1.00  0.00    -0.039 C  
BRANCH  22  23
HETATM   23  C   UNL     1      -5.288   6.342  71.681  1.00  0.00    -0.026 C  
BRANCH  23  24
HETATM   24  C   UNL     1      -5.832   7.035  72.903  1.00  0.00    -0.041 C  
HETATM   25  O   UNL     1      -5.811   6.583  74.040  1.00  0.00    -0.060 OA 
BRANCH  24  26
HETATM   26  O   UNL     1      -6.322   8.260  72.559  1.00  0.00    -0.067 OA 
HETATM   27  C   UNL     1      -5.306   9.237  72.345  1.00  0.00    -0.076 C  
ENDBRANCH  24  26
ENDBRANCH  23  24
ENDBRANCH  22  23
ENDBRANCH  15  22
ENDBRANCH   4  12
ENDBRANCH   2   3
TORSDOF 9
ENDMDL
MODEL      182
REMARK 921   NORMALIZED FREE ENERGY PREDICTED BY IDOCK:   -0.50 KCAL/MOL
REMARK 922        TOTAL FREE ENERGY PREDICTED BY IDOCK:   -0.95 KCAL/MOL
REMARK 923 INTER-LIGAND FREE ENERGY PREDICTED BY IDOCK:   -5.12 KCAL/MOL
REMARK 924 INTRA-LIGAND FREE ENERGY PREDICTED BY IDOCK:    4.17 KCAL/MOL
REMARK 927      BINDING AFFINITY PREDICTED BY RF-SCORE:    0.00 PKD
ROOT
HETATM    1  C   UNL     1     -10.086   9.249  66.384  1.00  0.00    -0.337 C  
HETATM    2  C   UNL     1      -9.463  10.509  66.967  1.00  0.00    -0.188 C  
ENDROOT
BRANCH   2   3
HETATM    3  C   UNL     1     -10.218  11.757  66.515  1.00  0.00    -0.208 C  
HETATM    4  N   UNL     1      -9.740  13.023  66.893  1.00  0.00    -0.232 N  
HETATM    5  O   UNL     1     -11.230  11.602  65.827  1.00  0.00    -0.303 OA 
BRANCH   4   6
HETATM    6  C   UNL     1      -8.518  13.151  67.661  1.00  0.00    -0.194 A  
HETATM    7  C   UNL     1      -8.387  12.632  68.962  1.00  0.00     0.419 A  
HETATM    8  C   UNL     1      -7.187  12.746  69.673  1.00  0.00     0.515 A  
HETATM    9  C   UNL     1      -7.418  13.828  67.119  1.00  0.00     0.094 A  
HETATM   10  C   UNL     1      -6.098  13.391  69.103  1.00  0.00    -0.093 A  
HETATM   11  C   UNL     1      -6.214  13.942  67.830  1.00  0.00    -0.164 A  
ENDBRANCH   4   6
BRANCH   4  12
HETATM   12  C   UNL     1     -10.654  14.250  66.790  1.00  0.00    -0.278 C  
HETATM   13  C   UNL     1     -11.256  14.604  68.179  1.00  0.00    -0.304 C  
HETATM   14  C   UNL     1     -10.157  15.115  69.118  1.00  0.00    -0.245 C  
HETATM   15  N   UNL     1      -9.511  16.346  68.646  1.00  0.00    -0.229 NA 
HETATM   16  C   UNL     1      -8.975  16.143  67.286  1.00  0.00    -0.196 C  
HETATM   17  C   UNL     1     -10.004  15.582  66.303  1.00  0.00    -0.313 C  
BRANCH  12  18
HETATM   18  C   UNL     1     -11.771  13.985  65.749  1.00  0.00    -0.363 C  
HETATM   19  O   UNL     1     -12.905  13.611  66.022  1.00  0.00    -0.364 OA 
BRANCH  18  20
HETATM   20  O   UNL     1     -11.349  14.264  64.477  1.00  0.00    -0.369 OA 
HETATM   21  C   UNL     1     -12.005  15.358  63.842  1.00  0.00     0.202 C  
ENDBRANCH  18  20
ENDBRANCH  12  18
BRANCH  15  22
HETATM   22  C   UNL     1     -10.369  17.546  68.710  1.00  0.00    -0.358 C  
BRANCH  22  23
HETATM   23  C   UNL     1     -10.259  18.459  67.486  1.00  0.00    -0.393 C  
BRANCH  23  24
HETATM   24  C   UNL     1      -9.041  19.338  67.603  1.00  0.00    -0.301 C  
HETATM   25  O   UNL     1      -8.454  19.860  66.665  1.00  0.00    -0.309 OA 
BRANCH  24  26
HETATM   26  O   UNL     1      -8.709  19.494  68.916  1.00  0.00    -0.355 OA 
HETATM   27  C   UNL     1      -7.324  19.765  69.121  1.00  0.00    -0.255 C  
ENDBRANCH  24  26
ENDBRANCH  23  24
ENDBRANCH  22  23
ENDBRANCH  15  22
ENDBRANCH   4  12
ENDBRANCH   2   3
TORSDOF 9
ENDMDL
MODEL      183
REMARK 921   NORMALIZED FREE ENERGY PREDICTED BY IDOCK:   -0.49 KCAL/MOL
REMARK 922        TOTAL FREE ENERGY PREDICTED BY IDOCK:   -0.94 KCAL/MOL
REMARK 923 INTER-LIGAND FREE ENERGY PREDICTED BY IDOCK:   -3.30 KCAL/MOL
REMARK 924 INTRA-LIGAND FREE ENERGY PREDICTED BY IDOCK:    2.36 KCAL/MOL
REMARK 927      BINDING AFFINITY PREDICTED BY RF-SCORE:    0.00 PKD
ROOT
HETATM    1  C   UNL     1     -11.095   6.206  66.583  1.00  0.00    -0.124 C  
HETATM    2  C   UNL     1     -11.097   7.215  67.723  1.00  0.00    -0.095 C  
ENDROOT
BRANCH   2   3
HETATM    3  C   UNL     1     -10.451   6.632  68.977  1.00  0.00    -0.214 C  
HETATM    4  N   UNL     1      -9.356   7.294  69.556  1.00  0.00    -0.152 N  
HETATM    5  O   UNL     1     -10.922   5.589  69.437  1.00  0.00    -0.271 OA 
BRANCH   4   6
HETATM    6  C   UNL     1      -8.872   8.543  69.004  1.00  0.00    -0.145 A  
HETATM    7  C   UNL     1      -9.622   9.731  69.055  1.00  0.00    -0.177 A  
HETATM    8  C   UNL     1      -9.120  10.930  68.537  1.00  0.00    -0.173 A  
HETATM    9  C   UNL     1      -7.622   8.591  68.372  1.00  0.00    -0.096 A  
HETATM   10  C   UNL     1      -7.864  10.964  67.947  1.00  0.00    -0.109 A  
HETATM   11  C   UNL     1      -7.118   9.793  67.853  1.00  0.00    -0.083 A  
ENDBRANCH   4   6
BRANCH   4  12
HETATM   12  C   UNL     1      -8.460   6.560  70.561  1.00  0.00    -0.138 C  
HETATM   13  C   UNL     1      -7.931   7.542  71.645  1.00  0.00    -0.092 C  
HETATM   14  C   UNL     1      -9.082   8.012  72.541  1.00  0.00    -0.209 C  
HETATM   15  N   UNL     1      -9.728   6.922  73.283  1.00  0.00    -0.171 NA 
HETATM   16  C   UNL     1     -10.195   5.883  72.345  1.00  0.00    -0.188 C  
HETATM   17  C   UNL     1      -9.111   5.402  71.380  1.00  0.00    -0.163 C  
BRANCH  12  18
HETATM   18  C   UNL     1      -7.291   5.870  69.815  1.00  0.00    -0.075 C  
HETATM   19  O   UNL     1      -7.315   4.721  69.388  1.00  0.00    -0.051 OA 
BRANCH  18  20
HETATM   20  O   UNL     1      -6.231   6.720  69.648  1.00  0.00    -0.031 OA 
HETATM   21  C   UNL     1      -5.561   6.622  68.394  1.00  0.00    -0.016 C  
ENDBRANCH  18  20
ENDBRANCH  12  18
BRANCH  15  22
HETATM   22  C   UNL     1      -8.896   6.341  74.356  1.00  0.00    -0.141 C  
BRANCH  22  23
HETATM   23  C   UNL     1      -9.069   4.830  74.531  1.00  0.00    -0.114 C  
BRANCH  23  24
HETATM   24  C   UNL     1      -7.807   4.112  74.130  1.00  0.00    -0.087 C  
HETATM   25  O   UNL     1      -6.672   4.544  74.274  1.00  0.00    -0.060 OA 
BRANCH  24  26
HETATM   26  O   UNL     1      -8.116   2.890  73.611  1.00  0.00    -0.069 OA 
HETATM   27  C   UNL     1      -7.542   2.657  72.327  1.00  0.00    -0.052 C  
ENDBRANCH  24  26
ENDBRANCH  23  24
ENDBRANCH  22  23
ENDBRANCH  15  22
ENDBRANCH   4  12
ENDBRANCH   2   3
TORSDOF 9
ENDMDL
MODEL      184
REMARK 921   NORMALIZED FREE ENERGY PREDICTED BY IDOCK:    1.14 KCAL/MOL
REMARK 922        TOTAL FREE ENERGY PREDICTED BY IDOCK:    1.55 KCAL/MOL
REMARK 923 INTER-LIGAND FREE ENERGY PREDICTED BY IDOCK:   -1.55 KCAL/MOL
REMARK 924 INTRA-LIGAND FREE ENERGY PREDICTED BY IDOCK:    3.10 KCAL/MOL
REMARK 927      BINDING AFFINITY PREDICTED BY RF-SCORE:    0.00 PKD
ROOT
HETATM    1  C   UNL     1      -5.247  19.912  68.198  1.00  0.00    -0.194 C  
HETATM    2  C   UNL     1      -6.453  19.831  69.122  1.00  0.00    -0.362 C  
ENDROOT
BRANCH   2   3
HETATM    3  C   UNL     1      -7.011  18.410  69.177  1.00  0.00    -0.223 C  
HETATM    4  N   UNL     1      -7.965  18.011  68.226  1.00  0.00    -0.280 N  
HETATM    5  O   UNL     1      -6.597  17.661  70.065  1.00  0.00     0.019 OA 
BRANCH   4   6
HETATM    6  C   UNL     1      -8.382  18.916  67.174  1.00  0.00    -0.274 A  
HETATM    7  C   UNL     1      -7.531  19.286  66.117  1.00  0.00    -0.294 A  
HETATM    8  C   UNL     1      -7.967  20.140  65.098  1.00  0.00     0.647 A  
HETATM    9  C   UNL     1      -9.668  19.472  67.198  1.00  0.00    -0.447 A  
HETATM   10  C   UNL     1      -9.257  20.652  65.122  1.00  0.00     1.215 A  
HETATM   11  C   UNL     1     -10.106  20.328  66.177  1.00  0.00    -0.440 A  
ENDBRANCH   4   6
BRANCH   4  12
HETATM   12  C   UNL     1      -8.813  16.757  68.471  1.00  0.00    -0.248 C  
HETATM   13  C   UNL     1      -9.269  16.131  67.123  1.00  0.00    -0.220 C  
HETATM   14  C   UNL     1      -8.064  15.550  66.374  1.00  0.00     0.079 C  
HETATM   15  N   UNL     1      -7.391  14.466  67.102  1.00  0.00    -0.061 NA 
HETATM   16  C   UNL     1      -6.990  14.934  68.442  1.00  0.00    -0.110 C  
HETATM   17  C   UNL     1      -8.132  15.576  69.230  1.00  0.00    -0.248 C  
BRANCH  12  18
HETATM   18  C   UNL     1     -10.030  17.113  69.361  1.00  0.00    -0.061 C  
HETATM   19  O   UNL     1     -11.099  16.512  69.355  1.00  0.00    -0.311 OA 
BRANCH  18  20
HETATM   20  O   UNL     1      -9.753  18.161  70.196  1.00  0.00     1.057 OA 
HETATM   21  C   UNL     1     -10.402  19.388  69.874  1.00  0.00     0.757 C  
ENDBRANCH  18  20
ENDBRANCH  12  18
BRANCH  15  22
HETATM   22  C   UNL     1      -8.170  13.213  67.181  1.00  0.00    -0.120 C  
BRANCH  22  23
HETATM   23  C   UNL     1      -9.677  13.425  67.347  1.00  0.00    -0.221 C  
BRANCH  23  24
HETATM   24  C   UNL     1     -10.399  13.028  66.086  1.00  0.00    -0.278 C  
HETATM   25  O   UNL     1      -9.963  12.271  65.230  1.00  0.00    -0.262 OA 
BRANCH  24  26
HETATM   26  O   UNL     1     -11.630  13.613  66.056  1.00  0.00    -0.318 OA 
HETATM   27  C   UNL     1     -12.118  13.974  67.346  1.00  0.00    -0.349 C  
ENDBRANCH  24  26
ENDBRANCH  23  24
ENDBRANCH  22  23
ENDBRANCH  15  22
ENDBRANCH   4  12
ENDBRANCH   2   3
TORSDOF 9
ENDMDL
MODEL      185
REMARK 921   NORMALIZED FREE ENERGY PREDICTED BY IDOCK:    1.63 KCAL/MOL
REMARK 922        TOTAL FREE ENERGY PREDICTED BY IDOCK:    2.31 KCAL/MOL
REMARK 923 INTER-LIGAND FREE ENERGY PREDICTED BY IDOCK:   -4.02 KCAL/MOL
REMARK 924 INTRA-LIGAND FREE ENERGY PREDICTED BY IDOCK:    6.33 KCAL/MOL
REMARK 927      BINDING AFFINITY PREDICTED BY RF-SCORE:    0.00 PKD
ROOT
HETATM    1  C   UNL     1     -12.336  14.396  68.103  1.00  0.00    -0.001 C  
HETATM    2  C   UNL     1     -11.499  13.907  69.277  1.00  0.00    -0.348 C  
ENDROOT
BRANCH   2   3
HETATM    3  C   UNL     1     -10.832  12.571  68.960  1.00  0.00    -0.137 C  
HETATM    4  N   UNL     1     -10.171  12.409  67.730  1.00  0.00    -0.207 N  
HETATM    5  O   UNL     1     -10.901  11.676  69.806  1.00  0.00    -0.045 OA 
BRANCH   4   6
HETATM    6  C   UNL     1     -10.078  13.508  66.792  1.00  0.00    -0.268 A  
HETATM    7  C   UNL     1     -10.688  13.472  65.526  1.00  0.00    -0.293 A  
HETATM    8  C   UNL     1     -10.605  14.559  64.648  1.00  0.00    -0.298 A  
HETATM    9  C   UNL     1      -9.343  14.653  67.126  1.00  0.00    -0.231 A  
HETATM   10  C   UNL     1      -9.901  15.698  65.013  1.00  0.00     0.156 A  
HETATM   11  C   UNL     1      -9.260  15.743  66.248  1.00  0.00    -0.368 A  
ENDBRANCH   4   6
BRANCH   4  12
HETATM   12  C   UNL     1      -9.831  11.002  67.224  1.00  0.00    -0.178 C  
HETATM   13  C   UNL     1      -8.498  10.501  67.850  1.00  0.00    -0.119 C  
HETATM   14  C   UNL     1      -8.678  10.255  69.353  1.00  0.00    -0.156 C  
HETATM   15  N   UNL     1      -9.670   9.216  69.659  1.00  0.00    -0.170 NA 
HETATM   16  C   UNL     1     -10.963   9.554  69.033  1.00  0.00    -0.100 C  
HETATM   17  C   UNL     1     -10.852   9.865  67.539  1.00  0.00    -0.307 C  
BRANCH  12  18
HETATM   18  C   UNL     1      -9.753  11.006  65.677  1.00  0.00    -0.232 C  
HETATM   19  O   UNL     1     -10.707  10.828  64.929  1.00  0.00    -0.250 OA 
BRANCH  18  20
HETATM   20  O   UNL     1      -8.486  11.281  65.239  1.00  0.00    -0.004 OA 
HETATM   21  C   UNL     1      -8.290  11.178  63.831  1.00  0.00     0.428 C  
ENDBRANCH  18  20
ENDBRANCH  12  18
BRANCH  15  22
HETATM   22  C   UNL     1      -9.244   7.846  69.306  1.00  0.00    -0.148 C  
BRANCH  22  23
HETATM   23  C   UNL     1     -10.357   6.800  69.410  1.00  0.00    -0.221 C  
BRANCH  23  24
HETATM   24  C   UNL     1      -9.921   5.512  68.763  1.00  0.00    -0.172 C  
HETATM   25  O   UNL     1      -9.332   5.421  67.695  1.00  0.00    -0.112 OA 
BRANCH  24  26
HETATM   26  O   UNL     1     -10.249   4.459  69.565  1.00  0.00    -0.115 OA 
HETATM   27  C   UNL     1      -9.131   3.651  69.925  1.00  0.00    -0.122 C  
ENDBRANCH  24  26
ENDBRANCH  23  24
ENDBRANCH  22  23
ENDBRANCH  15  22
ENDBRANCH   4  12
ENDBRANCH   2   3
TORSDOF 9
ENDMDL
MODEL      186
REMARK 921   NORMALIZED FREE ENERGY PREDICTED BY IDOCK:    2.91 KCAL/MOL
REMARK 922        TOTAL FREE ENERGY PREDICTED BY IDOCK:    4.26 KCAL/MOL
REMARK 923 INTER-LIGAND FREE ENERGY PREDICTED BY IDOCK:   -0.10 KCAL/MOL
REMARK 924 INTRA-LIGAND FREE ENERGY PREDICTED BY IDOCK:    4.36 KCAL/MOL
REMARK 927      BINDING AFFINITY PREDICTED BY RF-SCORE:    0.00 PKD
ROOT
HETATM    1  C   UNL     1      -9.718  18.854  69.592  1.00  0.00     0.295 C  
HETATM    2  C   UNL     1      -9.781  17.455  70.188  1.00  0.00     1.512 C  
ENDROOT
BRANCH   2   3
HETATM    3  C   UNL     1      -8.794  16.517  69.496  1.00  0.00     0.233 C  
HETATM    4  N   UNL     1      -8.683  16.550  68.096  1.00  0.00    -0.190 N  
HETATM    5  O   UNL     1      -8.127  15.758  70.203  1.00  0.00     0.347 OA 
BRANCH   4   6
HETATM    6  C   UNL     1      -9.456  17.495  67.316  1.00  0.00    -0.253 A  
HETATM    7  C   UNL     1      -9.155  18.868  67.282  1.00  0.00    -0.301 A  
HETATM    8  C   UNL     1      -9.901  19.756  66.499  1.00  0.00    -0.546 A  
HETATM    9  C   UNL     1     -10.561  17.054  66.576  1.00  0.00    -0.172 A  
HETATM   10  C   UNL     1     -10.971  19.292  65.745  1.00  0.00    -0.174 A  
HETATM   11  C   UNL     1     -11.309  17.943  65.791  1.00  0.00     1.202 A  
ENDBRANCH   4   6
BRANCH   4  12
HETATM   12  C   UNL     1      -8.007  15.391  67.354  1.00  0.00    -0.188 C  
HETATM   13  C   UNL     1      -8.247  14.047  68.100  1.00  0.00    -0.155 C  
HETATM   14  C   UNL     1      -9.726  13.650  68.015  1.00  0.00    -0.226 C  
HETATM   15  N   UNL     1     -10.191  13.424  66.640  1.00  0.00    -0.269 NA 
HETATM   16  C   UNL     1      -9.929  14.620  65.817  1.00  0.00    -0.338 C  
HETATM   17  C   UNL     1      -8.481  15.107  65.895  1.00  0.00     0.919 C  
BRANCH  12  18
HETATM   18  C   UNL     1      -6.493  15.679  67.199  1.00  0.00     0.061 C  
HETATM   19  O   UNL     1      -5.597  14.946  67.602  1.00  0.00    -0.295 OA 
BRANCH  18  20
HETATM   20  O   UNL     1      -6.271  16.841  66.510  1.00  0.00    -0.269 OA 
HETATM   21  C   UNL     1      -5.229  17.666  67.022  1.00  0.00    -0.136 C  
ENDBRANCH  18  20
ENDBRANCH  12  18
BRANCH  15  22
HETATM   22  C   UNL     1      -9.645  12.206  66.007  1.00  0.00    -0.231 C  
BRANCH  22  23
HETATM   23  C   UNL     1      -9.503  12.303  64.486  1.00  0.00     0.230 C  
BRANCH  23  24
HETATM   24  C   UNL     1     -10.641  11.582  63.812  1.00  0.00    -0.406 C  
HETATM   25  O   UNL     1     -10.522  10.721  62.951  1.00  0.00    -0.048 OA 
BRANCH  24  26
HETATM   26  O   UNL     1     -11.828  12.007  64.330  1.00  0.00    -0.366 OA 
HETATM   27  C   UNL     1     -12.520  12.923  63.484  1.00  0.00    -0.338 C  
ENDBRANCH  24  26
ENDBRANCH  23  24
ENDBRANCH  22  23
ENDBRANCH  15  22
ENDBRANCH   4  12
ENDBRANCH   2   3
TORSDOF 9
ENDMDL
MODEL      187
REMARK 921   NORMALIZED FREE ENERGY PREDICTED BY IDOCK:    4.01 KCAL/MOL
REMARK 922        TOTAL FREE ENERGY PREDICTED BY IDOCK:    5.93 KCAL/MOL
REMARK 923 INTER-LIGAND FREE ENERGY PREDICTED BY IDOCK:   -2.27 KCAL/MOL
REMARK 924 INTRA-LIGAND FREE ENERGY PREDICTED BY IDOCK:    8.20 KCAL/MOL
REMARK 927      BINDING AFFINITY PREDICTED BY RF-SCORE:    0.00 PKD
ROOT
HETATM    1  C   UNL     1      -9.776  11.363  62.614  1.00  0.00    -0.123 C  
HETATM    2  C   UNL     1      -9.119  11.889  63.882  1.00  0.00     0.412 C  
ENDROOT
BRANCH   2   3
HETATM    3  C   UNL     1      -9.307  10.916  65.044  1.00  0.00    -0.226 C  
HETATM    4  N   UNL     1      -9.347  11.414  66.356  1.00  0.00    -0.198 N  
HETATM    5  O   UNL     1      -9.416   9.716  64.779  1.00  0.00    -0.267 OA 
BRANCH   4   6
HETATM    6  C   UNL     1      -9.262  12.838  66.608  1.00  0.00    -0.212 A  
HETATM    7  C   UNL     1     -10.124  13.765  65.996  1.00  0.00    -0.320 A  
HETATM    8  C   UNL     1     -10.038  15.133  66.276  1.00  0.00    -0.299 A  
HETATM    9  C   UNL     1      -8.280  13.339  67.474  1.00  0.00    -0.184 A  
HETATM   10  C   UNL     1      -9.081  15.604  67.165  1.00  0.00    -0.227 A  
HETATM   11  C   UNL     1      -8.194  14.710  67.757  1.00  0.00    -0.169 A  
ENDBRANCH   4   6
BRANCH   4  12
HETATM   12  C   UNL     1      -9.151  10.463  67.543  1.00  0.00    -0.134 C  
HETATM   13  C   UNL     1     -10.514   9.867  67.998  1.00  0.00    -0.266 C  
HETATM   14  C   UNL     1     -11.061   8.917  66.926  1.00  0.00     0.616 C  
HETATM   15  N   UNL     1     -10.193   7.761  66.672  1.00  0.00    -0.255 NA 
HETATM   16  C   UNL     1      -8.837   8.219  66.312  1.00  0.00    -0.161 C  
HETATM   17  C   UNL     1      -8.246   9.214  67.312  1.00  0.00    -0.114 C  
BRANCH  12  18
HETATM   18  C   UNL     1      -8.454  11.212  68.706  1.00  0.00    -0.134 C  
HETATM   19  O   UNL     1      -9.035  11.880  69.554  1.00  0.00     0.781 OA 
BRANCH  18  20
HETATM   20  O   UNL     1      -7.102  11.000  68.702  1.00  0.00    -0.068 OA 
HETATM   21  C   UNL     1      -6.376  11.705  67.698  1.00  0.00    -0.072 C  
ENDBRANCH  18  20
ENDBRANCH  12  18
BRANCH  15  22
HETATM   22  C   UNL     1     -10.152   6.778  67.774  1.00  0.00    -0.154 C  
BRANCH  22  23
HETATM   23  C   UNL     1      -8.741   6.315  68.146  1.00  0.00    -0.115 C  
BRANCH  23  24
HETATM   24  C   UNL     1      -8.810   5.188  69.144  1.00  0.00    -0.092 C  
HETATM   25  O   UNL     1      -9.831   4.781  69.681  1.00  0.00    -0.187 OA 
BRANCH  24  26
HETATM   26  O   UNL     1      -7.567   4.664  69.335  1.00  0.00    -0.055 OA 
HETATM   27  C   UNL     1      -6.514   5.578  69.037  1.00  0.00    -0.042 C  
ENDBRANCH  24  26
ENDBRANCH  23  24
ENDBRANCH  22  23
ENDBRANCH  15  22
ENDBRANCH   4  12
ENDBRANCH   2   3
TORSDOF 9
ENDMDL
MODEL      188
REMARK 921   NORMALIZED FREE ENERGY PREDICTED BY IDOCK:    5.26 KCAL/MOL
REMARK 922        TOTAL FREE ENERGY PREDICTED BY IDOCK:    7.84 KCAL/MOL
REMARK 923 INTER-LIGAND FREE ENERGY PREDICTED BY IDOCK:    3.87 KCAL/MOL
REMARK 924 INTRA-LIGAND FREE ENERGY PREDICTED BY IDOCK:    3.97 KCAL/MOL
REMARK 927      BINDING AFFINITY PREDICTED BY RF-SCORE:    0.00 PKD
ROOT
HETATM    1  C   UNL     1      -8.083  19.954  71.551  1.00  0.00     2.440 C  
HETATM    2  C   UNL     1      -7.448  19.957  70.168  1.00  0.00     0.486 C  
ENDROOT
BRANCH   2   3
HETATM    3  C   UNL     1      -7.266  18.535  69.642  1.00  0.00     0.236 C  
HETATM    4  N   UNL     1      -8.122  18.061  68.634  1.00  0.00    -0.303 N  
HETATM    5  O   UNL     1      -6.363  17.851  70.130  1.00  0.00    -0.064 OA 
BRANCH   4   6
HETATM    6  C   UNL     1      -9.136  18.923  68.061  1.00  0.00    -0.304 A  
HETATM    7  C   UNL     1      -8.959  19.581  66.831  1.00  0.00    -0.379 A  
HETATM    8  C   UNL     1      -9.964  20.387  66.287  1.00  0.00    -0.352 A  
HETATM    9  C   UNL     1     -10.338  19.142  68.747  1.00  0.00    -0.229 A  
HETATM   10  C   UNL     1     -11.162  20.563  66.967  1.00  0.00     1.483 A  
HETATM   11  C   UNL     1     -11.347  19.950  68.202  1.00  0.00     1.047 A  
ENDBRANCH   4   6
BRANCH   4  12
HETATM   12  C   UNL     1      -8.220  16.556  68.357  1.00  0.00    -0.194 C  
HETATM   13  C   UNL     1      -8.340  15.760  69.688  1.00  0.00    -0.013 C  
HETATM   14  C   UNL     1      -9.692  16.042  70.354  1.00  0.00     0.854 C  
HETATM   15  N   UNL     1     -10.842  15.623  69.542  1.00  0.00    -0.247 NA 
HETATM   16  C   UNL     1     -10.778  16.261  68.213  1.00  0.00    -0.322 C  
HETATM   17  C   UNL     1      -9.434  16.067  67.508  1.00  0.00    -0.223 C  
BRANCH  12  18
HETATM   18  C   UNL     1      -6.989  16.092  67.539  1.00  0.00    -0.168 C  
HETATM   19  O   UNL     1      -5.914  15.759  68.024  1.00  0.00    -0.117 OA 
BRANCH  18  20
HETATM   20  O   UNL     1      -7.262  16.055  66.199  1.00  0.00     0.192 OA 
HETATM   21  C   UNL     1      -8.476  15.400  65.840  1.00  0.00     0.727 C  
ENDBRANCH  18  20
ENDBRANCH  12  18
BRANCH  15  22
HETATM   22  C   UNL     1     -11.004  14.160  69.427  1.00  0.00    -0.179 C  
BRANCH  22  23
HETATM   23  C   UNL     1      -9.733  13.423  68.997  1.00  0.00     0.251 C  
BRANCH  23  24
HETATM   24  C   UNL     1     -10.083  12.265  68.100  1.00  0.00    -0.211 C  
HETATM   25  O   UNL     1     -10.881  12.304  67.173  1.00  0.00    -0.230 OA 
BRANCH  24  26
HETATM   26  O   UNL     1      -9.350  11.170  68.452  1.00  0.00    -0.171 OA 
HETATM   27  C   UNL     1      -7.961  11.446  68.613  1.00  0.00    -0.141 C  
ENDBRANCH  24  26
ENDBRANCH  23  24
ENDBRANCH  22  23
ENDBRANCH  15  22
ENDBRANCH   4  12
ENDBRANCH   2   3
TORSDOF 9
ENDMDL
MODEL      189
REMARK 921   NORMALIZED FREE ENERGY PREDICTED BY IDOCK:    8.32 KCAL/MOL
REMARK 922        TOTAL FREE ENERGY PREDICTED BY IDOCK:   12.51 KCAL/MOL
REMARK 923 INTER-LIGAND FREE ENERGY PREDICTED BY IDOCK:   -1.09 KCAL/MOL
REMARK 924 INTRA-LIGAND FREE ENERGY PREDICTED BY IDOCK:   13.59 KCAL/MOL
REMARK 927      BINDING AFFINITY PREDICTED BY RF-SCORE:    0.00 PKD
ROOT
HETATM    1  C   UNL     1     -11.555  11.991  65.731  1.00  0.00    -0.353 C  
HETATM    2  C   UNL     1     -10.656  12.938  64.949  1.00  0.00    -0.342 C  
ENDROOT
BRANCH   2   3
HETATM    3  C   UNL     1     -10.019  13.978  65.867  1.00  0.00    -0.307 C  
HETATM    4  N   UNL     1     -10.061  13.783  67.257  1.00  0.00    -0.237 N  
HETATM    5  O   UNL     1      -9.487  14.961  65.344  1.00  0.00    -0.167 OA 
BRANCH   4   6
HETATM    6  C   UNL     1     -10.656  12.587  67.817  1.00  0.00    -0.219 A  
HETATM    7  C   UNL     1      -9.945  11.716  68.661  1.00  0.00    -0.192 A  
HETATM    8  C   UNL     1     -10.551  10.580  69.211  1.00  0.00    -0.265 A  
HETATM    9  C   UNL     1     -11.981  12.252  67.506  1.00  0.00    -0.210 A  
HETATM   10  C   UNL     1     -11.876  10.286  68.917  1.00  0.00     0.057 A  
HETATM   11  C   UNL     1     -12.590  11.115  68.057  1.00  0.00     1.990 A  
ENDBRANCH   4   6
BRANCH   4  12
HETATM   12  C   UNL     1      -9.783  14.957  68.204  1.00  0.00    -0.214 C  
HETATM   13  C   UNL     1      -8.315  15.447  68.055  1.00  0.00    -0.142 C  
HETATM   14  C   UNL     1      -8.111  16.100  66.683  1.00  0.00    -0.288 C  
HETATM   15  N   UNL     1      -8.945  17.291  66.473  1.00  0.00    -0.259 NA 
HETATM   16  C   UNL     1     -10.366  16.952  66.678  1.00  0.00    -0.299 C  
HETATM   17  C   UNL     1     -10.638  16.247  68.008  1.00  0.00    -0.308 C  
BRANCH  12  18
HETATM   18  C   UNL     1     -10.085  14.536  69.664  1.00  0.00     0.178 C  
HETATM   19  O   UNL     1     -11.098  13.950  70.027  1.00  0.00    -0.050 OA 
BRANCH  18  20
HETATM   20  O   UNL     1      -9.053  14.858  70.503  1.00  0.00     0.799 OA 
HETATM   21  C   UNL     1      -7.748  14.582  70.001  1.00  0.00     0.460 C  
ENDBRANCH  18  20
ENDBRANCH  12  18
BRANCH  15  22
HETATM   22  C   UNL     1      -8.549  18.460  67.285  1.00  0.00    -0.258 C  
BRANCH  22  23
HETATM   23  C   UNL     1      -7.262  19.141  66.812  1.00  0.00    -0.222 C  
BRANCH  23  24
HETATM   24  C   UNL     1      -7.533  20.583  66.472  1.00  0.00    -0.179 C  
HETATM   25  O   UNL     1      -8.368  21.293  67.015  1.00  0.00     0.031 OA 
BRANCH  24  26
HETATM   26  O   UNL     1      -6.682  20.993  65.488  1.00  0.00    -0.114 OA 
HETATM   27  C   UNL     1      -6.593  20.077  64.399  1.00  0.00     0.025 C  
ENDBRANCH  24  26
ENDBRANCH  23  24
ENDBRANCH  22  23
ENDBRANCH  15  22
ENDBRANCH   4  12
ENDBRANCH   2   3
TORSDOF 9
ENDMDL
MODEL      190
REMARK 921   NORMALIZED FREE ENERGY PREDICTED BY IDOCK:   14.71 KCAL/MOL
REMARK 922        TOTAL FREE ENERGY PREDICTED BY IDOCK:   22.27 KCAL/MOL
REMARK 923 INTER-LIGAND FREE ENERGY PREDICTED BY IDOCK:    9.87 KCAL/MOL
REMARK 924 INTRA-LIGAND FREE ENERGY PREDICTED BY IDOCK:   12.40 KCAL/MOL
REMARK 927      BINDING AFFINITY PREDICTED BY RF-SCORE:    0.00 PKD
ROOT
HETATM    1  C   UNL     1      -9.401  12.318  64.835  1.00  0.00     0.302 C  
HETATM    2  C   UNL     1      -9.045  12.834  66.222  1.00  0.00    -0.033 C  
ENDROOT
BRANCH   2   3
HETATM    3  C   UNL     1     -10.300  13.170  67.024  1.00  0.00    -0.249 C  
HETATM    4  N   UNL     1     -10.172  13.557  68.368  1.00  0.00    -0.242 N  
HETATM    5  O   UNL     1     -11.390  13.086  66.452  1.00  0.00    -0.295 OA 
BRANCH   4   6
HETATM    6  C   UNL     1      -8.864  13.686  68.977  1.00  0.00     0.333 A  
HETATM    7  C   UNL     1      -8.672  14.295  70.230  1.00  0.00     1.971 A  
HETATM    8  C   UNL     1      -7.401  14.383  70.809  1.00  0.00     1.322 A  
HETATM    9  C   UNL     1      -7.729  13.212  68.305  1.00  0.00    -0.141 A  
HETATM   10  C   UNL     1      -6.294  13.875  70.141  1.00  0.00    -0.083 A  
HETATM   11  C   UNL     1      -6.455  13.299  68.885  1.00  0.00    -0.100 A  
ENDBRANCH   4   6
BRANCH   4  12
HETATM   12  C   UNL     1     -11.394  13.530  69.293  1.00  0.00    -0.262 C  
HETATM   13  C   UNL     1     -10.960  13.658  70.781  1.00  0.00     1.565 C  
HETATM   14  C   UNL     1     -10.398  15.059  71.050  1.00  0.00     0.659 C  
HETATM   15  N   UNL     1     -11.378  16.132  70.834  1.00  0.00    -0.392 NA 
HETATM   16  C   UNL     1     -11.922  16.048  69.465  1.00  0.00    -0.185 C  
HETATM   17  C   UNL     1     -12.454  14.660  69.106  1.00  0.00    -0.013 C  
BRANCH  12  18
HETATM   18  C   UNL     1     -12.201  12.228  69.059  1.00  0.00     0.004 C  
HETATM   19  O   UNL     1     -11.736  11.192  68.597  1.00  0.00    -0.302 OA 
BRANCH  18  20
HETATM   20  O   UNL     1     -13.498  12.358  69.475  1.00  0.00     2.204 OA 
HETATM   21  C   UNL     1     -13.835  11.642  70.660  1.00  0.00     2.471 C  
ENDBRANCH  18  20
ENDBRANCH  12  18
BRANCH  15  22
HETATM   22  C   UNL     1     -12.458  16.180  71.839  1.00  0.00    -0.320 C  
BRANCH  22  23
HETATM   23  C   UNL     1     -13.404  14.977  71.797  1.00  0.00    -0.478 C  
BRANCH  23  24
HETATM   24  C   UNL     1     -12.924  13.906  72.742  1.00  0.00    -0.316 C  
HETATM   25  O   UNL     1     -11.941  13.990  73.465  1.00  0.00     0.305 OA 
BRANCH  24  26
HETATM   26  O   UNL     1     -13.772  12.839  72.698  1.00  0.00    -0.505 OA 
HETATM   27  C   UNL     1     -13.116  11.586  72.881  1.00  0.00     2.650 C  
ENDBRANCH  24  26
ENDBRANCH  23  24
ENDBRANCH  22  23
ENDBRANCH  15  22
ENDBRANCH   4  12
ENDBRANCH   2   3
TORSDOF 9
ENDMDL
MODEL      191
REMARK 921   NORMALIZED FREE ENERGY PREDICTED BY IDOCK:   35.61 KCAL/MOL
REMARK 922        TOTAL FREE ENERGY PREDICTED BY IDOCK:   54.17 KCAL/MOL
REMARK 923 INTER-LIGAND FREE ENERGY PREDICTED BY IDOCK:   37.46 KCAL/MOL
REMARK 924 INTRA-LIGAND FREE ENERGY PREDICTED BY IDOCK:   16.71 KCAL/MOL
REMARK 927      BINDING AFFINITY PREDICTED BY RF-SCORE:    0.00 PKD
ROOT
HETATM    1  C   UNL     1     -11.587  11.930  65.728  1.00  0.00    -0.281 C  
HETATM    2  C   UNL     1     -10.470  12.909  65.396  1.00  0.00    -0.308 C  
ENDROOT
BRANCH   2   3
HETATM    3  C   UNL     1      -9.879  13.521  66.664  1.00  0.00    -0.279 C  
HETATM    4  N   UNL     1     -10.241  12.992  67.914  1.00  0.00    -0.227 N  
HETATM    5  O   UNL     1      -9.097  14.467  66.538  1.00  0.00    -0.258 OA 
BRANCH   4   6
HETATM    6  C   UNL     1     -11.126  11.849  68.003  1.00  0.00    -0.240 A  
HETATM    7  C   UNL     1     -11.046  10.914  69.050  1.00  0.00    -0.302 A  
HETATM    8  C   UNL     1     -11.930   9.832  69.128  1.00  0.00     0.568 A  
HETATM    9  C   UNL     1     -12.092  11.633  67.012  1.00  0.00     0.467 A  
HETATM   10  C   UNL     1     -12.904   9.656  68.154  1.00  0.00     7.074 A  
HETATM   11  C   UNL     1     -12.980  10.549  67.089  1.00  0.00     8.785 A  
ENDBRANCH   4   6
BRANCH   4  12
HETATM   12  C   UNL     1      -9.981  13.800  69.192  1.00  0.00     0.176 C  
HETATM   13  C   UNL     1      -8.454  13.985  69.421  1.00  0.00     0.537 C  
HETATM   14  C   UNL     1      -7.864  14.906  68.347  1.00  0.00    -0.121 C  
HETATM   15  N   UNL     1      -8.431  16.261  68.364  1.00  0.00    -0.187 NA 
HETATM   16  C   UNL     1      -9.899  16.194  68.238  1.00  0.00    -0.224 C  
HETATM   17  C   UNL     1     -10.554  15.249  69.247  1.00  0.00    -0.256 C  
BRANCH  12  18
HETATM   18  C   UNL     1     -10.645  13.096  70.401  1.00  0.00     2.285 C  
HETATM   19  O   UNL     1     -11.805  12.700  70.429  1.00  0.00    -0.291 OA 
BRANCH  18  20
HETATM   20  O   UNL     1      -9.760  12.925  71.431  1.00  0.00     9.435 OA 
HETATM   21  C   UNL     1      -8.863  11.827  71.292  1.00  0.00    11.396 C  
ENDBRANCH  18  20
ENDBRANCH  12  18
BRANCH  15  22
HETATM   22  C   UNL     1      -8.029  17.073  69.531  1.00  0.00     0.430 C  
BRANCH  22  23
HETATM   23  C   UNL     1      -6.583  17.572  69.476  1.00  0.00    -0.160 C  
BRANCH  23  24
HETATM   24  C   UNL     1      -6.551  19.077  69.536  1.00  0.00    -0.247 C  
HETATM   25  O   UNL     1      -7.354  19.778  70.136  1.00  0.00     0.044 OA 
BRANCH  24  26
HETATM   26  O   UNL     1      -5.470  19.544  68.848  1.00  0.00    -0.197 OA 
HETATM   27  C   UNL     1      -5.314  18.945  67.564  1.00  0.00    -0.163 C  
ENDBRANCH  24  26
ENDBRANCH  23  24
ENDBRANCH  22  23
ENDBRANCH  15  22
ENDBRANCH   4  12
ENDBRANCH   2   3
TORSDOF 9
ENDMDL
MODEL      192
REMARK 921   NORMALIZED FREE ENERGY PREDICTED BY IDOCK:   55.20 KCAL/MOL
REMARK 922        TOTAL FREE ENERGY PREDICTED BY IDOCK:   84.06 KCAL/MOL
REMARK 923 INTER-LIGAND FREE ENERGY PREDICTED BY IDOCK:   49.86 KCAL/MOL
REMARK 924 INTRA-LIGAND FREE ENERGY PREDICTED BY IDOCK:   34.19 KCAL/MOL
REMARK 927      BINDING AFFINITY PREDICTED BY RF-SCORE:    0.00 PKD
ROOT
HETATM    1  C   UNL     1     -12.193  14.372  66.524  1.00  0.00    -0.358 C  
HETATM    2  C   UNL     1     -13.178  15.398  67.066  1.00  0.00     3.810 C  
ENDROOT
BRANCH   2   3
HETATM    3  C   UNL     1     -12.817  15.810  68.491  1.00  0.00     1.721 C  
HETATM    4  N   UNL     1     -11.466  16.001  68.828  1.00  0.00    -0.377 N  
HETATM    5  O   UNL     1     -13.736  15.962  69.299  1.00  0.00     1.872 OA 
BRANCH   4   6
HETATM    6  C   UNL     1     -10.429  15.857  67.828  1.00  0.00    -0.287 A  
HETATM    7  C   UNL     1      -9.111  15.493  68.155  1.00  0.00    -0.184 A  
HETATM    8  C   UNL     1      -8.133  15.335  67.167  1.00  0.00    -0.248 A  
HETATM    9  C   UNL     1     -10.718  16.104  66.479  1.00  0.00    -0.220 A  
HETATM   10  C   UNL     1      -8.450  15.550  65.832  1.00  0.00     0.574 A  
HETATM   11  C   UNL     1      -9.739  15.946  65.487  1.00  0.00    -0.215 A  
ENDBRANCH   4   6
BRANCH   4  12
HETATM   12  C   UNL     1     -11.043  16.038  70.301  1.00  0.00    -0.374 C  
HETATM   13  C   UNL     1     -11.895  17.071  71.092  1.00  0.00     1.506 C  
HETATM   14  C   UNL     1     -13.347  16.590  71.198  1.00  0.00     3.239 C  
HETATM   15  N   UNL     1     -13.490  15.323  71.928  1.00  0.00    -0.410 NA 
HETATM   16  C   UNL     1     -12.646  14.285  71.305  1.00  0.00    -0.364 C  
HETATM   17  C   UNL     1     -11.191  14.716  71.118  1.00  0.00     0.027 C  
BRANCH  12  18
HETATM   18  C   UNL     1      -9.532  16.366  70.405  1.00  0.00     1.662 C  
HETATM   19  O   UNL     1      -8.708  16.145  69.525  1.00  0.00    -0.173 OA 
BRANCH  18  20
HETATM   20  O   UNL     1      -9.232  16.980  71.590  1.00  0.00     7.329 OA 
HETATM   21  C   UNL     1      -8.105  16.450  72.285  1.00  0.00    12.713 C  
ENDBRANCH  18  20
ENDBRANCH  12  18
BRANCH  15  22
HETATM   22  C   UNL     1     -13.232  15.426  73.379  1.00  0.00    -0.446 C  
BRANCH  22  23
HETATM   23  C   UNL     1     -12.632  14.160  73.997  1.00  0.00     1.414 C  
BRANCH  23  24
HETATM   24  C   UNL     1     -11.340  13.809  73.308  1.00  0.00     3.924 C  
HETATM   25  O   UNL     1     -11.141  12.796  72.651  1.00  0.00     6.871 OA 
BRANCH  24  26
HETATM   26  O   UNL     1     -10.430  14.807  73.496  1.00  0.00     2.607 OA 
HETATM   27  C   UNL     1      -9.876  15.305  72.281  1.00  0.00     4.249 C  
ENDBRANCH  24  26
ENDBRANCH  23  24
ENDBRANCH  22  23
ENDBRANCH  15  22
ENDBRANCH   4  12
ENDBRANCH   2   3
TORSDOF 9
ENDMDL
MODEL      193
REMARK 921   NORMALIZED FREE ENERGY PREDICTED BY IDOCK:   59.25 KCAL/MOL
REMARK 922        TOTAL FREE ENERGY PREDICTED BY IDOCK:   90.23 KCAL/MOL
REMARK 923 INTER-LIGAND FREE ENERGY PREDICTED BY IDOCK:   85.06 KCAL/MOL
REMARK 924 INTRA-LIGAND FREE ENERGY PREDICTED BY IDOCK:    5.17 KCAL/MOL
REMARK 927      BINDING AFFINITY PREDICTED BY RF-SCORE:    0.00 PKD
ROOT
HETATM    1  C   UNL     1     -10.475  13.742  64.139  1.00  0.00     0.147 C  
HETATM    2  C   UNL     1      -9.276  14.679  64.159  1.00  0.00     5.578 C  
ENDROOT
BRANCH   2   3
HETATM    3  C   UNL     1      -8.753  14.875  65.580  1.00  0.00     1.251 C  
HETATM    4  N   UNL     1      -9.153  16.008  66.308  1.00  0.00    -0.315 N  
HETATM    5  O   UNL     1      -7.991  14.020  66.038  1.00  0.00     1.480 OA 
BRANCH   4   6
HETATM    6  C   UNL     1     -10.089  16.957  65.741  1.00  0.00    -0.229 A  
HETATM    7  C   UNL     1     -11.232  17.394  66.433  1.00  0.00     0.732 A  
HETATM    8  C   UNL     1     -12.107  18.332  65.873  1.00  0.00     5.080 A  
HETATM    9  C   UNL     1      -9.882  17.457  64.448  1.00  0.00     5.108 A  
HETATM   10  C   UNL     1     -11.863  18.842  64.605  1.00  0.00     5.503 A  
HETATM   11  C   UNL     1     -10.757  18.398  63.886  1.00  0.00     8.210 A  
ENDBRANCH   4   6
BRANCH   4  12
HETATM   12  C   UNL     1      -8.372  16.431  67.558  1.00  0.00    -0.161 C  
HETATM   13  C   UNL     1      -9.279  17.247  68.522  1.00  0.00    -0.273 C  
HETATM   14  C   UNL     1     -10.361  16.342  69.123  1.00  0.00    -0.289 C  
HETATM   15  N   UNL     1      -9.820  15.242  69.932  1.00  0.00    -0.189 NA 
HETATM   16  C   UNL     1      -8.871  14.448  69.129  1.00  0.00     0.100 C  
HETATM   17  C   UNL     1      -7.790  15.292  68.452  1.00  0.00    -0.122 C  
BRANCH  12  18
HETATM   18  C   UNL     1      -7.122  17.247  67.144  1.00  0.00    -0.173 C  
HETATM   19  O   UNL     1      -6.873  18.385  67.526  1.00  0.00    -0.199 OA 
BRANCH  18  20
HETATM   20  O   UNL     1      -6.297  16.522  66.328  1.00  0.00    -0.120 OA 
HETATM   21  C   UNL     1      -5.744  15.343  66.908  1.00  0.00     1.026 C  
ENDBRANCH  18  20
ENDBRANCH  12  18
BRANCH  15  22
HETATM   22  C   UNL     1      -9.216  15.668  71.211  1.00  0.00     3.422 C  
BRANCH  22  23
HETATM   23  C   UNL     1      -9.900  15.084  72.449  1.00  0.00     4.551 C  
BRANCH  23  24
HETATM   24  C   UNL     1      -9.459  15.826  73.684  1.00  0.00    11.864 C  
HETATM   25  O   UNL     1     -10.206  16.288  74.536  1.00  0.00     7.961 OA 
BRANCH  24  26
HETATM   26  O   UNL     1      -8.098  15.877  73.730  1.00  0.00    12.500 OA 
HETATM   27  C   UNL     1      -7.523  16.634  72.667  1.00  0.00    12.616 C  
ENDBRANCH  24  26
ENDBRANCH  23  24
ENDBRANCH  22  23
ENDBRANCH  15  22
ENDBRANCH   4  12
ENDBRANCH   2   3
TORSDOF 9
ENDMDL
