MODEL        1
REMARK 921   NORMALIZED FREE ENERGY PREDICTED BY IDOCK:   -7.31 KCAL/MOL
REMARK 922        TOTAL FREE ENERGY PREDICTED BY IDOCK:  -13.12 KCAL/MOL
REMARK 923 INTER-LIGAND FREE ENERGY PREDICTED BY IDOCK:  -10.73 KCAL/MOL
REMARK 924 INTRA-LIGAND FREE ENERGY PREDICTED BY IDOCK:   -2.40 KCAL/MOL
REMARK 927      BINDING AFFINITY PREDICTED BY RF-SCORE:    0.00 PKD
ROOT
HETATM    1  C   UNL     1     -14.378   7.735  71.674  1.00  0.00    -0.607 C  
HETATM    2  C   UNL     1     -13.403   8.782  72.163  1.00  0.00    -0.423 C  
ENDROOT
BRANCH   2   3
HETATM    3  O   UNL     1     -12.154   8.145  72.500  1.00  0.00    -0.365 OA 
BRANCH   3   4
HETATM    4  C   UNL     1     -11.082   8.550  71.744  1.00  0.00    -0.307 A  
HETATM    5  C   UNL     1      -9.784   8.298  72.214  1.00  0.00    -0.362 A  
HETATM    6  C   UNL     1      -8.686   8.773  71.473  1.00  0.00    -0.274 A  
HETATM    7  C   UNL     1      -9.460   7.572  73.487  1.00  0.00    -0.273 C  
HETATM    8  C   UNL     1      -8.873   9.481  70.287  1.00  0.00    -0.281 A  
HETATM    9  O   UNL     1      -8.316   7.456  73.907  1.00  0.00    -0.139 OA 
HETATM   10  O   UNL     1     -10.514   7.032  74.122  1.00  0.00    -0.335 OA 
HETATM   11  C   UNL     1     -10.164   9.709  69.801  1.00  0.00    -0.262 A  
HETATM   12  C   UNL     1     -11.255   9.205  70.515  1.00  0.00    -0.309 A  
BRANCH  11  13
HETATM   13  C   UNL     1     -10.391  10.485  68.528  1.00  0.00    -0.199 C  
BRANCH  13  14
HETATM   14  C   UNL     1     -11.298  11.686  68.711  1.00  0.00    -0.264 C  
HETATM   15  O   UNL     1     -12.518  11.559  68.619  1.00  0.00    -0.335 OA 
HETATM   16  N   UNL     1     -10.665  12.883  69.000  1.00  0.00    -0.412 N  
HETATM   17  H   UNL     1      -9.646  12.920  69.007  1.00  0.00     0.000 HD 
BRANCH  16  18
HETATM   18  C   UNL     1     -11.434  14.105  69.296  1.00  0.00    -0.292 C  
BRANCH  18  19
HETATM   19  C   UNL     1     -10.941  15.400  68.626  1.00  0.00    -0.273 A  
HETATM   20  C   UNL     1     -10.874  15.588  67.203  1.00  0.00    -0.316 A  
HETATM   21  C   UNL     1     -10.531  16.897  66.764  1.00  0.00    -0.260 A  
HETATM   22  C   UNL     1     -10.698  16.517  69.476  1.00  0.00    -0.321 A  
HETATM   23  C   UNL     1     -10.307  17.975  67.621  1.00  0.00    -0.397 A  
HETATM   24  C   UNL     1     -10.389  17.785  68.984  1.00  0.00    -0.234 A  
BRANCH  20  25
HETATM   25  N   UNL     1     -11.095  14.631  66.207  1.00  0.00    -0.331 NA 
HETATM   26  C   UNL     1      -9.955  14.007  65.498  1.00  0.00    -0.276 C  
HETATM   27  C   UNL     1     -10.164  12.489  65.440  1.00  0.00    -0.303 C  
HETATM   28  C   UNL     1     -11.470  12.150  64.730  1.00  0.00    -0.377 C  
HETATM   29  C   UNL     1     -12.630  12.868  65.395  1.00  0.00    -0.440 C  
HETATM   30  C   UNL     1     -12.379  14.361  65.562  1.00  0.00    -0.345 C  
ENDBRANCH  20  25
ENDBRANCH  18  19
BRANCH  18  31
HETATM   31  C   UNL     1     -11.570  14.354  70.811  1.00  0.00    -0.224 C  
HETATM   32  C   UNL     1     -14.033  15.121  70.835  1.00  0.00    -0.256 C  
HETATM   33  C   UNL     1     -12.979  14.172  71.411  1.00  0.00    -0.422 C  
HETATM   34  C   UNL     1     -12.903  14.410  72.923  1.00  0.00    -0.512 C  
ENDBRANCH  18  31
ENDBRANCH  16  18
ENDBRANCH  13  14
ENDBRANCH  11  13
ENDBRANCH   3   4
ENDBRANCH   2   3
TORSDOF 8
ENDMDL
MODEL        2
REMARK 921   NORMALIZED FREE ENERGY PREDICTED BY IDOCK:   -7.11 KCAL/MOL
REMARK 922        TOTAL FREE ENERGY PREDICTED BY IDOCK:  -12.83 KCAL/MOL
REMARK 923 INTER-LIGAND FREE ENERGY PREDICTED BY IDOCK:  -10.69 KCAL/MOL
REMARK 924 INTRA-LIGAND FREE ENERGY PREDICTED BY IDOCK:   -2.14 KCAL/MOL
REMARK 927      BINDING AFFINITY PREDICTED BY RF-SCORE:    0.00 PKD
ROOT
HETATM    1  C   UNL     1     -12.225  12.296  63.458  1.00  0.00    -0.669 C  
HETATM    2  C   UNL     1     -12.497  12.757  64.872  1.00  0.00    -0.497 C  
ENDROOT
BRANCH   2   3
HETATM    3  O   UNL     1     -12.028  14.112  65.026  1.00  0.00    -0.370 OA 
BRANCH   3   4
HETATM    4  C   UNL     1     -11.765  14.483  66.321  1.00  0.00    -0.358 A  
HETATM    5  C   UNL     1     -11.092  15.692  66.560  1.00  0.00    -0.135 A  
HETATM    6  C   UNL     1     -10.761  16.038  67.883  1.00  0.00    -0.316 A  
HETATM    7  C   UNL     1     -10.660  16.655  65.493  1.00  0.00    -0.258 C  
HETATM    8  C   UNL     1     -11.094  15.205  68.948  1.00  0.00    -0.276 A  
HETATM    9  O   UNL     1      -9.994  17.653  65.738  1.00  0.00    -0.544 OA 
HETATM   10  O   UNL     1     -11.080  16.361  64.251  1.00  0.00    -0.845 OA 
HETATM   11  C   UNL     1     -11.788  14.013  68.718  1.00  0.00    -0.396 A  
HETATM   12  C   UNL     1     -12.152  13.684  67.409  1.00  0.00    -0.375 A  
BRANCH  11  13
HETATM   13  C   UNL     1     -12.146  13.088  69.853  1.00  0.00    -0.347 C  
BRANCH  13  14
HETATM   14  C   UNL     1     -11.651  11.669  69.649  1.00  0.00    -0.330 C  
HETATM   15  O   UNL     1     -12.447  10.731  69.644  1.00  0.00    -0.289 OA 
HETATM   16  N   UNL     1     -10.287  11.527  69.457  1.00  0.00    -0.419 N  
HETATM   17  H   UNL     1      -9.684  12.346  69.528  1.00  0.00     0.000 HD 
BRANCH  16  18
HETATM   18  C   UNL     1      -9.689  10.214  69.151  1.00  0.00    -0.215 C  
BRANCH  18  19
HETATM   19  C   UNL     1      -8.561   9.745  70.087  1.00  0.00    -0.214 A  
HETATM   20  C   UNL     1      -8.687   8.648  71.005  1.00  0.00    -0.186 A  
HETATM   21  C   UNL     1      -7.499   8.266  71.687  1.00  0.00    -0.105 A  
HETATM   22  C   UNL     1      -7.279  10.339  69.903  1.00  0.00    -0.162 A  
HETATM   23  C   UNL     1      -6.253   8.859  71.478  1.00  0.00    -0.069 A  
HETATM   24  C   UNL     1      -6.142   9.902  70.583  1.00  0.00    -0.095 A  
BRANCH  20  25
HETATM   25  N   UNL     1      -9.846   7.925  71.313  1.00  0.00    -0.167 NA 
HETATM   26  C   UNL     1     -10.586   8.190  72.567  1.00  0.00    -0.340 C  
HETATM   27  C   UNL     1     -12.083   8.303  72.258  1.00  0.00    -0.439 C  
HETATM   28  C   UNL     1     -12.599   7.025  71.606  1.00  0.00    -0.419 C  
HETATM   29  C   UNL     1     -11.778   6.698  70.373  1.00  0.00    -0.446 C  
HETATM   30  C   UNL     1     -10.280   6.698  70.647  1.00  0.00    -0.189 C  
ENDBRANCH  20  25
ENDBRANCH  18  19
BRANCH  18  31
HETATM   31  C   UNL     1      -9.192  10.126  67.695  1.00  0.00    -0.151 C  
HETATM   32  C   UNL     1     -10.464   7.991  67.004  1.00  0.00    -0.410 C  
HETATM   33  C   UNL     1     -10.144   9.453  66.686  1.00  0.00    -0.332 C  
HETATM   34  C   UNL     1      -9.503   9.508  65.295  1.00  0.00    -0.326 C  
ENDBRANCH  18  31
ENDBRANCH  16  18
ENDBRANCH  13  14
ENDBRANCH  11  13
ENDBRANCH   3   4
ENDBRANCH   2   3
TORSDOF 8
ENDMDL
MODEL        3
REMARK 921   NORMALIZED FREE ENERGY PREDICTED BY IDOCK:   -7.05 KCAL/MOL
REMARK 922        TOTAL FREE ENERGY PREDICTED BY IDOCK:  -12.75 KCAL/MOL
REMARK 923 INTER-LIGAND FREE ENERGY PREDICTED BY IDOCK:  -10.57 KCAL/MOL
REMARK 924 INTRA-LIGAND FREE ENERGY PREDICTED BY IDOCK:   -2.18 KCAL/MOL
REMARK 927      BINDING AFFINITY PREDICTED BY RF-SCORE:    0.00 PKD
ROOT
HETATM    1  C   UNL     1     -10.550   9.937  67.320  1.00  0.00    -0.316 C  
HETATM    2  C   UNL     1     -11.423  10.916  68.073  1.00  0.00    -0.281 C  
ENDROOT
BRANCH   2   3
HETATM    3  O   UNL     1     -11.425  10.568  69.473  1.00  0.00    -0.246 OA 
BRANCH   3   4
HETATM    4  C   UNL     1     -12.027  11.490  70.291  1.00  0.00    -0.368 A  
HETATM    5  C   UNL     1     -12.806  11.039  71.368  1.00  0.00    -0.548 A  
HETATM    6  C   UNL     1     -13.479  11.983  72.166  1.00  0.00    -0.338 A  
HETATM    7  C   UNL     1     -13.008   9.597  71.732  1.00  0.00    -0.420 C  
HETATM    8  C   UNL     1     -13.379  13.347  71.902  1.00  0.00    -0.539 A  
HETATM    9  O   UNL     1     -13.770   9.244  72.624  1.00  0.00    -0.450 OA 
HETATM   10  O   UNL     1     -12.272   8.720  71.029  1.00  0.00    -0.277 OA 
HETATM   11  C   UNL     1     -12.583  13.803  70.847  1.00  0.00    -0.428 A  
HETATM   12  C   UNL     1     -11.882  12.870  70.076  1.00  0.00    -0.356 A  
BRANCH  11  13
HETATM   13  C   UNL     1     -12.471  15.273  70.534  1.00  0.00    -0.454 C  
BRANCH  13  14
HETATM   14  C   UNL     1     -11.177  15.641  69.834  1.00  0.00    -0.331 C  
HETATM   15  O   UNL     1     -10.112  15.616  70.449  1.00  0.00    -0.181 OA 
HETATM   16  N   UNL     1     -11.287  15.972  68.494  1.00  0.00    -0.378 N  
HETATM   17  H   UNL     1     -12.212  16.022  68.067  1.00  0.00     0.000 HD 
BRANCH  16  18
HETATM   18  C   UNL     1     -10.096  16.255  67.673  1.00  0.00    -0.260 C  
BRANCH  18  19
HETATM   19  C   UNL     1      -9.703  17.736  67.531  1.00  0.00    -0.284 A  
HETATM   20  C   UNL     1      -8.355  18.220  67.635  1.00  0.00    -0.247 A  
HETATM   21  C   UNL     1      -8.161  19.596  67.334  1.00  0.00    -0.333 A  
HETATM   22  C   UNL     1     -10.723  18.639  67.111  1.00  0.00    -0.433 A  
HETATM   23  C   UNL     1      -9.179  20.455  66.914  1.00  0.00    -0.450 A  
HETATM   24  C   UNL     1     -10.466  19.975  66.804  1.00  0.00    -0.520 A  
BRANCH  20  25
HETATM   25  N   UNL     1      -7.218  17.495  68.011  1.00  0.00    -0.200 NA 
HETATM   26  C   UNL     1      -6.772  17.476  69.423  1.00  0.00    -0.179 C  
HETATM   27  C   UNL     1      -6.458  16.033  69.835  1.00  0.00    -0.111 C  
HETATM   28  C   UNL     1      -5.380  15.436  68.937  1.00  0.00    -0.099 C  
HETATM   29  C   UNL     1      -5.792  15.544  67.481  1.00  0.00    -0.077 C  
HETATM   30  C   UNL     1      -6.217  16.954  67.093  1.00  0.00    -0.180 C  
ENDBRANCH  20  25
ENDBRANCH  18  19
BRANCH  18  31
HETATM   31  C   UNL     1     -10.198  15.633  66.267  1.00  0.00    -0.312 C  
HETATM   32  C   UNL     1      -9.040  13.384  66.778  1.00  0.00    -0.221 C  
HETATM   33  C   UNL     1     -10.268  14.093  66.203  1.00  0.00    -0.313 C  
HETATM   34  C   UNL     1     -10.418  13.670  64.738  1.00  0.00    -0.436 C  
ENDBRANCH  18  31
ENDBRANCH  16  18
ENDBRANCH  13  14
ENDBRANCH  11  13
ENDBRANCH   3   4
ENDBRANCH   2   3
TORSDOF 8
ENDMDL
MODEL        4
REMARK 921   NORMALIZED FREE ENERGY PREDICTED BY IDOCK:   -7.01 KCAL/MOL
REMARK 922        TOTAL FREE ENERGY PREDICTED BY IDOCK:  -12.69 KCAL/MOL
REMARK 923 INTER-LIGAND FREE ENERGY PREDICTED BY IDOCK:  -10.36 KCAL/MOL
REMARK 924 INTRA-LIGAND FREE ENERGY PREDICTED BY IDOCK:   -2.33 KCAL/MOL
REMARK 927      BINDING AFFINITY PREDICTED BY RF-SCORE:    0.00 PKD
ROOT
HETATM    1  C   UNL     1      -9.798  20.350  67.084  1.00  0.00    -0.601 C  
HETATM    2  C   UNL     1     -10.784  19.270  66.699  1.00  0.00    -0.410 C  
ENDROOT
BRANCH   2   3
HETATM    3  O   UNL     1     -10.060  18.075  66.340  1.00  0.00    -0.350 OA 
BRANCH   3   4
HETATM    4  C   UNL     1      -9.662  17.306  67.405  1.00  0.00    -0.258 A  
HETATM    5  C   UNL     1      -8.343  16.826  67.443  1.00  0.00    -0.197 A  
HETATM    6  C   UNL     1      -7.955  15.982  68.499  1.00  0.00    -0.159 A  
HETATM    7  C   UNL     1      -7.296  17.122  66.410  1.00  0.00    -0.299 C  
HETATM    8  C   UNL     1      -8.855  15.624  69.500  1.00  0.00    -0.213 A  
HETATM    9  O   UNL     1      -6.185  16.607  66.432  1.00  0.00    -0.266 OA 
HETATM   10  O   UNL     1      -7.652  18.015  65.471  1.00  0.00    -0.530 OA 
HETATM   11  C   UNL     1     -10.161  16.122  69.482  1.00  0.00    -0.261 A  
HETATM   12  C   UNL     1     -10.540  16.992  68.455  1.00  0.00    -0.375 A  
BRANCH  11  13
HETATM   13  C   UNL     1     -11.157  15.737  70.546  1.00  0.00    -0.383 C  
BRANCH  13  14
HETATM   14  C   UNL     1     -11.894  14.447  70.240  1.00  0.00    -0.313 C  
HETATM   15  O   UNL     1     -13.040  14.276  70.653  1.00  0.00    -0.324 OA 
HETATM   16  N   UNL     1     -11.204  13.525  69.471  1.00  0.00    -0.439 N  
HETATM   17  H   UNL     1     -10.236  13.716  69.210  1.00  0.00     0.000 HD 
BRANCH  16  18
HETATM   18  C   UNL     1     -11.839  12.274  69.020  1.00  0.00    -0.305 C  
BRANCH  18  19
HETATM   19  C   UNL     1     -11.554  11.021  69.868  1.00  0.00    -0.416 A  
HETATM   20  C   UNL     1     -10.338  10.262  69.790  1.00  0.00    -0.246 A  
HETATM   21  C   UNL     1     -10.189   9.222  70.749  1.00  0.00    -0.353 A  
HETATM   22  C   UNL     1     -12.490  10.709  70.897  1.00  0.00    -0.495 A  
HETATM   23  C   UNL     1     -11.119   8.946  71.752  1.00  0.00    -0.433 A  
HETATM   24  C   UNL     1     -12.276   9.691  71.826  1.00  0.00    -0.464 A  
BRANCH  20  25
HETATM   25  N   UNL     1      -9.293  10.422  68.872  1.00  0.00    -0.177 NA 
HETATM   26  C   UNL     1      -8.985   9.357  67.891  1.00  0.00    -0.123 C  
HETATM   27  C   UNL     1      -8.809   9.982  66.503  1.00  0.00    -0.154 C  
HETATM   28  C   UNL     1      -7.694  11.021  66.515  1.00  0.00    -0.154 C  
HETATM   29  C   UNL     1      -7.957  12.061  67.587  1.00  0.00    -0.150 C  
HETATM   30  C   UNL     1      -8.248  11.442  68.948  1.00  0.00    -0.052 C  
ENDBRANCH  20  25
ENDBRANCH  18  19
BRANCH  18  31
HETATM   31  C   UNL     1     -11.519  11.956  67.547  1.00  0.00    -0.396 C  
HETATM   32  C   UNL     1     -12.410  14.140  66.501  1.00  0.00    -0.405 C  
HETATM   33  C   UNL     1     -11.237  13.165  66.631  1.00  0.00    -0.335 C  
HETATM   34  C   UNL     1     -10.891  12.649  65.231  1.00  0.00    -0.319 C  
ENDBRANCH  18  31
ENDBRANCH  16  18
ENDBRANCH  13  14
ENDBRANCH  11  13
ENDBRANCH   3   4
ENDBRANCH   2   3
TORSDOF 8
ENDMDL
MODEL        5
REMARK 921   NORMALIZED FREE ENERGY PREDICTED BY IDOCK:   -6.85 KCAL/MOL
REMARK 922        TOTAL FREE ENERGY PREDICTED BY IDOCK:  -12.44 KCAL/MOL
REMARK 923 INTER-LIGAND FREE ENERGY PREDICTED BY IDOCK:  -10.92 KCAL/MOL
REMARK 924 INTRA-LIGAND FREE ENERGY PREDICTED BY IDOCK:   -1.52 KCAL/MOL
REMARK 927      BINDING AFFINITY PREDICTED BY RF-SCORE:    0.00 PKD
ROOT
HETATM    1  C   UNL     1      -9.057  10.831  68.901  1.00  0.00    -0.170 C  
HETATM    2  C   UNL     1     -10.408  11.496  68.768  1.00  0.00    -0.196 C  
ENDROOT
BRANCH   2   3
HETATM    3  O   UNL     1     -11.372  10.773  69.561  1.00  0.00    -0.243 OA 
BRANCH   3   4
HETATM    4  C   UNL     1     -12.117  11.554  70.409  1.00  0.00    -0.382 A  
HETATM    5  C   UNL     1     -12.801  10.944  71.472  1.00  0.00    -0.560 A  
HETATM    6  C   UNL     1     -13.619  11.734  72.300  1.00  0.00    -0.052 A  
HETATM    7  C   UNL     1     -12.753   9.478  71.791  1.00  0.00    -0.404 C  
HETATM    8  C   UNL     1     -13.754  13.103  72.080  1.00  0.00    -0.588 A  
HETATM    9  O   UNL     1     -13.439   8.972  72.671  1.00  0.00    -0.463 OA 
HETATM   10  O   UNL     1     -11.884   8.761  71.059  1.00  0.00    -0.286 OA 
HETATM   11  C   UNL     1     -13.053  13.720  71.039  1.00  0.00    -0.276 A  
HETATM   12  C   UNL     1     -12.209  12.945  70.239  1.00  0.00    -0.362 A  
BRANCH  11  13
HETATM   13  C   UNL     1     -13.194  15.197  70.773  1.00  0.00    -0.433 C  
BRANCH  13  14
HETATM   14  C   UNL     1     -11.970  15.808  70.118  1.00  0.00    -0.347 C  
HETATM   15  O   UNL     1     -11.060  16.262  70.810  1.00  0.00    -0.320 OA 
HETATM   16  N   UNL     1     -11.955  15.793  68.733  1.00  0.00    -0.546 N  
HETATM   17  H   UNL     1     -12.771  15.448  68.229  1.00  0.00     0.000 HD 
BRANCH  16  18
HETATM   18  C   UNL     1     -10.783  16.267  67.974  1.00  0.00    -0.331 C  
BRANCH  18  19
HETATM   19  C   UNL     1      -9.552  15.344  67.977  1.00  0.00    -0.206 A  
HETATM   20  C   UNL     1      -9.269  14.383  66.948  1.00  0.00    -0.254 A  
HETATM   21  C   UNL     1      -8.015  13.720  67.042  1.00  0.00     0.050 A  
HETATM   22  C   UNL     1      -8.566  15.584  68.978  1.00  0.00    -0.234 A  
HETATM   23  C   UNL     1      -7.063  13.983  68.028  1.00  0.00    -0.147 A  
HETATM   24  C   UNL     1      -7.340  14.918  69.003  1.00  0.00    -0.143 A  
BRANCH  20  25
HETATM   25  N   UNL     1     -10.091  14.019  65.875  1.00  0.00    -0.311 NA 
HETATM   26  C   UNL     1     -10.224  12.599  65.477  1.00  0.00    -0.281 C  
HETATM   27  C   UNL     1     -11.706  12.265  65.275  1.00  0.00    -0.413 C  
HETATM   28  C   UNL     1     -12.323  13.166  64.211  1.00  0.00    -0.421 C  
HETATM   29  C   UNL     1     -12.103  14.625  64.568  1.00  0.00    -0.490 C  
HETATM   30  C   UNL     1     -10.647  14.939  64.884  1.00  0.00    -0.391 C  
ENDBRANCH  20  25
ENDBRANCH  18  19
BRANCH  18  31
HETATM   31  C   UNL     1     -10.343  17.680  68.405  1.00  0.00    -0.375 C  
HETATM   32  C   UNL     1     -10.339  18.786  66.074  1.00  0.00    -0.467 C  
HETATM   33  C   UNL     1     -10.831  18.847  67.522  1.00  0.00    -0.440 C  
HETATM   34  C   UNL     1     -10.340  20.163  68.135  1.00  0.00    -0.441 C  
ENDBRANCH  18  31
ENDBRANCH  16  18
ENDBRANCH  13  14
ENDBRANCH  11  13
ENDBRANCH   3   4
ENDBRANCH   2   3
TORSDOF 8
ENDMDL
MODEL        6
REMARK 921   NORMALIZED FREE ENERGY PREDICTED BY IDOCK:   -6.81 KCAL/MOL
REMARK 922        TOTAL FREE ENERGY PREDICTED BY IDOCK:  -12.39 KCAL/MOL
REMARK 923 INTER-LIGAND FREE ENERGY PREDICTED BY IDOCK:   -9.87 KCAL/MOL
REMARK 924 INTRA-LIGAND FREE ENERGY PREDICTED BY IDOCK:   -2.52 KCAL/MOL
REMARK 927      BINDING AFFINITY PREDICTED BY RF-SCORE:    0.00 PKD
ROOT
HETATM    1  C   UNL     1     -10.692   5.943  69.301  1.00  0.00    -0.401 C  
HETATM    2  C   UNL     1     -10.587   7.393  68.884  1.00  0.00    -0.176 C  
ENDROOT
BRANCH   2   3
HETATM    3  O   UNL     1     -10.390   8.209  70.056  1.00  0.00    -0.206 OA 
BRANCH   3   4
HETATM    4  C   UNL     1     -10.881   9.487  69.953  1.00  0.00    -0.246 A  
HETATM    5  C   UNL     1     -11.910   9.892  70.818  1.00  0.00    -0.415 A  
HETATM    6  C   UNL     1     -12.460  11.178  70.668  1.00  0.00    -0.448 A  
HETATM    7  C   UNL     1     -12.506   9.037  71.898  1.00  0.00    -0.384 C  
HETATM    8  C   UNL     1     -11.997  12.046  69.681  1.00  0.00    -0.360 A  
HETATM    9  O   UNL     1     -13.465   9.397  72.569  1.00  0.00    -0.455 OA 
HETATM   10  O   UNL     1     -11.895   7.857  72.097  1.00  0.00    -0.300 OA 
HETATM   11  C   UNL     1     -10.954  11.657  68.836  1.00  0.00    -0.282 A  
HETATM   12  C   UNL     1     -10.378  10.394  69.007  1.00  0.00    -0.232 A  
BRANCH  11  13
HETATM   13  C   UNL     1     -10.446  12.573  67.752  1.00  0.00    -0.230 C  
BRANCH  13  14
HETATM   14  C   UNL     1     -11.058  13.960  67.803  1.00  0.00    -0.262 C  
HETATM   15  O   UNL     1     -12.081  14.208  67.166  1.00  0.00    -0.426 OA 
HETATM   16  N   UNL     1     -10.408  14.878  68.610  1.00  0.00    -0.231 N  
HETATM   17  H   UNL     1      -9.535  14.613  69.066  1.00  0.00     0.000 HD 
BRANCH  16  18
HETATM   18  C   UNL     1     -10.953  16.231  68.825  1.00  0.00    -0.343 C  
BRANCH  18  19
HETATM   19  C   UNL     1     -10.216  17.382  68.117  1.00  0.00    -0.350 A  
HETATM   20  C   UNL     1      -8.837  17.325  67.721  1.00  0.00    -0.234 A  
HETATM   21  C   UNL     1      -8.363  18.424  66.952  1.00  0.00    -0.261 A  
HETATM   22  C   UNL     1     -11.004  18.492  67.695  1.00  0.00    -0.185 A  
HETATM   23  C   UNL     1      -9.162  19.494  66.544  1.00  0.00    -0.424 A  
HETATM   24  C   UNL     1     -10.488  19.529  66.918  1.00  0.00    -0.589 A  
BRANCH  20  25
HETATM   25  N   UNL     1      -7.908  16.321  68.017  1.00  0.00    -0.147 NA 
HETATM   26  C   UNL     1      -7.221  16.295  69.328  1.00  0.00    -0.221 C  
HETATM   27  C   UNL     1      -7.263  14.871  69.894  1.00  0.00    -0.069 C  
HETATM   28  C   UNL     1      -6.599  13.888  68.936  1.00  0.00    -0.103 C  
HETATM   29  C   UNL     1      -7.237  13.983  67.562  1.00  0.00    -0.183 C  
HETATM   30  C   UNL     1      -7.304  15.413  67.043  1.00  0.00    -0.092 C  
ENDBRANCH  20  25
ENDBRANCH  18  19
BRANCH  18  31
HETATM   31  C   UNL     1     -11.085  16.575  70.321  1.00  0.00    -0.171 C  
HETATM   32  C   UNL     1     -13.297  15.331  70.788  1.00  0.00    -0.402 C  
HETATM   33  C   UNL     1     -11.838  15.551  71.195  1.00  0.00    -0.435 C  
HETATM   34  C   UNL     1     -11.819  16.038  72.648  1.00  0.00    -0.611 C  
ENDBRANCH  18  31
ENDBRANCH  16  18
ENDBRANCH  13  14
ENDBRANCH  11  13
ENDBRANCH   3   4
ENDBRANCH   2   3
TORSDOF 8
ENDMDL
MODEL        7
REMARK 921   NORMALIZED FREE ENERGY PREDICTED BY IDOCK:   -6.81 KCAL/MOL
REMARK 922        TOTAL FREE ENERGY PREDICTED BY IDOCK:  -12.39 KCAL/MOL
REMARK 923 INTER-LIGAND FREE ENERGY PREDICTED BY IDOCK:  -10.21 KCAL/MOL
REMARK 924 INTRA-LIGAND FREE ENERGY PREDICTED BY IDOCK:   -2.18 KCAL/MOL
REMARK 927      BINDING AFFINITY PREDICTED BY RF-SCORE:    0.00 PKD
ROOT
HETATM    1  C   UNL     1     -11.858  14.759  68.457  1.00  0.00    -0.340 C  
HETATM    2  C   UNL     1     -11.575  13.289  68.244  1.00  0.00    -0.334 C  
ENDROOT
BRANCH   2   3
HETATM    3  O   UNL     1     -12.250  12.846  67.048  1.00  0.00    -0.391 OA 
BRANCH   3   4
HETATM    4  C   UNL     1     -11.476  12.096  66.199  1.00  0.00    -0.371 A  
HETATM    5  C   UNL     1     -11.555  12.333  64.818  1.00  0.00    -0.393 A  
HETATM    6  C   UNL     1     -10.813  11.518  63.942  1.00  0.00    -0.469 A  
HETATM    7  C   UNL     1     -12.407  13.390  64.179  1.00  0.00    -0.333 C  
HETATM    8  C   UNL     1     -10.007  10.491  64.427  1.00  0.00    -0.410 A  
HETATM    9  O   UNL     1     -12.518  13.502  62.964  1.00  0.00    -0.709 OA 
HETATM   10  O   UNL     1     -13.021  14.226  65.034  1.00  0.00    -0.693 OA 
HETATM   11  C   UNL     1      -9.904  10.269  65.804  1.00  0.00    -0.320 A  
HETATM   12  C   UNL     1     -10.609  11.101  66.678  1.00  0.00    -0.314 A  
BRANCH  11  13
HETATM   13  C   UNL     1      -9.049   9.155  66.351  1.00  0.00    -0.211 C  
BRANCH  13  14
HETATM   14  C   UNL     1      -9.582   8.569  67.644  1.00  0.00    -0.153 C  
HETATM   15  O   UNL     1     -10.403   7.654  67.616  1.00  0.00    -0.202 OA 
HETATM   16  N   UNL     1      -9.073   9.114  68.810  1.00  0.00    -0.136 N  
HETATM   17  H   UNL     1      -8.434   9.908  68.753  1.00  0.00     0.000 HD 
BRANCH  16  18
HETATM   18  C   UNL     1      -9.434   8.571  70.132  1.00  0.00    -0.165 C  
BRANCH  18  19
HETATM   19  C   UNL     1     -10.781   9.036  70.715  1.00  0.00    -0.301 A  
HETATM   20  C   UNL     1     -11.433   8.401  71.825  1.00  0.00    -0.301 A  
HETATM   21  C   UNL     1     -12.598   9.052  72.319  1.00  0.00    -0.445 A  
HETATM   22  C   UNL     1     -11.313  10.260  70.217  1.00  0.00    -0.398 A  
HETATM   23  C   UNL     1     -13.091  10.258  71.818  1.00  0.00    -0.570 A  
HETATM   24  C   UNL     1     -12.447  10.864  70.760  1.00  0.00    -0.489 A  
BRANCH  20  25
HETATM   25  N   UNL     1     -11.061   7.213  72.465  1.00  0.00    -0.265 NA 
HETATM   26  C   UNL     1     -11.571   5.909  71.986  1.00  0.00    -0.228 C  
HETATM   27  C   UNL     1     -10.409   4.913  71.895  1.00  0.00    -0.259 C  
HETATM   28  C   UNL     1      -9.734   4.744  73.252  1.00  0.00    -0.156 C  
HETATM   29  C   UNL     1      -9.298   6.093  73.792  1.00  0.00    -0.136 C  
HETATM   30  C   UNL     1     -10.419   7.123  73.777  1.00  0.00    -0.329 C  
ENDBRANCH  20  25
ENDBRANCH  18  19
BRANCH  18  31
HETATM   31  C   UNL     1      -8.331   8.814  71.182  1.00  0.00    -0.219 C  
HETATM   32  C   UNL     1      -6.987   6.644  70.808  1.00  0.00    -0.067 C  
HETATM   33  C   UNL     1      -6.959   8.172  70.894  1.00  0.00    -0.043 C  
HETATM   34  C   UNL     1      -5.989   8.566  72.013  1.00  0.00    -0.060 C  
ENDBRANCH  18  31
ENDBRANCH  16  18
ENDBRANCH  13  14
ENDBRANCH  11  13
ENDBRANCH   3   4
ENDBRANCH   2   3
TORSDOF 8
ENDMDL
MODEL        8
REMARK 921   NORMALIZED FREE ENERGY PREDICTED BY IDOCK:   -6.76 KCAL/MOL
REMARK 922        TOTAL FREE ENERGY PREDICTED BY IDOCK:  -12.31 KCAL/MOL
REMARK 923 INTER-LIGAND FREE ENERGY PREDICTED BY IDOCK:  -10.93 KCAL/MOL
REMARK 924 INTRA-LIGAND FREE ENERGY PREDICTED BY IDOCK:   -1.38 KCAL/MOL
REMARK 927      BINDING AFFINITY PREDICTED BY RF-SCORE:    0.00 PKD
ROOT
HETATM    1  C   UNL     1     -10.534  18.359  67.086  1.00  0.00    -0.434 C  
HETATM    2  C   UNL     1      -9.292  17.513  66.928  1.00  0.00    -0.269 C  
ENDROOT
BRANCH   2   3
HETATM    3  O   UNL     1      -9.423  16.696  65.746  1.00  0.00    -0.495 OA 
BRANCH   3   4
HETATM    4  C   UNL     1      -9.691  15.373  65.993  1.00  0.00    -0.338 A  
HETATM    5  C   UNL     1     -10.813  14.782  65.390  1.00  0.00    -0.372 A  
HETATM    6  C   UNL     1     -11.126  13.444  65.696  1.00  0.00    -0.298 A  
HETATM    7  C   UNL     1     -11.745  15.482  64.446  1.00  0.00    -0.242 C  
HETATM    8  C   UNL     1     -10.341  12.707  66.580  1.00  0.00    -0.256 A  
HETATM    9  O   UNL     1     -12.764  14.957  64.015  1.00  0.00    -0.792 OA 
HETATM   10  O   UNL     1     -11.368  16.720  64.082  1.00  0.00    -1.194 OA 
HETATM   11  C   UNL     1      -9.207  13.283  67.161  1.00  0.00    -0.235 A  
HETATM   12  C   UNL     1      -8.871  14.599  66.829  1.00  0.00    -0.269 A  
BRANCH  11  13
HETATM   13  C   UNL     1      -8.351  12.510  68.131  1.00  0.00    -0.175 C  
BRANCH  13  14
HETATM   14  C   UNL     1      -8.888  11.125  68.433  1.00  0.00    -0.157 C  
HETATM   15  O   UNL     1      -8.785  10.226  67.601  1.00  0.00    -0.122 OA 
HETATM   16  N   UNL     1      -9.463  10.959  69.683  1.00  0.00    -0.363 N  
HETATM   17  H   UNL     1      -9.560  11.766  70.298  1.00  0.00     0.000 HD 
BRANCH  16  18
HETATM   18  C   UNL     1      -9.936   9.640  70.140  1.00  0.00    -0.261 C  
BRANCH  18  19
HETATM   19  C   UNL     1     -11.329   9.606  70.794  1.00  0.00    -0.409 A  
HETATM   20  C   UNL     1     -11.950   8.410  71.291  1.00  0.00    -0.288 A  
HETATM   21  C   UNL     1     -13.175   8.589  71.991  1.00  0.00    -0.399 A  
HETATM   22  C   UNL     1     -11.951  10.860  71.059  1.00  0.00    -0.375 A  
HETATM   23  C   UNL     1     -13.755   9.832  72.245  1.00  0.00    -0.324 A  
HETATM   24  C   UNL     1     -13.142  10.974  71.775  1.00  0.00    -0.554 A  
BRANCH  20  25
HETATM   25  N   UNL     1     -11.494   7.094  71.153  1.00  0.00    -0.277 NA 
HETATM   26  C   UNL     1     -11.503   6.430  69.829  1.00  0.00    -0.399 C  
HETATM   27  C   UNL     1     -10.154   5.738  69.601  1.00  0.00    -0.276 C  
HETATM   28  C   UNL     1      -9.878   4.715  70.697  1.00  0.00    -0.296 C  
HETATM   29  C   UNL     1      -9.965   5.373  72.061  1.00  0.00    -0.232 C  
HETATM   30  C   UNL     1     -11.254   6.161  72.253  1.00  0.00    -0.289 C  
ENDBRANCH  20  25
ENDBRANCH  18  19
BRANCH  18  31
HETATM   31  C   UNL     1      -8.929   8.957  71.086  1.00  0.00    -0.305 C  
HETATM   32  C   UNL     1      -7.744   7.468  69.343  1.00  0.00    -0.111 C  
HETATM   33  C   UNL     1      -7.595   8.508  70.456  1.00  0.00    -0.074 C  
HETATM   34  C   UNL     1      -6.713   7.903  71.554  1.00  0.00    -0.047 C  
ENDBRANCH  18  31
ENDBRANCH  16  18
ENDBRANCH  13  14
ENDBRANCH  11  13
ENDBRANCH   3   4
ENDBRANCH   2   3
TORSDOF 8
ENDMDL
MODEL        9
REMARK 921   NORMALIZED FREE ENERGY PREDICTED BY IDOCK:   -6.74 KCAL/MOL
REMARK 922        TOTAL FREE ENERGY PREDICTED BY IDOCK:  -12.29 KCAL/MOL
REMARK 923 INTER-LIGAND FREE ENERGY PREDICTED BY IDOCK:  -10.62 KCAL/MOL
REMARK 924 INTRA-LIGAND FREE ENERGY PREDICTED BY IDOCK:   -1.67 KCAL/MOL
REMARK 927      BINDING AFFINITY PREDICTED BY RF-SCORE:    0.00 PKD
ROOT
HETATM    1  C   UNL     1     -10.307   9.868  66.835  1.00  0.00    -0.300 C  
HETATM    2  C   UNL     1     -11.217  10.596  67.799  1.00  0.00    -0.313 C  
ENDROOT
BRANCH   2   3
HETATM    3  O   UNL     1     -10.880  10.215  69.148  1.00  0.00    -0.207 OA 
BRANCH   3   4
HETATM    4  C   UNL     1     -11.663  10.790  70.118  1.00  0.00    -0.339 A  
HETATM    5  C   UNL     1     -12.294   9.964  71.061  1.00  0.00    -0.451 A  
HETATM    6  C   UNL     1     -13.151  10.547  72.013  1.00  0.00    -0.511 A  
HETATM    7  C   UNL     1     -12.150   8.471  71.124  1.00  0.00    -0.252 C  
HETATM    8  C   UNL     1     -13.376  11.921  72.031  1.00  0.00    -0.425 A  
HETATM    9  O   UNL     1     -12.791   7.779  71.905  1.00  0.00    -0.313 OA 
HETATM   10  O   UNL     1     -11.245   7.947  70.280  1.00  0.00    -0.264 OA 
HETATM   11  C   UNL     1     -12.728  12.751  71.110  1.00  0.00    -0.355 A  
HETATM   12  C   UNL     1     -11.846  12.180  70.188  1.00  0.00    -0.368 A  
BRANCH  11  13
HETATM   13  C   UNL     1     -12.966  14.239  71.100  1.00  0.00    -0.423 C  
BRANCH  13  14
HETATM   14  C   UNL     1     -11.701  15.048  70.894  1.00  0.00    -0.328 C  
HETATM   15  O   UNL     1     -11.001  15.358  71.857  1.00  0.00    -0.289 OA 
HETATM   16  N   UNL     1     -11.400  15.377  69.583  1.00  0.00    -0.282 N  
HETATM   17  H   UNL     1     -12.057  15.130  68.843  1.00  0.00     0.000 HD 
BRANCH  16  18
HETATM   18  C   UNL     1     -10.150  16.076  69.234  1.00  0.00    -0.249 C  
BRANCH  18  19
HETATM   19  C   UNL     1     -10.206  16.997  68.003  1.00  0.00    -0.319 A  
HETATM   20  C   UNL     1     -10.599  16.559  66.693  1.00  0.00    -0.216 A  
HETATM   21  C   UNL     1     -10.729  17.578  65.708  1.00  0.00    -0.106 A  
HETATM   22  C   UNL     1     -10.010  18.391  68.228  1.00  0.00    -0.394 A  
HETATM   23  C   UNL     1     -10.541  18.937  65.961  1.00  0.00    -0.470 A  
HETATM   24  C   UNL     1     -10.177  19.346  67.226  1.00  0.00    -0.525 A  
BRANCH  20  25
HETATM   25  N   UNL     1     -10.855  15.248  66.276  1.00  0.00    -0.314 NA 
HETATM   26  C   UNL     1     -12.133  14.585  66.621  1.00  0.00    -0.296 C  
HETATM   27  C   UNL     1     -12.706  13.907  65.371  1.00  0.00    -0.525 C  
HETATM   28  C   UNL     1     -11.722  12.887  64.810  1.00  0.00    -0.391 C  
HETATM   29  C   UNL     1     -10.379  13.542  64.547  1.00  0.00    -0.381 C  
HETATM   30  C   UNL     1      -9.857  14.316  65.750  1.00  0.00    -0.287 C  
ENDBRANCH  20  25
ENDBRANCH  18  19
BRANCH  18  31
HETATM   31  C   UNL     1      -8.965  15.103  69.071  1.00  0.00    -0.219 C  
HETATM   32  C   UNL     1      -7.060  16.842  69.101  1.00  0.00    -0.224 C  
HETATM   33  C   UNL     1      -7.625  15.548  69.691  1.00  0.00    -0.144 C  
HETATM   34  C   UNL     1      -6.592  14.437  69.473  1.00  0.00    -0.141 C  
ENDBRANCH  18  31
ENDBRANCH  16  18
ENDBRANCH  13  14
ENDBRANCH  11  13
ENDBRANCH   3   4
ENDBRANCH   2   3
TORSDOF 8
ENDMDL
MODEL       10
REMARK 921   NORMALIZED FREE ENERGY PREDICTED BY IDOCK:   -6.73 KCAL/MOL
REMARK 922        TOTAL FREE ENERGY PREDICTED BY IDOCK:  -12.27 KCAL/MOL
REMARK 923 INTER-LIGAND FREE ENERGY PREDICTED BY IDOCK:  -10.34 KCAL/MOL
REMARK 924 INTRA-LIGAND FREE ENERGY PREDICTED BY IDOCK:   -1.92 KCAL/MOL
REMARK 927      BINDING AFFINITY PREDICTED BY RF-SCORE:    0.00 PKD
ROOT
HETATM    1  C   UNL     1     -14.407   8.016  71.911  1.00  0.00    -0.559 C  
HETATM    2  C   UNL     1     -13.083   8.614  72.329  1.00  0.00    -0.372 C  
ENDROOT
BRANCH   2   3
HETATM    3  O   UNL     1     -12.030   7.663  72.066  1.00  0.00    -0.285 OA 
BRANCH   3   4
HETATM    4  C   UNL     1     -10.934   8.185  71.426  1.00  0.00    -0.237 A  
HETATM    5  C   UNL     1      -9.707   8.232  72.106  1.00  0.00    -0.344 A  
HETATM    6  C   UNL     1      -8.600   8.829  71.475  1.00  0.00    -0.253 A  
HETATM    7  C   UNL     1      -9.478   7.711  73.495  1.00  0.00    -0.289 C  
HETATM    8  C   UNL     1      -8.707   9.366  70.195  1.00  0.00    -0.245 A  
HETATM    9  O   UNL     1      -8.415   7.855  74.086  1.00  0.00    -0.237 OA 
HETATM   10  O   UNL     1     -10.515   7.049  74.036  1.00  0.00    -0.366 OA 
HETATM   11  C   UNL     1      -9.920   9.297  69.503  1.00  0.00    -0.194 A  
HETATM   12  C   UNL     1     -11.012   8.670  70.111  1.00  0.00    -0.234 A  
BRANCH  11  13
HETATM   13  C   UNL     1     -10.064   9.884  68.122  1.00  0.00    -0.193 C  
BRANCH  13  14
HETATM   14  C   UNL     1      -9.902  11.392  68.091  1.00  0.00    -0.191 C  
HETATM   15  O   UNL     1      -8.793  11.891  67.905  1.00  0.00    -0.157 OA 
HETATM   16  N   UNL     1     -11.062  12.128  68.261  1.00  0.00    -0.225 N  
HETATM   17  H   UNL     1     -11.936  11.643  68.463  1.00  0.00     0.000 HD 
BRANCH  16  18
HETATM   18  C   UNL     1     -11.060  13.598  68.155  1.00  0.00    -0.256 C  
BRANCH  18  19
HETATM   19  C   UNL     1     -11.418  14.374  69.435  1.00  0.00    -0.330 A  
HETATM   20  C   UNL     1     -11.020  15.730  69.687  1.00  0.00    -0.306 A  
HETATM   21  C   UNL     1     -11.562  16.332  70.856  1.00  0.00    -0.321 A  
HETATM   22  C   UNL     1     -12.332  13.751  70.335  1.00  0.00    -0.423 A  
HETATM   23  C   UNL     1     -12.464  15.701  71.714  1.00  0.00    -0.507 A  
HETATM   24  C   UNL     1     -12.849  14.403  71.454  1.00  0.00    -0.410 A  
BRANCH  20  25
HETATM   25  N   UNL     1     -10.153  16.518  68.921  1.00  0.00    -0.251 NA 
HETATM   26  C   UNL     1     -10.689  17.531  67.983  1.00  0.00    -0.341 C  
HETATM   27  C   UNL     1      -9.925  18.847  68.168  1.00  0.00    -0.431 C  
HETATM   28  C   UNL     1      -8.433  18.646  67.925  1.00  0.00    -0.297 C  
HETATM   29  C   UNL     1      -7.902  17.539  68.817  1.00  0.00    -0.242 C  
HETATM   30  C   UNL     1      -8.727  16.263  68.725  1.00  0.00    -0.244 C  
ENDBRANCH  20  25
ENDBRANCH  18  19
BRANCH  18  31
HETATM   31  C   UNL     1     -11.956  14.101  67.006  1.00  0.00    -0.471 C  
HETATM   32  C   UNL     1     -10.091  14.912  65.418  1.00  0.00    -0.400 C  
HETATM   33  C   UNL     1     -11.345  14.052  65.590  1.00  0.00    -0.313 C  
HETATM   34  C   UNL     1     -12.395  14.538  64.586  1.00  0.00    -0.419 C  
ENDBRANCH  18  31
ENDBRANCH  16  18
ENDBRANCH  13  14
ENDBRANCH  11  13
ENDBRANCH   3   4
ENDBRANCH   2   3
TORSDOF 8
ENDMDL
MODEL       11
REMARK 921   NORMALIZED FREE ENERGY PREDICTED BY IDOCK:   -6.67 KCAL/MOL
REMARK 922        TOTAL FREE ENERGY PREDICTED BY IDOCK:  -12.19 KCAL/MOL
REMARK 923 INTER-LIGAND FREE ENERGY PREDICTED BY IDOCK:   -9.01 KCAL/MOL
REMARK 924 INTRA-LIGAND FREE ENERGY PREDICTED BY IDOCK:   -3.18 KCAL/MOL
REMARK 927      BINDING AFFINITY PREDICTED BY RF-SCORE:    0.00 PKD
ROOT
HETATM    1  C   UNL     1      -5.364   9.191  66.812  1.00  0.00    -0.039 C  
HETATM    2  C   UNL     1      -5.692  10.633  67.126  1.00  0.00    -0.043 C  
ENDROOT
BRANCH   2   3
HETATM    3  O   UNL     1      -6.655  11.119  66.168  1.00  0.00    -0.109 OA 
BRANCH   3   4
HETATM    4  C   UNL     1      -7.955  10.767  66.435  1.00  0.00    -0.151 A  
HETATM    5  C   UNL     1      -8.748  10.253  65.397  1.00  0.00    -0.183 A  
HETATM    6  C   UNL     1     -10.099   9.957  65.654  1.00  0.00    -0.307 A  
HETATM    7  C   UNL     1      -8.271  10.013  63.995  1.00  0.00    -0.156 C  
HETATM    8  C   UNL     1     -10.652  10.163  66.916  1.00  0.00    -0.267 A  
HETATM    9  O   UNL     1      -9.021   9.651  63.097  1.00  0.00    -0.239 OA 
HETATM   10  O   UNL     1      -6.955  10.198  63.798  1.00  0.00    -0.130 OA 
HETATM   11  C   UNL     1      -9.859  10.649  67.960  1.00  0.00    -0.177 A  
HETATM   12  C   UNL     1      -8.506  10.908  67.719  1.00  0.00    -0.124 A  
BRANCH  11  13
HETATM   13  C   UNL     1     -10.438  10.894  69.330  1.00  0.00    -0.230 C  
BRANCH  13  14
HETATM   14  C   UNL     1     -11.297  12.142  69.404  1.00  0.00    -0.245 C  
HETATM   15  O   UNL     1     -12.520  12.048  69.485  1.00  0.00    -0.052 OA 
HETATM   16  N   UNL     1     -10.614  13.347  69.393  1.00  0.00    -0.432 N  
HETATM   17  H   UNL     1      -9.601  13.346  69.270  1.00  0.00     0.000 HD 
BRANCH  16  18
HETATM   18  C   UNL     1     -11.320  14.630  69.557  1.00  0.00    -0.280 C  
BRANCH  18  19
HETATM   19  C   UNL     1     -10.854  15.785  68.653  1.00  0.00    -0.278 A  
HETATM   20  C   UNL     1     -10.867  15.732  67.218  1.00  0.00    -0.298 A  
HETATM   21  C   UNL     1     -10.537  16.942  66.546  1.00  0.00    -0.185 A  
HETATM   22  C   UNL     1     -10.551  17.024  69.289  1.00  0.00    -0.276 A  
HETATM   23  C   UNL     1     -10.254  18.144  67.196  1.00  0.00    -0.376 A  
HETATM   24  C   UNL     1     -10.259  18.185  68.574  1.00  0.00    -0.399 A  
BRANCH  20  25
HETATM   25  N   UNL     1     -11.153  14.625  66.410  1.00  0.00    -0.329 NA 
HETATM   26  C   UNL     1     -12.535  14.104  66.312  1.00  0.00    -0.362 C  
HETATM   27  C   UNL     1     -12.883  13.862  64.839  1.00  0.00    -0.221 C  
HETATM   28  C   UNL     1     -11.906  12.876  64.207  1.00  0.00    -0.457 C  
HETATM   29  C   UNL     1     -10.480  13.361  64.392  1.00  0.00    -0.403 C  
HETATM   30  C   UNL     1     -10.162  13.714  65.839  1.00  0.00    -0.311 C  
ENDBRANCH  20  25
ENDBRANCH  18  19
BRANCH  18  31
HETATM   31  C   UNL     1     -11.313  15.116  71.021  1.00  0.00    -0.358 C  
HETATM   32  C   UNL     1     -13.864  15.327  71.346  1.00  0.00    -0.603 C  
HETATM   33  C   UNL     1     -12.548  14.747  71.869  1.00  0.00    -0.404 C  
HETATM   34  C   UNL     1     -12.334  15.266  73.295  1.00  0.00    -0.588 C  
ENDBRANCH  18  31
ENDBRANCH  16  18
ENDBRANCH  13  14
ENDBRANCH  11  13
ENDBRANCH   3   4
ENDBRANCH   2   3
TORSDOF 8
ENDMDL
MODEL       12
REMARK 921   NORMALIZED FREE ENERGY PREDICTED BY IDOCK:   -6.66 KCAL/MOL
REMARK 922        TOTAL FREE ENERGY PREDICTED BY IDOCK:  -12.18 KCAL/MOL
REMARK 923 INTER-LIGAND FREE ENERGY PREDICTED BY IDOCK:   -9.64 KCAL/MOL
REMARK 924 INTRA-LIGAND FREE ENERGY PREDICTED BY IDOCK:   -2.54 KCAL/MOL
REMARK 927      BINDING AFFINITY PREDICTED BY RF-SCORE:    0.00 PKD
ROOT
HETATM    1  C   UNL     1     -12.784  15.519  73.664  1.00  0.00    -0.713 C  
HETATM    2  C   UNL     1     -13.168  14.310  72.841  1.00  0.00    -0.495 C  
ENDROOT
BRANCH   2   3
HETATM    3  O   UNL     1     -12.840  14.556  71.458  1.00  0.00    -0.303 OA 
BRANCH   3   4
HETATM    4  C   UNL     1     -12.486  13.437  70.746  1.00  0.00    -0.341 A  
HETATM    5  C   UNL     1     -11.865  13.593  69.497  1.00  0.00    -0.394 A  
HETATM    6  C   UNL     1     -11.565  12.448  68.736  1.00  0.00    -0.373 A  
HETATM    7  C   UNL     1     -11.513  14.914  68.876  1.00  0.00    -0.299 C  
HETATM    8  C   UNL     1     -11.871  11.173  69.207  1.00  0.00    -0.422 A  
HETATM    9  O   UNL     1     -11.056  15.008  67.743  1.00  0.00    -0.288 OA 
HETATM   10  O   UNL     1     -11.706  15.986  69.662  1.00  0.00    -0.328 OA 
HETATM   11  C   UNL     1     -12.464  11.011  70.463  1.00  0.00    -0.432 A  
HETATM   12  C   UNL     1     -12.729  12.145  71.238  1.00  0.00    -0.363 A  
BRANCH  11  13
HETATM   13  C   UNL     1     -12.817   9.643  70.988  1.00  0.00    -0.342 C  
BRANCH  13  14
HETATM   14  C   UNL     1     -11.607   8.762  71.229  1.00  0.00    -0.292 C  
HETATM   15  O   UNL     1     -10.735   9.113  72.023  1.00  0.00    -0.341 OA 
HETATM   16  N   UNL     1     -11.577   7.570  70.526  1.00  0.00    -0.420 N  
HETATM   17  H   UNL     1     -12.311   7.373  69.846  1.00  0.00     0.000 HD 
BRANCH  16  18
HETATM   18  C   UNL     1     -10.507   6.579  70.741  1.00  0.00    -0.220 C  
BRANCH  18  19
HETATM   19  C   UNL     1     -10.046   5.795  69.500  1.00  0.00    -0.278 A  
HETATM   20  C   UNL     1      -9.595   6.413  68.285  1.00  0.00    -0.123 A  
HETATM   21  C   UNL     1      -9.071   5.535  67.296  1.00  0.00    -0.110 A  
HETATM   22  C   UNL     1      -9.911   4.383  69.640  1.00  0.00    -0.272 A  
HETATM   23  C   UNL     1      -8.942   4.156  67.465  1.00  0.00    -0.142 A  
HETATM   24  C   UNL     1      -9.365   3.576  68.642  1.00  0.00    -0.230 A  
BRANCH  20  25
HETATM   25  N   UNL     1      -9.624   7.775  67.962  1.00  0.00    -0.148 NA 
HETATM   26  C   UNL     1      -8.778   8.741  68.699  1.00  0.00    -0.134 C  
HETATM   27  C   UNL     1      -8.072   9.662  67.699  1.00  0.00    -0.113 C  
HETATM   28  C   UNL     1      -9.087  10.406  66.838  1.00  0.00    -0.159 C  
HETATM   29  C   UNL     1     -10.018   9.421  66.156  1.00  0.00    -0.351 C  
HETATM   30  C   UNL     1     -10.636   8.426  67.130  1.00  0.00    -0.256 C  
ENDBRANCH  20  25
ENDBRANCH  18  19
BRANCH  18  31
HETATM   31  C   UNL     1     -10.859   5.576  71.857  1.00  0.00    -0.286 C  
HETATM   32  C   UNL     1      -8.566   5.525  73.038  1.00  0.00    -0.121 C  
HETATM   33  C   UNL     1     -10.077   5.720  73.179  1.00  0.00    -0.200 C  
HETATM   34  C   UNL     1     -10.599   4.678  74.174  1.00  0.00    -0.348 C  
ENDBRANCH  18  31
ENDBRANCH  16  18
ENDBRANCH  13  14
ENDBRANCH  11  13
ENDBRANCH   3   4
ENDBRANCH   2   3
TORSDOF 8
ENDMDL
MODEL       13
REMARK 921   NORMALIZED FREE ENERGY PREDICTED BY IDOCK:   -6.66 KCAL/MOL
REMARK 922        TOTAL FREE ENERGY PREDICTED BY IDOCK:  -12.17 KCAL/MOL
REMARK 923 INTER-LIGAND FREE ENERGY PREDICTED BY IDOCK:  -10.13 KCAL/MOL
REMARK 924 INTRA-LIGAND FREE ENERGY PREDICTED BY IDOCK:   -2.04 KCAL/MOL
REMARK 927      BINDING AFFINITY PREDICTED BY RF-SCORE:    0.00 PKD
ROOT
HETATM    1  C   UNL     1     -14.359   7.903  71.664  1.00  0.00    -0.595 C  
HETATM    2  C   UNL     1     -12.859   7.914  71.848  1.00  0.00    -0.308 C  
ENDROOT
BRANCH   2   3
HETATM    3  O   UNL     1     -12.379   6.555  71.906  1.00  0.00    -0.347 OA 
BRANCH   3   4
HETATM    4  C   UNL     1     -11.488   6.219  70.917  1.00  0.00    -0.312 A  
HETATM    5  C   UNL     1     -10.496   5.264  71.190  1.00  0.00    -0.275 A  
HETATM    6  C   UNL     1      -9.541   4.971  70.199  1.00  0.00    -0.257 A  
HETATM    7  C   UNL     1     -10.348   4.533  72.493  1.00  0.00    -0.195 C  
HETATM    8  C   UNL     1      -9.572   5.609  68.962  1.00  0.00    -0.174 A  
HETATM    9  O   UNL     1      -9.413   3.776  72.720  1.00  0.00    -0.113 OA 
HETATM   10  O   UNL     1     -11.331   4.746  73.384  1.00  0.00    -0.331 OA 
HETATM   11  C   UNL     1     -10.574   6.541  68.676  1.00  0.00    -0.289 A  
HETATM   12  C   UNL     1     -11.548   6.806  69.643  1.00  0.00    -0.234 A  
BRANCH  11  13
HETATM   13  C   UNL     1     -10.619   7.254  67.349  1.00  0.00    -0.370 C  
BRANCH  13  14
HETATM   14  C   UNL     1     -10.207   8.711  67.437  1.00  0.00    -0.262 C  
HETATM   15  O   UNL     1      -9.040   9.037  67.226  1.00  0.00    -0.132 OA 
HETATM   16  N   UNL     1     -11.217   9.608  67.741  1.00  0.00    -0.471 N  
HETATM   17  H   UNL     1     -12.150   9.255  67.955  1.00  0.00     0.000 HD 
BRANCH  16  18
HETATM   18  C   UNL     1     -10.972  11.061  67.762  1.00  0.00    -0.269 C  
BRANCH  18  19
HETATM   19  C   UNL     1     -11.457  11.816  69.012  1.00  0.00    -0.358 A  
HETATM   20  C   UNL     1     -11.424  13.246  69.146  1.00  0.00    -0.305 A  
HETATM   21  C   UNL     1     -12.045  13.777  70.310  1.00  0.00    -0.425 A  
HETATM   22  C   UNL     1     -12.123  11.050  70.013  1.00  0.00    -0.441 A  
HETATM   23  C   UNL     1     -12.700  13.002  71.269  1.00  0.00    -0.385 A  
HETATM   24  C   UNL     1     -12.737  11.632  71.122  1.00  0.00    -0.426 A  
BRANCH  20  25
HETATM   25  N   UNL     1     -10.840  14.169  68.272  1.00  0.00    -0.241 NA 
HETATM   26  C   UNL     1      -9.378  14.401  68.289  1.00  0.00    -0.206 C  
HETATM   27  C   UNL     1      -8.846  14.389  66.852  1.00  0.00    -0.246 C  
HETATM   28  C   UNL     1      -9.535  15.458  66.011  1.00  0.00    -0.381 C  
HETATM   29  C   UNL     1     -11.041  15.281  66.070  1.00  0.00    -0.278 C  
HETATM   30  C   UNL     1     -11.564  15.176  67.496  1.00  0.00    -0.257 C  
ENDBRANCH  20  25
ENDBRANCH  18  19
BRANCH  18  31
HETATM   31  C   UNL     1     -11.534  11.764  66.510  1.00  0.00    -0.325 C  
HETATM   32  C   UNL     1      -9.488  11.453  64.969  1.00  0.00    -0.209 C  
HETATM   33  C   UNL     1     -10.997  11.272  65.151  1.00  0.00    -0.216 C  
HETATM   34  C   UNL     1     -11.706  12.047  64.035  1.00  0.00    -0.498 C  
ENDBRANCH  18  31
ENDBRANCH  16  18
ENDBRANCH  13  14
ENDBRANCH  11  13
ENDBRANCH   3   4
ENDBRANCH   2   3
TORSDOF 8
ENDMDL
MODEL       14
REMARK 921   NORMALIZED FREE ENERGY PREDICTED BY IDOCK:   -6.64 KCAL/MOL
REMARK 922        TOTAL FREE ENERGY PREDICTED BY IDOCK:  -12.14 KCAL/MOL
REMARK 923 INTER-LIGAND FREE ENERGY PREDICTED BY IDOCK:   -9.61 KCAL/MOL
REMARK 924 INTRA-LIGAND FREE ENERGY PREDICTED BY IDOCK:   -2.53 KCAL/MOL
REMARK 927      BINDING AFFINITY PREDICTED BY RF-SCORE:    0.00 PKD
ROOT
HETATM    1  C   UNL     1     -11.113  15.197  67.106  1.00  0.00    -0.335 C  
HETATM    2  C   UNL     1     -11.740  14.094  67.929  1.00  0.00    -0.367 C  
ENDROOT
BRANCH   2   3
HETATM    3  O   UNL     1     -11.131  14.074  69.236  1.00  0.00    -0.248 OA 
BRANCH   3   4
HETATM    4  C   UNL     1     -11.890  13.478  70.212  1.00  0.00    -0.257 A  
HETATM    5  C   UNL     1     -12.352  14.255  71.285  1.00  0.00    -0.439 A  
HETATM    6  C   UNL     1     -13.071  13.630  72.320  1.00  0.00    -0.491 A  
HETATM    7  C   UNL     1     -12.112  15.728  71.440  1.00  0.00    -0.438 C  
HETATM    8  C   UNL     1     -13.331  12.261  72.289  1.00  0.00    -0.375 A  
HETATM    9  O   UNL     1     -12.453  16.350  72.438  1.00  0.00    -0.391 OA 
HETATM   10  O   UNL     1     -11.520  16.325  70.392  1.00  0.00    -0.355 OA 
HETATM   11  C   UNL     1     -12.896  11.488  71.208  1.00  0.00    -0.463 A  
HETATM   12  C   UNL     1     -12.214  12.113  70.160  1.00  0.00    -0.308 A  
BRANCH  11  13
HETATM   13  C   UNL     1     -13.152  10.003  71.160  1.00  0.00    -0.472 C  
BRANCH  13  14
HETATM   14  C   UNL     1     -11.882   9.176  71.134  1.00  0.00    -0.307 C  
HETATM   15  O   UNL     1     -10.912   9.510  71.813  1.00  0.00    -0.333 OA 
HETATM   16  N   UNL     1     -11.911   8.048  70.331  1.00  0.00    -0.468 N  
HETATM   17  H   UNL     1     -12.734   7.866  69.756  1.00  0.00     0.000 HD 
BRANCH  16  18
HETATM   18  C   UNL     1     -10.779   7.105  70.291  1.00  0.00    -0.238 C  
BRANCH  18  19
HETATM   19  C   UNL     1     -10.305   6.669  68.894  1.00  0.00    -0.216 A  
HETATM   20  C   UNL     1      -9.757   7.569  67.918  1.00  0.00    -0.146 A  
HETATM   21  C   UNL     1      -9.240   6.968  66.737  1.00  0.00    -0.181 A  
HETATM   22  C   UNL     1     -10.263   5.269  68.632  1.00  0.00    -0.223 A  
HETATM   23  C   UNL     1      -9.203   5.591  66.513  1.00  0.00    -0.144 A  
HETATM   24  C   UNL     1      -9.718   4.737  67.463  1.00  0.00    -0.209 A  
BRANCH  20  25
HETATM   25  N   UNL     1      -9.688   8.965  67.992  1.00  0.00    -0.152 NA 
HETATM   26  C   UNL     1      -8.681   9.623  68.855  1.00  0.00    -0.132 C  
HETATM   27  C   UNL     1      -7.996  10.746  68.069  1.00  0.00    -0.108 C  
HETATM   28  C   UNL     1      -9.018  11.769  67.585  1.00  0.00    -0.169 C  
HETATM   29  C   UNL     1     -10.106  11.082  66.781  1.00  0.00    -0.260 C  
HETATM   30  C   UNL     1     -10.713   9.891  67.510  1.00  0.00    -0.272 C  
ENDBRANCH  20  25
ENDBRANCH  18  19
BRANCH  18  31
HETATM   31  C   UNL     1     -11.040   5.845  71.140  1.00  0.00    -0.305 C  
HETATM   32  C   UNL     1      -9.195   6.207  72.907  1.00  0.00    -0.134 C  
HETATM   33  C   UNL     1     -10.678   5.941  72.636  1.00  0.00    -0.271 C  
HETATM   34  C   UNL     1     -11.055   4.621  73.317  1.00  0.00    -0.403 C  
ENDBRANCH  18  31
ENDBRANCH  16  18
ENDBRANCH  13  14
ENDBRANCH  11  13
ENDBRANCH   3   4
ENDBRANCH   2   3
TORSDOF 8
ENDMDL
MODEL       15
REMARK 921   NORMALIZED FREE ENERGY PREDICTED BY IDOCK:   -6.63 KCAL/MOL
REMARK 922        TOTAL FREE ENERGY PREDICTED BY IDOCK:  -12.13 KCAL/MOL
REMARK 923 INTER-LIGAND FREE ENERGY PREDICTED BY IDOCK:  -10.12 KCAL/MOL
REMARK 924 INTRA-LIGAND FREE ENERGY PREDICTED BY IDOCK:   -2.00 KCAL/MOL
REMARK 927      BINDING AFFINITY PREDICTED BY RF-SCORE:    0.00 PKD
ROOT
HETATM    1  C   UNL     1     -14.394   8.117  71.752  1.00  0.00    -0.582 C  
HETATM    2  C   UNL     1     -13.359   9.067  72.310  1.00  0.00    -0.467 C  
ENDROOT
BRANCH   2   3
HETATM    3  O   UNL     1     -12.149   8.335  72.593  1.00  0.00    -0.384 OA 
BRANCH   3   4
HETATM    4  C   UNL     1     -11.252   8.288  71.555  1.00  0.00    -0.262 A  
HETATM    5  C   UNL     1     -10.682   7.055  71.203  1.00  0.00    -0.253 A  
HETATM    6  C   UNL     1      -9.712   7.018  70.184  1.00  0.00    -0.176 A  
HETATM    7  C   UNL     1     -11.007   5.744  71.858  1.00  0.00    -0.259 C  
HETATM    8  C   UNL     1      -9.318   8.180  69.526  1.00  0.00    -0.155 A  
HETATM    9  O   UNL     1     -10.418   4.706  71.583  1.00  0.00    -0.156 OA 
HETATM   10  O   UNL     1     -12.011   5.783  72.750  1.00  0.00    -0.199 OA 
HETATM   11  C   UNL     1      -9.903   9.407  69.854  1.00  0.00    -0.235 A  
HETATM   12  C   UNL     1     -10.895   9.442  70.839  1.00  0.00    -0.392 A  
BRANCH  11  13
HETATM   13  C   UNL     1      -9.483  10.680  69.165  1.00  0.00    -0.185 C  
BRANCH  13  14
HETATM   14  C   UNL     1     -10.649  11.473  68.607  1.00  0.00    -0.208 C  
HETATM   15  O   UNL     1     -11.559  10.900  68.012  1.00  0.00    -0.464 OA 
HETATM   16  N   UNL     1     -10.614  12.839  68.835  1.00  0.00    -0.401 N  
HETATM   17  H   UNL     1      -9.799  13.249  69.290  1.00  0.00     0.000 HD 
BRANCH  16  18
HETATM   18  C   UNL     1     -11.731  13.712  68.431  1.00  0.00    -0.358 C  
BRANCH  18  19
HETATM   19  C   UNL     1     -11.741  14.171  66.962  1.00  0.00    -0.430 A  
HETATM   20  C   UNL     1     -10.714  14.981  66.370  1.00  0.00    -0.322 A  
HETATM   21  C   UNL     1     -10.815  15.187  64.966  1.00  0.00    -0.457 A  
HETATM   22  C   UNL     1     -12.747  13.617  66.119  1.00  0.00    -0.295 A  
HETATM   23  C   UNL     1     -11.807  14.623  64.163  1.00  0.00    -0.263 A  
HETATM   24  C   UNL     1     -12.779  13.836  64.741  1.00  0.00    -0.259 A  
BRANCH  20  25
HETATM   25  N   UNL     1      -9.637  15.597  67.017  1.00  0.00    -0.220 NA 
HETATM   26  C   UNL     1      -9.574  17.071  67.134  1.00  0.00    -0.253 C  
HETATM   27  C   UNL     1      -9.211  17.451  68.574  1.00  0.00    -0.277 C  
HETATM   28  C   UNL     1      -7.874  16.837  68.975  1.00  0.00    -0.201 C  
HETATM   29  C   UNL     1      -7.903  15.335  68.763  1.00  0.00    -0.154 C  
HETATM   30  C   UNL     1      -8.375  14.946  67.368  1.00  0.00    -0.194 C  
ENDBRANCH  20  25
ENDBRANCH  18  19
BRANCH  18  31
HETATM   31  C   UNL     1     -11.856  14.953  69.337  1.00  0.00    -0.356 C  
HETATM   32  C   UNL     1     -13.206  13.873  71.252  1.00  0.00    -0.352 C  
HETATM   33  C   UNL     1     -11.973  14.686  70.852  1.00  0.00    -0.388 C  
HETATM   34  C   UNL     1     -12.033  16.031  71.583  1.00  0.00    -0.569 C  
ENDBRANCH  18  31
ENDBRANCH  16  18
ENDBRANCH  13  14
ENDBRANCH  11  13
ENDBRANCH   3   4
ENDBRANCH   2   3
TORSDOF 8
ENDMDL
MODEL       16
REMARK 921   NORMALIZED FREE ENERGY PREDICTED BY IDOCK:   -6.61 KCAL/MOL
REMARK 922        TOTAL FREE ENERGY PREDICTED BY IDOCK:  -12.10 KCAL/MOL
REMARK 923 INTER-LIGAND FREE ENERGY PREDICTED BY IDOCK:   -9.42 KCAL/MOL
REMARK 924 INTRA-LIGAND FREE ENERGY PREDICTED BY IDOCK:   -2.68 KCAL/MOL
REMARK 927      BINDING AFFINITY PREDICTED BY RF-SCORE:    0.00 PKD
ROOT
HETATM    1  C   UNL     1      -9.821  16.464  68.754  1.00  0.00    -0.250 C  
HETATM    2  C   UNL     1     -11.098  15.869  69.303  1.00  0.00    -0.312 C  
ENDROOT
BRANCH   2   3
HETATM    3  O   UNL     1     -10.852  15.369  70.633  1.00  0.00    -0.319 OA 
BRANCH   3   4
HETATM    4  C   UNL     1     -11.787  14.472  71.089  1.00  0.00    -0.292 A  
HETATM    5  C   UNL     1     -12.557  14.805  72.214  1.00  0.00    -0.414 A  
HETATM    6  C   UNL     1     -13.467  13.859  72.722  1.00  0.00    -0.547 A  
HETATM    7  C   UNL     1     -12.470  16.107  72.956  1.00  0.00    -0.491 C  
HETATM    8  C   UNL     1     -13.611  12.609  72.124  1.00  0.00    -0.510 A  
HETATM    9  O   UNL     1     -13.094  16.320  73.988  1.00  0.00    -0.687 OA 
HETATM   10  O   UNL     1     -11.679  17.035  72.392  1.00  0.00    -0.108 OA 
HETATM   11  C   UNL     1     -12.866  12.284  70.987  1.00  0.00    -0.251 A  
HETATM   12  C   UNL     1     -11.989  13.235  70.457  1.00  0.00    -0.319 A  
BRANCH  11  13
HETATM   13  C   UNL     1     -12.994  10.932  70.332  1.00  0.00    -0.172 C  
BRANCH  13  14
HETATM   14  C   UNL     1     -11.740  10.088  70.445  1.00  0.00    -0.286 C  
HETATM   15  O   UNL     1     -11.270   9.824  71.551  1.00  0.00    -0.360 OA 
HETATM   16  N   UNL     1     -11.202   9.642  69.250  1.00  0.00    -0.432 N  
HETATM   17  H   UNL     1     -11.617   9.947  68.370  1.00  0.00     0.000 HD 
BRANCH  16  18
HETATM   18  C   UNL     1     -10.041   8.734  69.224  1.00  0.00    -0.204 C  
BRANCH  18  19
HETATM   19  C   UNL     1      -8.657   9.394  69.354  1.00  0.00    -0.148 A  
HETATM   20  C   UNL     1      -8.252  10.557  68.615  1.00  0.00    -0.130 A  
HETATM   21  C   UNL     1      -6.992  11.113  68.968  1.00  0.00    -0.101 A  
HETATM   22  C   UNL     1      -7.803   8.908  70.386  1.00  0.00    -0.104 A  
HETATM   23  C   UNL     1      -6.181  10.621  69.992  1.00  0.00    -0.111 A  
HETATM   24  C   UNL     1      -6.586   9.513  70.703  1.00  0.00    -0.103 A  
BRANCH  20  25
HETATM   25  N   UNL     1      -8.951  11.194  67.583  1.00  0.00    -0.139 NA 
HETATM   26  C   UNL     1      -8.789  10.751  66.180  1.00  0.00    -0.177 C  
HETATM   27  C   UNL     1     -10.169  10.624  65.527  1.00  0.00    -0.329 C  
HETATM   28  C   UNL     1     -10.915  11.953  65.572  1.00  0.00    -0.347 C  
HETATM   29  C   UNL     1     -10.997  12.459  67.000  1.00  0.00    -0.303 C  
HETATM   30  C   UNL     1      -9.642  12.479  67.695  1.00  0.00    -0.190 C  
ENDBRANCH  20  25
ENDBRANCH  18  19
BRANCH  18  31
HETATM   31  C   UNL     1     -10.040   7.826  67.978  1.00  0.00    -0.227 C  
HETATM   32  C   UNL     1     -10.347   5.562  69.177  1.00  0.00    -0.318 C  
HETATM   33  C   UNL     1     -10.844   6.514  68.087  1.00  0.00    -0.370 C  
HETATM   34  C   UNL     1     -10.768   5.779  66.745  1.00  0.00    -0.369 C  
ENDBRANCH  18  31
ENDBRANCH  16  18
ENDBRANCH  13  14
ENDBRANCH  11  13
ENDBRANCH   3   4
ENDBRANCH   2   3
TORSDOF 8
ENDMDL
MODEL       17
REMARK 921   NORMALIZED FREE ENERGY PREDICTED BY IDOCK:   -6.60 KCAL/MOL
REMARK 922        TOTAL FREE ENERGY PREDICTED BY IDOCK:  -12.08 KCAL/MOL
REMARK 923 INTER-LIGAND FREE ENERGY PREDICTED BY IDOCK:   -9.94 KCAL/MOL
REMARK 924 INTRA-LIGAND FREE ENERGY PREDICTED BY IDOCK:   -2.13 KCAL/MOL
REMARK 927      BINDING AFFINITY PREDICTED BY RF-SCORE:    0.00 PKD
ROOT
HETATM    1  C   UNL     1     -12.017  14.256  68.844  1.00  0.00    -0.356 C  
HETATM    2  C   UNL     1     -11.310  13.072  68.223  1.00  0.00    -0.288 C  
ENDROOT
BRANCH   2   3
HETATM    3  O   UNL     1     -12.091  12.585  67.113  1.00  0.00    -0.504 OA 
BRANCH   3   4
HETATM    4  C   UNL     1     -11.364  11.952  66.135  1.00  0.00    -0.324 A  
HETATM    5  C   UNL     1     -11.545  12.335  64.797  1.00  0.00    -0.393 A  
HETATM    6  C   UNL     1     -10.851  11.641  63.789  1.00  0.00    -0.493 A  
HETATM    7  C   UNL     1     -12.461  13.432  64.337  1.00  0.00    -0.277 C  
HETATM    8  C   UNL     1      -9.992  10.590  64.102  1.00  0.00    -0.385 A  
HETATM    9  O   UNL     1     -12.660  13.671  63.153  1.00  0.00    -0.792 OA 
HETATM   10  O   UNL     1     -13.030  14.152  65.319  1.00  0.00    -0.725 OA 
HETATM   11  C   UNL     1      -9.787  10.223  65.436  1.00  0.00    -0.362 A  
HETATM   12  C   UNL     1     -10.446  10.936  66.443  1.00  0.00    -0.307 A  
BRANCH  11  13
HETATM   13  C   UNL     1      -8.874   9.081  65.799  1.00  0.00    -0.216 C  
BRANCH  13  14
HETATM   14  C   UNL     1      -9.416   8.210  66.916  1.00  0.00    -0.191 C  
HETATM   15  O   UNL     1     -10.519   7.677  66.805  1.00  0.00    -0.314 OA 
HETATM   16  N   UNL     1      -8.590   8.056  68.016  1.00  0.00    -0.129 N  
HETATM   17  H   UNL     1      -7.712   8.573  68.058  1.00  0.00     0.000 HD 
BRANCH  16  18
HETATM   18  C   UNL     1      -8.954   7.159  69.129  1.00  0.00    -0.138 C  
BRANCH  18  19
HETATM   19  C   UNL     1      -8.588   7.645  70.542  1.00  0.00    -0.137 A  
HETATM   20  C   UNL     1      -9.505   8.317  71.419  1.00  0.00    -0.175 A  
HETATM   21  C   UNL     1      -9.038   8.565  72.740  1.00  0.00    -0.218 A  
HETATM   22  C   UNL     1      -7.317   7.253  71.053  1.00  0.00    -0.074 A  
HETATM   23  C   UNL     1      -7.790   8.160  73.215  1.00  0.00    -0.220 A  
HETATM   24  C   UNL     1      -6.924   7.503  72.368  1.00  0.00    -0.068 A  
BRANCH  20  25
HETATM   25  N   UNL     1     -10.797   8.765  71.118  1.00  0.00    -0.249 NA 
HETATM   26  C   UNL     1     -11.964   7.873  71.301  1.00  0.00    -0.298 C  
HETATM   27  C   UNL     1     -13.075   8.635  72.031  1.00  0.00    -0.417 C  
HETATM   28  C   UNL     1     -13.484   9.877  71.247  1.00  0.00    -0.353 C  
HETATM   29  C   UNL     1     -12.272  10.747  70.973  1.00  0.00    -0.485 C  
HETATM   30  C   UNL     1     -11.119   9.969  70.353  1.00  0.00    -0.327 C  
ENDBRANCH  20  25
ENDBRANCH  18  19
BRANCH  18  31
HETATM   31  C   UNL     1      -8.395   5.736  68.935  1.00  0.00    -0.101 C  
HETATM   32  C   UNL     1      -9.948   4.507  70.588  1.00  0.00    -0.273 C  
HETATM   33  C   UNL     1      -9.384   4.575  69.168  1.00  0.00    -0.214 C  
HETATM   34  C   UNL     1      -8.664   3.253  68.879  1.00  0.00    -0.143 C  
ENDBRANCH  18  31
ENDBRANCH  16  18
ENDBRANCH  13  14
ENDBRANCH  11  13
ENDBRANCH   3   4
ENDBRANCH   2   3
TORSDOF 8
ENDMDL
MODEL       18
REMARK 921   NORMALIZED FREE ENERGY PREDICTED BY IDOCK:   -6.59 KCAL/MOL
REMARK 922        TOTAL FREE ENERGY PREDICTED BY IDOCK:  -12.06 KCAL/MOL
REMARK 923 INTER-LIGAND FREE ENERGY PREDICTED BY IDOCK:  -10.12 KCAL/MOL
REMARK 924 INTRA-LIGAND FREE ENERGY PREDICTED BY IDOCK:   -1.94 KCAL/MOL
REMARK 927      BINDING AFFINITY PREDICTED BY RF-SCORE:    0.00 PKD
ROOT
HETATM    1  C   UNL     1     -12.536  11.868  63.141  1.00  0.00    -0.363 C  
HETATM    2  C   UNL     1     -12.176  11.740  64.604  1.00  0.00     0.049 C  
ENDROOT
BRANCH   2   3
HETATM    3  O   UNL     1     -12.395  13.008  65.256  1.00  0.00    -0.438 OA 
BRANCH   3   4
HETATM    4  C   UNL     1     -11.264  13.586  65.777  1.00  0.00    -0.297 A  
HETATM    5  C   UNL     1     -10.916  14.885  65.374  1.00  0.00    -0.371 A  
HETATM    6  C   UNL     1      -9.721  15.452  65.855  1.00  0.00    -0.392 A  
HETATM    7  C   UNL     1     -11.718  15.730  64.428  1.00  0.00    -0.201 C  
HETATM    8  C   UNL     1      -8.890  14.745  66.721  1.00  0.00    -0.281 A  
HETATM    9  O   UNL     1     -11.331  16.822  64.030  1.00  0.00    -1.153 OA 
HETATM   10  O   UNL     1     -12.906  15.217  64.067  1.00  0.00    -0.651 OA 
HETATM   11  C   UNL     1      -9.245  13.462  67.146  1.00  0.00    -0.240 A  
HETATM   12  C   UNL     1     -10.451  12.911  66.701  1.00  0.00    -0.272 A  
BRANCH  11  13
HETATM   13  C   UNL     1      -8.354  12.673  68.071  1.00  0.00    -0.175 C  
BRANCH  13  14
HETATM   14  C   UNL     1      -8.840  11.256  68.308  1.00  0.00    -0.158 C  
HETATM   15  O   UNL     1      -8.777  10.421  67.407  1.00  0.00    -0.125 OA 
HETATM   16  N   UNL     1      -9.321  10.987  69.579  1.00  0.00    -0.364 N  
HETATM   17  H   UNL     1      -9.391  11.745  70.257  1.00  0.00     0.000 HD 
BRANCH  16  18
HETATM   18  C   UNL     1      -9.733   9.627  69.971  1.00  0.00    -0.241 C  
BRANCH  18  19
HETATM   19  C   UNL     1     -11.147   9.488  70.563  1.00  0.00    -0.342 A  
HETATM   20  C   UNL     1     -11.730   8.235  70.956  1.00  0.00    -0.270 A  
HETATM   21  C   UNL     1     -12.987   8.313  71.616  1.00  0.00    -0.357 A  
HETATM   22  C   UNL     1     -11.835  10.693  70.884  1.00  0.00    -0.433 A  
HETATM   23  C   UNL     1     -13.634   9.510  71.926  1.00  0.00    -0.468 A  
HETATM   24  C   UNL     1     -13.057  10.706  71.557  1.00  0.00    -0.527 A  
BRANCH  20  25
HETATM   25  N   UNL     1     -11.208   6.953  70.751  1.00  0.00    -0.277 NA 
HETATM   26  C   UNL     1     -11.311   6.302  69.425  1.00  0.00    -0.378 C  
HETATM   27  C   UNL     1      -9.952   5.701  69.049  1.00  0.00    -0.233 C  
HETATM   28  C   UNL     1      -9.501   4.687  70.095  1.00  0.00    -0.246 C  
HETATM   29  C   UNL     1      -9.489   5.325  71.471  1.00  0.00    -0.191 C  
HETATM   30  C   UNL     1     -10.799   6.026  71.806  1.00  0.00    -0.260 C  
ENDBRANCH  20  25
ENDBRANCH  18  19
BRANCH  18  31
HETATM   31  C   UNL     1      -8.726   8.968  70.934  1.00  0.00    -0.280 C  
HETATM   32  C   UNL     1      -7.206   7.858  69.170  1.00  0.00    -0.081 C  
HETATM   33  C   UNL     1      -7.295   8.769  70.396  1.00  0.00    -0.063 C  
HETATM   34  C   UNL     1      -6.435   8.155  71.506  1.00  0.00    -0.044 C  
ENDBRANCH  18  31
ENDBRANCH  16  18
ENDBRANCH  13  14
ENDBRANCH  11  13
ENDBRANCH   3   4
ENDBRANCH   2   3
TORSDOF 8
ENDMDL
MODEL       19
REMARK 921   NORMALIZED FREE ENERGY PREDICTED BY IDOCK:   -6.55 KCAL/MOL
REMARK 922        TOTAL FREE ENERGY PREDICTED BY IDOCK:  -12.01 KCAL/MOL
REMARK 923 INTER-LIGAND FREE ENERGY PREDICTED BY IDOCK:  -10.11 KCAL/MOL
REMARK 924 INTRA-LIGAND FREE ENERGY PREDICTED BY IDOCK:   -1.89 KCAL/MOL
REMARK 927      BINDING AFFINITY PREDICTED BY RF-SCORE:    0.00 PKD
ROOT
HETATM    1  C   UNL     1      -9.777   4.139  70.027  1.00  0.00    -0.282 C  
HETATM    2  C   UNL     1     -10.597   5.410  70.037  1.00  0.00    -0.284 C  
ENDROOT
BRANCH   2   3
HETATM    3  O   UNL     1     -10.936   5.765  68.681  1.00  0.00    -0.258 OA 
BRANCH   3   4
HETATM    4  C   UNL     1     -10.440   6.975  68.266  1.00  0.00    -0.202 A  
HETATM    5  C   UNL     1      -9.726   7.041  67.059  1.00  0.00    -0.216 A  
HETATM    6  C   UNL     1      -9.159   8.268  66.667  1.00  0.00    -0.204 A  
HETATM    7  C   UNL     1      -9.488   5.876  66.142  1.00  0.00    -0.106 C  
HETATM    8  C   UNL     1      -9.299   9.407  67.455  1.00  0.00    -0.147 A  
HETATM    9  O   UNL     1      -8.781   5.957  65.145  1.00  0.00    -0.129 OA 
HETATM   10  O   UNL     1     -10.128   4.743  66.477  1.00  0.00    -0.211 OA 
HETATM   11  C   UNL     1     -10.032   9.353  68.645  1.00  0.00    -0.187 A  
HETATM   12  C   UNL     1     -10.630   8.146  69.018  1.00  0.00    -0.167 A  
BRANCH  11  13
HETATM   13  C   UNL     1     -10.185  10.570  69.522  1.00  0.00    -0.230 C  
BRANCH  13  14
HETATM   14  C   UNL     1     -11.141  11.602  68.955  1.00  0.00    -0.232 C  
HETATM   15  O   UNL     1     -12.135  11.244  68.324  1.00  0.00    -0.619 OA 
HETATM   16  N   UNL     1     -10.826  12.925  69.214  1.00  0.00    -0.440 N  
HETATM   17  H   UNL     1      -9.956  13.145  69.698  1.00  0.00     0.000 HD 
BRANCH  16  18
HETATM   18  C   UNL     1     -11.722  14.021  68.804  1.00  0.00    -0.353 C  
BRANCH  18  19
HETATM   19  C   UNL     1     -11.137  15.045  67.815  1.00  0.00    -0.312 A  
HETATM   20  C   UNL     1     -10.963  14.794  66.412  1.00  0.00    -0.331 A  
HETATM   21  C   UNL     1     -10.543  15.903  65.627  1.00  0.00    -0.393 A  
HETATM   22  C   UNL     1     -10.913  16.364  68.306  1.00  0.00    -0.355 A  
HETATM   23  C   UNL     1     -10.342  17.187  66.135  1.00  0.00    -0.327 A  
HETATM   24  C   UNL     1     -10.525  17.419  67.481  1.00  0.00    -0.354 A  
BRANCH  20  25
HETATM   25  N   UNL     1     -11.148  13.582  65.736  1.00  0.00    -0.286 NA 
HETATM   26  C   UNL     1     -12.501  13.154  65.316  1.00  0.00    -0.495 C  
HETATM   27  C   UNL     1     -12.453  12.673  63.861  1.00  0.00    -0.498 C  
HETATM   28  C   UNL     1     -11.468  11.520  63.706  1.00  0.00    -0.380 C  
HETATM   29  C   UNL     1     -10.101  11.924  64.226  1.00  0.00    -0.325 C  
HETATM   30  C   UNL     1     -10.157  12.512  65.630  1.00  0.00    -0.269 C  
ENDBRANCH  20  25
ENDBRANCH  18  19
BRANCH  18  31
HETATM   31  C   UNL     1     -12.305  14.779  70.013  1.00  0.00    -0.365 C  
HETATM   32  C   UNL     1     -13.121  12.738  71.363  1.00  0.00    -0.318 C  
HETATM   33  C   UNL     1     -12.297  14.027  71.360  1.00  0.00    -0.410 C  
HETATM   34  C   UNL     1     -12.863  14.954  72.441  1.00  0.00    -0.430 C  
ENDBRANCH  18  31
ENDBRANCH  16  18
ENDBRANCH  13  14
ENDBRANCH  11  13
ENDBRANCH   3   4
ENDBRANCH   2   3
TORSDOF 8
ENDMDL
MODEL       20
REMARK 921   NORMALIZED FREE ENERGY PREDICTED BY IDOCK:   -6.53 KCAL/MOL
REMARK 922        TOTAL FREE ENERGY PREDICTED BY IDOCK:  -11.98 KCAL/MOL
REMARK 923 INTER-LIGAND FREE ENERGY PREDICTED BY IDOCK:  -10.29 KCAL/MOL
REMARK 924 INTRA-LIGAND FREE ENERGY PREDICTED BY IDOCK:   -1.69 KCAL/MOL
REMARK 927      BINDING AFFINITY PREDICTED BY RF-SCORE:    0.00 PKD
ROOT
HETATM    1  C   UNL     1     -12.554  12.172  63.651  1.00  0.00    -0.616 C  
HETATM    2  C   UNL     1     -11.552  13.199  64.127  1.00  0.00    -0.410 C  
ENDROOT
BRANCH   2   3
HETATM    3  O   UNL     1     -12.252  14.260  64.810  1.00  0.00    -0.414 OA 
BRANCH   3   4
HETATM    4  C   UNL     1     -11.859  14.460  66.110  1.00  0.00    -0.382 A  
HETATM    5  C   UNL     1     -11.080  15.586  66.421  1.00  0.00    -0.174 A  
HETATM    6  C   UNL     1     -10.620  15.754  67.740  1.00  0.00    -0.292 A  
HETATM    7  C   UNL     1     -10.664  16.636  65.433  1.00  0.00    -0.215 C  
HETATM    8  C   UNL     1     -10.929  14.826  68.732  1.00  0.00    -0.267 A  
HETATM    9  O   UNL     1      -9.907  17.553  65.727  1.00  0.00    -0.537 OA 
HETATM   10  O   UNL     1     -11.202  16.516  64.208  1.00  0.00    -0.992 OA 
HETATM   11  C   UNL     1     -11.727  13.717  68.433  1.00  0.00    -0.393 A  
HETATM   12  C   UNL     1     -12.218  13.567  67.133  1.00  0.00    -0.328 A  
BRANCH  11  13
HETATM   13  C   UNL     1     -12.062  12.693  69.487  1.00  0.00    -0.253 C  
BRANCH  13  14
HETATM   14  C   UNL     1     -11.502  11.316  69.184  1.00  0.00    -0.297 C  
HETATM   15  O   UNL     1     -11.785  10.752  68.128  1.00  0.00    -0.501 OA 
HETATM   16  N   UNL     1     -10.665  10.779  70.147  1.00  0.00    -0.458 N  
HETATM   17  H   UNL     1     -10.520  11.284  71.021  1.00  0.00     0.000 HD 
BRANCH  16  18
HETATM   18  C   UNL     1      -9.978   9.492  69.934  1.00  0.00    -0.230 C  
BRANCH  18  19
HETATM   19  C   UNL     1     -10.474   8.307  70.780  1.00  0.00    -0.223 A  
HETATM   20  C   UNL     1     -10.382   6.935  70.367  1.00  0.00    -0.202 A  
HETATM   21  C   UNL     1     -10.760   5.965  71.337  1.00  0.00    -0.319 A  
HETATM   22  C   UNL     1     -10.897   8.594  72.111  1.00  0.00    -0.424 A  
HETATM   23  C   UNL     1     -11.160   6.275  72.638  1.00  0.00    -0.298 A  
HETATM   24  C   UNL     1     -11.231   7.596  73.026  1.00  0.00    -0.388 A  
BRANCH  20  25
HETATM   25  N   UNL     1      -9.975   6.447  69.120  1.00  0.00    -0.146 NA 
HETATM   26  C   UNL     1     -10.977   6.096  68.088  1.00  0.00    -0.307 C  
HETATM   27  C   UNL     1     -10.552   6.696  66.743  1.00  0.00    -0.315 C  
HETATM   28  C   UNL     1      -9.175   6.184  66.333  1.00  0.00    -0.166 C  
HETATM   29  C   UNL     1      -8.166   6.456  67.432  1.00  0.00    -0.116 C  
HETATM   30  C   UNL     1      -8.634   5.964  68.795  1.00  0.00    -0.110 C  
ENDBRANCH  20  25
ENDBRANCH  18  19
BRANCH  18  31
HETATM   31  C   UNL     1      -8.450   9.614  70.102  1.00  0.00    -0.231 C  
HETATM   32  C   UNL     1      -7.861  10.205  67.661  1.00  0.00    -0.098 C  
HETATM   33  C   UNL     1      -7.731  10.580  69.139  1.00  0.00    -0.131 C  
HETATM   34  C   UNL     1      -6.240  10.604  69.492  1.00  0.00    -0.059 C  
ENDBRANCH  18  31
ENDBRANCH  16  18
ENDBRANCH  13  14
ENDBRANCH  11  13
ENDBRANCH   3   4
ENDBRANCH   2   3
TORSDOF 8
ENDMDL
MODEL       21
REMARK 921   NORMALIZED FREE ENERGY PREDICTED BY IDOCK:   -6.52 KCAL/MOL
REMARK 922        TOTAL FREE ENERGY PREDICTED BY IDOCK:  -11.97 KCAL/MOL
REMARK 923 INTER-LIGAND FREE ENERGY PREDICTED BY IDOCK:   -9.29 KCAL/MOL
REMARK 924 INTRA-LIGAND FREE ENERGY PREDICTED BY IDOCK:   -2.68 KCAL/MOL
REMARK 927      BINDING AFFINITY PREDICTED BY RF-SCORE:    0.00 PKD
ROOT
HETATM    1  C   UNL     1     -11.852  14.701  64.343  1.00  0.00    -0.405 C  
HETATM    2  C   UNL     1     -10.499  14.942  64.972  1.00  0.00    -0.401 C  
ENDROOT
BRANCH   2   3
HETATM    3  O   UNL     1     -10.303  16.361  65.144  1.00  0.00    -0.610 OA 
BRANCH   3   4
HETATM    4  C   UNL     1      -9.645  16.712  66.296  1.00  0.00    -0.299 A  
HETATM    5  C   UNL     1      -9.643  18.058  66.695  1.00  0.00    -0.315 A  
HETATM    6  C   UNL     1      -8.911  18.429  67.839  1.00  0.00    -0.296 A  
HETATM    7  C   UNL     1     -10.350  19.166  65.971  1.00  0.00    -0.463 C  
HETATM    8  C   UNL     1      -8.199  17.484  68.573  1.00  0.00    -0.278 A  
HETATM    9  O   UNL     1     -10.246  20.341  66.302  1.00  0.00    -0.427 OA 
HETATM   10  O   UNL     1     -11.130  18.776  64.949  1.00  0.00    -0.404 OA 
HETATM   11  C   UNL     1      -8.220  16.138  68.195  1.00  0.00    -0.157 A  
HETATM   12  C   UNL     1      -8.977  15.760  67.082  1.00  0.00    -0.233 A  
BRANCH  11  13
HETATM   13  C   UNL     1      -7.445  15.100  68.965  1.00  0.00    -0.161 C  
BRANCH  13  14
HETATM   14  C   UNL     1      -7.353  13.766  68.249  1.00  0.00    -0.118 C  
HETATM   15  O   UNL     1      -6.559  13.615  67.323  1.00  0.00    -0.254 OA 
HETATM   16  N   UNL     1      -8.189  12.768  68.721  1.00  0.00    -0.352 N  
HETATM   17  H   UNL     1      -8.859  12.985  69.459  1.00  0.00     0.000 HD 
BRANCH  16  18
HETATM   18  C   UNL     1      -8.131  11.399  68.178  1.00  0.00    -0.137 C  
BRANCH  18  19
HETATM   19  C   UNL     1      -8.977  11.127  66.922  1.00  0.00    -0.164 A  
HETATM   20  C   UNL     1     -10.354  11.514  66.786  1.00  0.00    -0.226 A  
HETATM   21  C   UNL     1     -10.934  11.310  65.503  1.00  0.00    -0.199 A  
HETATM   22  C   UNL     1      -8.297  10.608  65.783  1.00  0.00    -0.162 A  
HETATM   23  C   UNL     1     -10.239  10.809  64.402  1.00  0.00    -0.432 A  
HETATM   24  C   UNL     1      -8.915  10.453  64.542  1.00  0.00    -0.241 A  
BRANCH  20  25
HETATM   25  N   UNL     1     -11.187  12.056  67.771  1.00  0.00    -0.251 NA 
HETATM   26  C   UNL     1     -11.898  11.173  68.723  1.00  0.00    -0.320 C  
HETATM   27  C   UNL     1     -11.729  11.720  70.145  1.00  0.00    -0.354 C  
HETATM   28  C   UNL     1     -12.271  13.142  70.245  1.00  0.00    -0.376 C  
HETATM   29  C   UNL     1     -11.613  14.028  69.204  1.00  0.00    -0.356 C  
HETATM   30  C   UNL     1     -11.676  13.434  67.803  1.00  0.00    -0.359 C  
ENDBRANCH  20  25
ENDBRANCH  18  19
BRANCH  18  31
HETATM   31  C   UNL     1      -8.470  10.336  69.242  1.00  0.00    -0.172 C  
HETATM   32  C   UNL     1      -6.107   9.341  69.530  1.00  0.00    -0.040 C  
HETATM   33  C   UNL     1      -7.333   9.952  70.212  1.00  0.00    -0.166 C  
HETATM   34  C   UNL     1      -7.873   8.931  71.219  1.00  0.00    -0.163 C  
ENDBRANCH  18  31
ENDBRANCH  16  18
ENDBRANCH  13  14
ENDBRANCH  11  13
ENDBRANCH   3   4
ENDBRANCH   2   3
TORSDOF 8
ENDMDL
MODEL       22
REMARK 921   NORMALIZED FREE ENERGY PREDICTED BY IDOCK:   -6.49 KCAL/MOL
REMARK 922        TOTAL FREE ENERGY PREDICTED BY IDOCK:  -11.92 KCAL/MOL
REMARK 923 INTER-LIGAND FREE ENERGY PREDICTED BY IDOCK:  -10.02 KCAL/MOL
REMARK 924 INTRA-LIGAND FREE ENERGY PREDICTED BY IDOCK:   -1.90 KCAL/MOL
REMARK 927      BINDING AFFINITY PREDICTED BY RF-SCORE:    0.00 PKD
ROOT
HETATM    1  C   UNL     1     -10.549  16.482  68.281  1.00  0.00    -0.326 C  
HETATM    2  C   UNL     1     -10.441  16.160  66.808  1.00  0.00    -0.294 C  
ENDROOT
BRANCH   2   3
HETATM    3  O   UNL     1     -11.331  15.068  66.496  1.00  0.00    -0.341 OA 
BRANCH   3   4
HETATM    4  C   UNL     1     -10.703  13.881  66.214  1.00  0.00    -0.285 A  
HETATM    5  C   UNL     1     -11.062  13.180  65.052  1.00  0.00    -0.322 A  
HETATM    6  C   UNL     1     -10.468  11.930  64.798  1.00  0.00    -0.333 A  
HETATM    7  C   UNL     1     -12.072  13.652  64.046  1.00  0.00    -0.425 C  
HETATM    8  C   UNL     1      -9.535  11.387  65.678  1.00  0.00    -0.253 A  
HETATM    9  O   UNL     1     -12.423  12.966  63.094  1.00  0.00    -0.641 OA 
HETATM   10  O   UNL     1     -12.545  14.893  64.249  1.00  0.00    -0.699 OA 
HETATM   11  C   UNL     1      -9.154  12.094  66.823  1.00  0.00    -0.205 A  
HETATM   12  C   UNL     1      -9.713  13.353  67.058  1.00  0.00    -0.239 A  
BRANCH  11  13
HETATM   13  C   UNL     1      -8.157  11.520  67.797  1.00  0.00    -0.133 C  
BRANCH  13  14
HETATM   14  C   UNL     1      -8.623  10.229  68.442  1.00  0.00    -0.125 C  
HETATM   15  O   UNL     1      -8.440   9.153  67.875  1.00  0.00    -0.117 OA 
HETATM   16  N   UNL     1      -9.228  10.356  69.681  1.00  0.00    -0.401 N  
HETATM   17  H   UNL     1      -9.392  11.287  70.063  1.00  0.00     0.000 HD 
BRANCH  16  18
HETATM   18  C   UNL     1      -9.638   9.173  70.459  1.00  0.00    -0.243 C  
BRANCH  18  19
HETATM   19  C   UNL     1     -11.107   9.135  70.916  1.00  0.00    -0.356 A  
HETATM   20  C   UNL     1     -11.805   7.930  71.268  1.00  0.00    -0.296 A  
HETATM   21  C   UNL     1     -13.111   8.100  71.804  1.00  0.00    -0.367 A  
HETATM   22  C   UNL     1     -11.745  10.388  71.152  1.00  0.00    -0.387 A  
HETATM   23  C   UNL     1     -13.706   9.341  72.034  1.00  0.00    -0.493 A  
HETATM   24  C   UNL     1     -13.021  10.491  71.705  1.00  0.00    -0.581 A  
BRANCH  20  25
HETATM   25  N   UNL     1     -11.350   6.613  71.132  1.00  0.00    -0.290 NA 
HETATM   26  C   UNL     1     -11.220   5.998  69.792  1.00  0.00    -0.369 C  
HETATM   27  C   UNL     1      -9.862   5.295  69.687  1.00  0.00    -0.275 C  
HETATM   28  C   UNL     1      -9.719   4.230  70.769  1.00  0.00    -0.274 C  
HETATM   29  C   UNL     1      -9.948   4.839  72.139  1.00  0.00    -0.237 C  
HETATM   30  C   UNL     1     -11.243   5.638  72.217  1.00  0.00    -0.259 C  
ENDBRANCH  20  25
ENDBRANCH  18  19
BRANCH  18  31
HETATM   31  C   UNL     1      -8.733   8.940  71.685  1.00  0.00    -0.186 C  
HETATM   32  C   UNL     1      -7.115   7.234  70.623  1.00  0.00    -0.065 C  
HETATM   33  C   UNL     1      -7.271   8.549  71.391  1.00  0.00    -0.096 C  
HETATM   34  C   UNL     1      -6.523   8.413  72.721  1.00  0.00    -0.104 C  
ENDBRANCH  18  31
ENDBRANCH  16  18
ENDBRANCH  13  14
ENDBRANCH  11  13
ENDBRANCH   3   4
ENDBRANCH   2   3
TORSDOF 8
ENDMDL
MODEL       23
REMARK 921   NORMALIZED FREE ENERGY PREDICTED BY IDOCK:   -6.45 KCAL/MOL
REMARK 922        TOTAL FREE ENERGY PREDICTED BY IDOCK:  -11.86 KCAL/MOL
REMARK 923 INTER-LIGAND FREE ENERGY PREDICTED BY IDOCK:   -9.15 KCAL/MOL
REMARK 924 INTRA-LIGAND FREE ENERGY PREDICTED BY IDOCK:   -2.71 KCAL/MOL
REMARK 927      BINDING AFFINITY PREDICTED BY RF-SCORE:    0.00 PKD
ROOT
HETATM    1  C   UNL     1      -5.356  13.791  69.819  1.00  0.00    -0.089 C  
HETATM    2  C   UNL     1      -6.065  15.121  69.948  1.00  0.00    -0.147 C  
ENDROOT
BRANCH   2   3
HETATM    3  O   UNL     1      -6.451  15.579  68.636  1.00  0.00    -0.099 OA 
BRANCH   3   4
HETATM    4  C   UNL     1      -7.768  15.950  68.525  1.00  0.00    -0.147 A  
HETATM    5  C   UNL     1      -8.161  16.747  67.438  1.00  0.00    -0.195 A  
HETATM    6  C   UNL     1      -9.497  17.183  67.360  1.00  0.00    -0.247 A  
HETATM    7  C   UNL     1      -7.248  17.206  66.339  1.00  0.00    -0.290 C  
HETATM    8  C   UNL     1     -10.424  16.835  68.339  1.00  0.00    -0.339 A  
HETATM    9  O   UNL     1      -7.611  17.976  65.459  1.00  0.00    -0.530 OA 
HETATM   10  O   UNL     1      -6.008  16.690  66.372  1.00  0.00    -0.283 OA 
HETATM   11  C   UNL     1     -10.044  16.019  69.409  1.00  0.00    -0.271 A  
HETATM   12  C   UNL     1      -8.728  15.551  69.469  1.00  0.00    -0.223 A  
BRANCH  11  13
HETATM   13  C   UNL     1     -11.026  15.641  70.488  1.00  0.00    -0.371 C  
BRANCH  13  14
HETATM   14  C   UNL     1     -11.792  14.368  70.183  1.00  0.00    -0.314 C  
HETATM   15  O   UNL     1     -12.944  14.227  70.588  1.00  0.00    -0.338 OA 
HETATM   16  N   UNL     1     -11.119  13.426  69.423  1.00  0.00    -0.434 N  
HETATM   17  H   UNL     1     -10.145  13.591  69.169  1.00  0.00     0.000 HD 
BRANCH  16  18
HETATM   18  C   UNL     1     -11.782  12.188  68.974  1.00  0.00    -0.322 C  
BRANCH  18  19
HETATM   19  C   UNL     1     -11.512  10.927  69.815  1.00  0.00    -0.390 A  
HETATM   20  C   UNL     1     -10.281  10.189  69.779  1.00  0.00    -0.247 A  
HETATM   21  C   UNL     1     -10.157   9.137  70.728  1.00  0.00    -0.333 A  
HETATM   22  C   UNL     1     -12.487  10.583  70.796  1.00  0.00    -0.472 A  
HETATM   23  C   UNL     1     -11.125   8.830  71.684  1.00  0.00    -0.398 A  
HETATM   24  C   UNL     1     -12.297   9.554  71.718  1.00  0.00    -0.474 A  
BRANCH  20  25
HETATM   25  N   UNL     1      -9.200  10.381  68.911  1.00  0.00    -0.168 NA 
HETATM   26  C   UNL     1      -8.818   9.328  67.942  1.00  0.00    -0.124 C  
HETATM   27  C   UNL     1      -8.596   9.964  66.565  1.00  0.00    -0.131 C  
HETATM   28  C   UNL     1      -7.510  11.032  66.631  1.00  0.00    -0.146 C  
HETATM   29  C   UNL     1      -7.851  12.061  67.693  1.00  0.00    -0.149 C  
HETATM   30  C   UNL     1      -8.187  11.429  69.037  1.00  0.00     0.020 C  
ENDBRANCH  20  25
ENDBRANCH  18  19
BRANCH  18  31
HETATM   31  C   UNL     1     -11.481  11.869  67.496  1.00  0.00    -0.396 C  
HETATM   32  C   UNL     1     -12.348  14.070  66.466  1.00  0.00    -0.442 C  
HETATM   33  C   UNL     1     -11.189  13.077  66.582  1.00  0.00    -0.341 C  
HETATM   34  C   UNL     1     -10.864  12.560  65.176  1.00  0.00    -0.323 C  
ENDBRANCH  18  31
ENDBRANCH  16  18
ENDBRANCH  13  14
ENDBRANCH  11  13
ENDBRANCH   3   4
ENDBRANCH   2   3
TORSDOF 8
ENDMDL
MODEL       24
REMARK 921   NORMALIZED FREE ENERGY PREDICTED BY IDOCK:   -6.45 KCAL/MOL
REMARK 922        TOTAL FREE ENERGY PREDICTED BY IDOCK:  -11.86 KCAL/MOL
REMARK 923 INTER-LIGAND FREE ENERGY PREDICTED BY IDOCK:  -10.30 KCAL/MOL
REMARK 924 INTRA-LIGAND FREE ENERGY PREDICTED BY IDOCK:   -1.56 KCAL/MOL
REMARK 927      BINDING AFFINITY PREDICTED BY RF-SCORE:    0.00 PKD
ROOT
HETATM    1  C   UNL     1     -10.191  17.719  66.136  1.00  0.00    -0.339 C  
HETATM    2  C   UNL     1     -10.580  16.406  66.777  1.00  0.00    -0.238 C  
ENDROOT
BRANCH   2   3
HETATM    3  O   UNL     1     -11.029  15.495  65.753  1.00  0.00    -0.327 OA 
BRANCH   3   4
HETATM    4  C   UNL     1     -10.533  14.219  65.865  1.00  0.00    -0.307 A  
HETATM    5  C   UNL     1     -11.104  13.197  65.090  1.00  0.00    -0.308 A  
HETATM    6  C   UNL     1     -10.642  11.878  65.255  1.00  0.00    -0.320 A  
HETATM    7  C   UNL     1     -12.211  13.394  64.097  1.00  0.00    -0.398 C  
HETATM    8  C   UNL     1      -9.632  11.580  66.167  1.00  0.00    -0.248 A  
HETATM    9  O   UNL     1     -12.743  12.460  63.510  1.00  0.00    -0.727 OA 
HETATM   10  O   UNL     1     -12.562  14.672  63.875  1.00  0.00    -0.834 OA 
HETATM   11  C   UNL     1      -9.042  12.599  66.921  1.00  0.00    -0.218 A  
HETATM   12  C   UNL     1      -9.472  13.916  66.732  1.00  0.00    -0.287 A  
BRANCH  11  13
HETATM   13  C   UNL     1      -7.959  12.298  67.925  1.00  0.00    -0.152 C  
BRANCH  13  14
HETATM   14  C   UNL     1      -8.122  10.949  68.597  1.00  0.00    -0.143 C  
HETATM   15  O   UNL     1      -7.203  10.131  68.574  1.00  0.00    -0.077 OA 
HETATM   16  N   UNL     1      -9.334  10.731  69.230  1.00  0.00    -0.388 N  
HETATM   17  H   UNL     1     -10.067  11.436  69.160  1.00  0.00     0.000 HD 
BRANCH  16  18
HETATM   18  C   UNL     1      -9.585   9.502  70.004  1.00  0.00    -0.238 C  
BRANCH  18  19
HETATM   19  C   UNL     1      -9.974   8.254  69.191  1.00  0.00    -0.196 A  
HETATM   20  C   UNL     1     -10.243   6.970  69.777  1.00  0.00    -0.201 A  
HETATM   21  C   UNL     1     -10.727   5.969  68.889  1.00  0.00    -0.384 A  
HETATM   22  C   UNL     1     -10.236   8.441  67.803  1.00  0.00    -0.283 A  
HETATM   23  C   UNL     1     -10.984   6.185  67.534  1.00  0.00    -0.404 A  
HETATM   24  C   UNL     1     -10.736   7.425  66.988  1.00  0.00    -0.389 A  
BRANCH  20  25
HETATM   25  N   UNL     1     -10.070   6.592  71.113  1.00  0.00    -0.183 NA 
HETATM   26  C   UNL     1      -8.737   6.186  71.613  1.00  0.00    -0.135 C  
HETATM   27  C   UNL     1      -8.458   6.895  72.943  1.00  0.00    -0.127 C  
HETATM   28  C   UNL     1      -9.529   6.554  73.973  1.00  0.00    -0.217 C  
HETATM   29  C   UNL     1     -10.906   6.878  73.424  1.00  0.00    -0.303 C  
HETATM   30  C   UNL     1     -11.148   6.271  72.048  1.00  0.00    -0.268 C  
ENDBRANCH  20  25
ENDBRANCH  18  19
BRANCH  18  31
HETATM   31  C   UNL     1     -10.634   9.716  71.113  1.00  0.00    -0.327 C  
HETATM   32  C   UNL     1     -12.155  11.381  69.859  1.00  0.00    -0.404 C  
HETATM   33  C   UNL     1     -12.061  10.072  70.646  1.00  0.00    -0.381 C  
HETATM   34  C   UNL     1     -12.964  10.193  71.878  1.00  0.00    -0.549 C  
ENDBRANCH  18  31
ENDBRANCH  16  18
ENDBRANCH  13  14
ENDBRANCH  11  13
ENDBRANCH   3   4
ENDBRANCH   2   3
TORSDOF 8
ENDMDL
MODEL       25
REMARK 921   NORMALIZED FREE ENERGY PREDICTED BY IDOCK:   -6.44 KCAL/MOL
REMARK 922        TOTAL FREE ENERGY PREDICTED BY IDOCK:  -11.85 KCAL/MOL
REMARK 923 INTER-LIGAND FREE ENERGY PREDICTED BY IDOCK:   -9.78 KCAL/MOL
REMARK 924 INTRA-LIGAND FREE ENERGY PREDICTED BY IDOCK:   -2.07 KCAL/MOL
REMARK 927      BINDING AFFINITY PREDICTED BY RF-SCORE:    0.00 PKD
ROOT
HETATM    1  C   UNL     1     -14.351   7.408  71.551  1.00  0.00    -0.594 C  
HETATM    2  C   UNL     1     -13.121   8.244  71.822  1.00  0.00    -0.344 C  
ENDROOT
BRANCH   2   3
HETATM    3  O   UNL     1     -11.963   7.385  71.852  1.00  0.00    -0.285 OA 
BRANCH   3   4
HETATM    4  C   UNL     1     -10.833   7.929  71.292  1.00  0.00    -0.235 A  
HETATM    5  C   UNL     1      -9.676   8.052  72.078  1.00  0.00    -0.264 A  
HETATM    6  C   UNL     1      -8.540   8.671  71.525  1.00  0.00    -0.256 A  
HETATM    7  C   UNL     1      -9.556   7.593  73.502  1.00  0.00    -0.290 C  
HETATM    8  C   UNL     1      -8.549   9.155  70.219  1.00  0.00    -0.218 A  
HETATM    9  O   UNL     1      -8.558   7.804  74.180  1.00  0.00    -0.237 OA 
HETATM   10  O   UNL     1     -10.612   6.908  73.974  1.00  0.00    -0.349 OA 
HETATM   11  C   UNL     1      -9.690   9.010  69.424  1.00  0.00    -0.169 A  
HETATM   12  C   UNL     1     -10.808   8.361  69.957  1.00  0.00    -0.225 A  
BRANCH  11  13
HETATM   13  C   UNL     1      -9.729   9.538  68.013  1.00  0.00    -0.168 C  
BRANCH  13  14
HETATM   14  C   UNL     1      -9.668  11.052  67.938  1.00  0.00    -0.172 C  
HETATM   15  O   UNL     1      -8.619  11.614  67.630  1.00  0.00    -0.133 OA 
HETATM   16  N   UNL     1     -10.851  11.718  68.213  1.00  0.00    -0.208 N  
HETATM   17  H   UNL     1     -11.667  11.185  68.513  1.00  0.00     0.000 HD 
BRANCH  16  18
HETATM   18  C   UNL     1     -10.954  13.183  68.080  1.00  0.00    -0.247 C  
BRANCH  18  19
HETATM   19  C   UNL     1     -11.354  13.955  69.349  1.00  0.00    -0.311 A  
HETATM   20  C   UNL     1     -11.025  15.333  69.585  1.00  0.00    -0.284 A  
HETATM   21  C   UNL     1     -11.599  15.921  70.746  1.00  0.00    -0.441 A  
HETATM   22  C   UNL     1     -12.238  13.299  70.254  1.00  0.00    -0.391 A  
HETATM   23  C   UNL     1     -12.471  15.257  71.609  1.00  0.00    -0.433 A  
HETATM   24  C   UNL     1     -12.791  13.939  71.364  1.00  0.00    -0.439 A  
BRANCH  20  25
HETATM   25  N   UNL     1     -10.195  16.153  68.812  1.00  0.00    -0.226 NA 
HETATM   26  C   UNL     1      -8.724  16.100  68.971  1.00  0.00    -0.254 C  
HETATM   27  C   UNL     1      -8.067  16.030  67.589  1.00  0.00    -0.164 C  
HETATM   28  C   UNL     1      -8.458  17.236  66.742  1.00  0.00    -0.275 C  
HETATM   29  C   UNL     1      -9.968  17.350  66.658  1.00  0.00    -0.308 C  
HETATM   30  C   UNL     1     -10.638  17.304  68.025  1.00  0.00    -0.394 C  
ENDBRANCH  20  25
ENDBRANCH  18  19
BRANCH  18  31
HETATM   31  C   UNL     1     -11.895  13.598  66.932  1.00  0.00    -0.451 C  
HETATM   32  C   UNL     1     -10.318  13.068  64.959  1.00  0.00    -0.336 C  
HETATM   33  C   UNL     1     -11.699  12.866  65.588  1.00  0.00    -0.430 C  
HETATM   34  C   UNL     1     -12.751  13.374  64.596  1.00  0.00    -0.246 C  
ENDBRANCH  18  31
ENDBRANCH  16  18
ENDBRANCH  13  14
ENDBRANCH  11  13
ENDBRANCH   3   4
ENDBRANCH   2   3
TORSDOF 8
ENDMDL
MODEL       26
REMARK 921   NORMALIZED FREE ENERGY PREDICTED BY IDOCK:   -6.43 KCAL/MOL
REMARK 922        TOTAL FREE ENERGY PREDICTED BY IDOCK:  -11.83 KCAL/MOL
REMARK 923 INTER-LIGAND FREE ENERGY PREDICTED BY IDOCK:   -9.60 KCAL/MOL
REMARK 924 INTRA-LIGAND FREE ENERGY PREDICTED BY IDOCK:   -2.23 KCAL/MOL
REMARK 927      BINDING AFFINITY PREDICTED BY RF-SCORE:    0.00 PKD
ROOT
HETATM    1  C   UNL     1     -10.553  16.934  68.244  1.00  0.00    -0.363 C  
HETATM    2  C   UNL     1     -10.589  15.944  69.386  1.00  0.00    -0.263 C  
ENDROOT
BRANCH   2   3
HETATM    3  O   UNL     1     -11.932  15.440  69.533  1.00  0.00    -0.325 OA 
BRANCH   3   4
HETATM    4  C   UNL     1     -12.014  14.088  69.756  1.00  0.00    -0.334 A  
HETATM    5  C   UNL     1     -12.749  13.623  70.858  1.00  0.00    -0.382 A  
HETATM    6  C   UNL     1     -12.777  12.242  71.126  1.00  0.00    -0.340 A  
HETATM    7  C   UNL     1     -13.502  14.500  71.815  1.00  0.00    -0.375 C  
HETATM    8  C   UNL     1     -12.093  11.340  70.315  1.00  0.00    -0.459 A  
HETATM    9  O   UNL     1     -14.053  14.061  72.817  1.00  0.00    -0.636 OA 
HETATM   10  O   UNL     1     -13.554  15.801  71.481  1.00  0.00    -0.488 OA 
HETATM   11  C   UNL     1     -11.382  11.795  69.200  1.00  0.00    -0.340 A  
HETATM   12  C   UNL     1     -11.384  13.162  68.908  1.00  0.00    -0.335 A  
BRANCH  11  13
HETATM   13  C   UNL     1     -10.623  10.839  68.316  1.00  0.00    -0.233 C  
BRANCH  13  14
HETATM   14  C   UNL     1     -10.193   9.574  69.032  1.00  0.00    -0.200 C  
HETATM   15  O   UNL     1      -9.207   9.584  69.767  1.00  0.00    -0.177 OA 
HETATM   16  N   UNL     1     -10.982   8.458  68.813  1.00  0.00    -0.428 N  
HETATM   17  H   UNL     1     -11.753   8.514  68.147  1.00  0.00     0.000 HD 
BRANCH  16  18
HETATM   18  C   UNL     1     -10.732   7.190  69.523  1.00  0.00    -0.239 C  
BRANCH  18  19
HETATM   19  C   UNL     1     -10.213   6.021  68.667  1.00  0.00    -0.233 A  
HETATM   20  C   UNL     1      -9.561   4.862  69.208  1.00  0.00    -0.171 A  
HETATM   21  C   UNL     1      -9.277   3.818  68.284  1.00  0.00    -0.215 A  
HETATM   22  C   UNL     1     -10.552   6.032  67.283  1.00  0.00    -0.367 A  
HETATM   23  C   UNL     1      -9.631   3.852  66.934  1.00  0.00    -0.226 A  
HETATM   24  C   UNL     1     -10.269   4.965  66.430  1.00  0.00    -0.313 A  
BRANCH  20  25
HETATM   25  N   UNL     1      -9.163   4.650  70.533  1.00  0.00    -0.123 NA 
HETATM   26  C   UNL     1      -7.875   5.187  71.026  1.00  0.00    -0.097 C  
HETATM   27  C   UNL     1      -8.097   5.874  72.378  1.00  0.00    -0.110 C  
HETATM   28  C   UNL     1      -8.679   4.897  73.393  1.00  0.00    -0.104 C  
HETATM   29  C   UNL     1      -9.949   4.271  72.849  1.00  0.00    -0.197 C  
HETATM   30  C   UNL     1      -9.766   3.687  71.454  1.00  0.00    -0.170 C  
ENDBRANCH  20  25
ENDBRANCH  18  19
BRANCH  18  31
HETATM   31  C   UNL     1     -11.966   6.713  70.315  1.00  0.00    -0.302 C  
HETATM   32  C   UNL     1     -11.649   8.189  72.407  1.00  0.00    -0.463 C  
HETATM   33  C   UNL     1     -12.590   7.733  71.289  1.00  0.00    -0.286 C  
HETATM   34  C   UNL     1     -13.825   7.099  71.938  1.00  0.00    -0.308 C  
ENDBRANCH  18  31
ENDBRANCH  16  18
ENDBRANCH  13  14
ENDBRANCH  11  13
ENDBRANCH   3   4
ENDBRANCH   2   3
TORSDOF 8
ENDMDL
MODEL       27
REMARK 921   NORMALIZED FREE ENERGY PREDICTED BY IDOCK:   -6.43 KCAL/MOL
REMARK 922        TOTAL FREE ENERGY PREDICTED BY IDOCK:  -11.83 KCAL/MOL
REMARK 923 INTER-LIGAND FREE ENERGY PREDICTED BY IDOCK:  -10.78 KCAL/MOL
REMARK 924 INTRA-LIGAND FREE ENERGY PREDICTED BY IDOCK:   -1.04 KCAL/MOL
REMARK 927      BINDING AFFINITY PREDICTED BY RF-SCORE:    0.00 PKD
ROOT
HETATM    1  C   UNL     1      -9.799  20.145  66.859  1.00  0.00    -0.593 C  
HETATM    2  C   UNL     1     -10.692  19.207  66.078  1.00  0.00    -0.364 C  
ENDROOT
BRANCH   2   3
HETATM    3  O   UNL     1      -9.978  17.981  65.819  1.00  0.00    -0.550 OA 
BRANCH   3   4
HETATM    4  C   UNL     1      -9.769  17.196  66.925  1.00  0.00    -0.268 A  
HETATM    5  C   UNL     1      -8.462  16.782  67.228  1.00  0.00    -0.202 A  
HETATM    6  C   UNL     1      -8.256  15.921  68.322  1.00  0.00    -0.152 A  
HETATM    7  C   UNL     1      -7.240  17.166  66.446  1.00  0.00    -0.290 C  
HETATM    8  C   UNL     1      -9.323  15.484  69.103  1.00  0.00    -0.250 A  
HETATM    9  O   UNL     1      -6.131  16.707  66.689  1.00  0.00    -0.292 OA 
HETATM   10  O   UNL     1      -7.443  18.072  65.475  1.00  0.00    -0.538 OA 
HETATM   11  C   UNL     1     -10.623  15.916  68.821  1.00  0.00    -0.245 A  
HETATM   12  C   UNL     1     -10.827  16.801  67.759  1.00  0.00    -0.285 A  
BRANCH  11  13
HETATM   13  C   UNL     1     -11.796  15.444  69.643  1.00  0.00    -0.368 C  
BRANCH  13  14
HETATM   14  C   UNL     1     -11.684  13.993  70.070  1.00  0.00    -0.280 C  
HETATM   15  O   UNL     1     -12.077  13.644  71.182  1.00  0.00    -0.301 OA 
HETATM   16  N   UNL     1     -11.144  13.127  69.134  1.00  0.00    -0.375 N  
HETATM   17  H   UNL     1     -10.791  13.501  68.253  1.00  0.00     0.000 HD 
BRANCH  16  18
HETATM   18  C   UNL     1     -11.068  11.677  69.385  1.00  0.00    -0.206 C  
BRANCH  18  19
HETATM   19  C   UNL     1     -10.749  10.790  68.168  1.00  0.00    -0.257 A  
HETATM   20  C   UNL     1     -10.674  11.279  66.820  1.00  0.00    -0.275 A  
HETATM   21  C   UNL     1     -10.227  10.348  65.843  1.00  0.00    -0.302 A  
HETATM   22  C   UNL     1     -10.348   9.449  68.432  1.00  0.00    -0.238 A  
HETATM   23  C   UNL     1      -9.831   9.041  66.133  1.00  0.00    -0.349 A  
HETATM   24  C   UNL     1      -9.894   8.588  67.432  1.00  0.00    -0.244 A  
BRANCH  20  25
HETATM   25  N   UNL     1     -11.003  12.560  66.360  1.00  0.00    -0.264 NA 
HETATM   26  C   UNL     1      -9.941  13.550  66.070  1.00  0.00    -0.299 C  
HETATM   27  C   UNL     1     -10.218  14.208  64.714  1.00  0.00    -0.311 C  
HETATM   28  C   UNL     1     -11.583  14.888  64.711  1.00  0.00    -0.410 C  
HETATM   29  C   UNL     1     -12.663  13.898  65.104  1.00  0.00    -0.434 C  
HETATM   30  C   UNL     1     -12.338  13.155  66.393  1.00  0.00    -0.231 C  
ENDBRANCH  20  25
ENDBRANCH  18  19
BRANCH  18  31
HETATM   31  C   UNL     1     -12.340  11.137  70.069  1.00  0.00    -0.351 C  
HETATM   32  C   UNL     1     -11.222   9.363  71.571  1.00  0.00    -0.457 C  
HETATM   33  C   UNL     1     -12.163  10.567  71.490  1.00  0.00    -0.385 C  
HETATM   34  C   UNL     1     -13.535  10.133  72.019  1.00  0.00    -0.418 C  
ENDBRANCH  18  31
ENDBRANCH  16  18
ENDBRANCH  13  14
ENDBRANCH  11  13
ENDBRANCH   3   4
ENDBRANCH   2   3
TORSDOF 8
ENDMDL
MODEL       28
REMARK 921   NORMALIZED FREE ENERGY PREDICTED BY IDOCK:   -6.41 KCAL/MOL
REMARK 922        TOTAL FREE ENERGY PREDICTED BY IDOCK:  -11.81 KCAL/MOL
REMARK 923 INTER-LIGAND FREE ENERGY PREDICTED BY IDOCK:   -9.42 KCAL/MOL
REMARK 924 INTRA-LIGAND FREE ENERGY PREDICTED BY IDOCK:   -2.39 KCAL/MOL
REMARK 927      BINDING AFFINITY PREDICTED BY RF-SCORE:    0.00 PKD
ROOT
HETATM    1  C   UNL     1     -10.502  19.520  66.322  1.00  0.00    -0.609 C  
HETATM    2  C   UNL     1     -10.327  18.097  66.802  1.00  0.00    -0.365 C  
ENDROOT
BRANCH   2   3
HETATM    3  O   UNL     1     -10.360  17.207  65.667  1.00  0.00    -0.557 OA 
BRANCH   3   4
HETATM    4  C   UNL     1     -10.112  15.890  65.965  1.00  0.00    -0.337 A  
HETATM    5  C   UNL     1     -10.842  14.893  65.300  1.00  0.00    -0.398 A  
HETATM    6  C   UNL     1     -10.636  13.546  65.654  1.00  0.00    -0.284 A  
HETATM    7  C   UNL     1     -11.870  15.150  64.237  1.00  0.00    -0.251 C  
HETATM    8  C   UNL     1      -9.721  13.197  66.645  1.00  0.00    -0.261 A  
HETATM    9  O   UNL     1     -12.550  14.256  63.749  1.00  0.00    -0.821 OA 
HETATM   10  O   UNL     1     -11.973  16.429  63.837  1.00  0.00    -1.023 OA 
HETATM   11  C   UNL     1      -8.972  14.185  67.290  1.00  0.00    -0.221 A  
HETATM   12  C   UNL     1      -9.146  15.520  66.914  1.00  0.00    -0.264 A  
BRANCH  11  13
HETATM   13  C   UNL     1      -7.987  13.832  68.376  1.00  0.00    -0.144 C  
BRANCH  13  14
HETATM   14  C   UNL     1      -7.437  12.424  68.251  1.00  0.00    -0.124 C  
HETATM   15  O   UNL     1      -6.532  12.182  67.454  1.00  0.00    -0.118 OA 
HETATM   16  N   UNL     1      -8.000  11.479  69.092  1.00  0.00    -0.355 N  
HETATM   17  H   UNL     1      -8.784  11.745  69.688  1.00  0.00     0.000 HD 
BRANCH  16  18
HETATM   18  C   UNL     1      -7.491  10.096  69.141  1.00  0.00    -0.098 C  
BRANCH  18  19
HETATM   19  C   UNL     1      -8.127   9.101  68.155  1.00  0.00    -0.104 A  
HETATM   20  C   UNL     1      -9.544   8.952  67.970  1.00  0.00    -0.148 A  
HETATM   21  C   UNL     1      -9.947   8.087  66.916  1.00  0.00    -0.338 A  
HETATM   22  C   UNL     1      -7.246   8.414  67.270  1.00  0.00    -0.084 A  
HETATM   23  C   UNL     1      -9.061   7.435  66.057  1.00  0.00    -0.129 A  
HETATM   24  C   UNL     1      -7.704   7.597  66.236  1.00  0.00    -0.089 A  
BRANCH  20  25
HETATM   25  N   UNL     1     -10.566   9.549  68.716  1.00  0.00    -0.219 NA 
HETATM   26  C   UNL     1     -11.126   8.869  69.906  1.00  0.00    -0.136 C  
HETATM   27  C   UNL     1     -11.220   9.868  71.064  1.00  0.00    -0.435 C  
HETATM   28  C   UNL     1     -12.094  11.057  70.682  1.00  0.00    -0.471 C  
HETATM   29  C   UNL     1     -11.580  11.698  69.407  1.00  0.00    -0.392 C  
HETATM   30  C   UNL     1     -11.373  10.690  68.285  1.00  0.00    -0.289 C  
ENDBRANCH  20  25
ENDBRANCH  18  19
BRANCH  18  31
HETATM   31  C   UNL     1      -7.563   9.500  70.561  1.00  0.00    -0.165 C  
HETATM   32  C   UNL     1      -5.453   8.021  70.442  1.00  0.00    -0.022 C  
HETATM   33  C   UNL     1      -6.219   9.104  71.205  1.00  0.00    -0.073 C  
HETATM   34  C   UNL     1      -6.489   8.585  72.622  1.00  0.00    -0.092 C  
ENDBRANCH  18  31
ENDBRANCH  16  18
ENDBRANCH  13  14
ENDBRANCH  11  13
ENDBRANCH   3   4
ENDBRANCH   2   3
TORSDOF 8
ENDMDL
MODEL       29
REMARK 921   NORMALIZED FREE ENERGY PREDICTED BY IDOCK:   -6.39 KCAL/MOL
REMARK 922        TOTAL FREE ENERGY PREDICTED BY IDOCK:  -11.78 KCAL/MOL
REMARK 923 INTER-LIGAND FREE ENERGY PREDICTED BY IDOCK:  -10.01 KCAL/MOL
REMARK 924 INTRA-LIGAND FREE ENERGY PREDICTED BY IDOCK:   -1.77 KCAL/MOL
REMARK 927      BINDING AFFINITY PREDICTED BY RF-SCORE:    0.00 PKD
ROOT
HETATM    1  C   UNL     1     -14.319   7.499  71.694  1.00  0.00    -0.621 C  
HETATM    2  C   UNL     1     -14.015   8.920  72.114  1.00  0.00    -0.456 C  
ENDROOT
BRANCH   2   3
HETATM    3  O   UNL     1     -12.587   9.126  72.086  1.00  0.00    -0.369 OA 
BRANCH   3   4
HETATM    4  C   UNL     1     -12.165  10.083  71.196  1.00  0.00    -0.380 A  
HETATM    5  C   UNL     1     -11.213   9.736  70.225  1.00  0.00    -0.347 A  
HETATM    6  C   UNL     1     -10.730  10.733  69.357  1.00  0.00    -0.272 A  
HETATM    7  C   UNL     1     -10.633   8.363  70.048  1.00  0.00    -0.235 C  
HETATM    8  C   UNL     1     -11.183  12.046  69.450  1.00  0.00    -0.263 A  
HETATM    9  O   UNL     1      -9.737   8.125  69.248  1.00  0.00    -0.166 OA 
HETATM   10  O   UNL     1     -11.186   7.405  70.810  1.00  0.00    -0.260 OA 
HETATM   11  C   UNL     1     -12.152  12.391  70.398  1.00  0.00    -0.381 A  
HETATM   12  C   UNL     1     -12.663  11.395  71.236  1.00  0.00    -0.498 A  
BRANCH  11  13
HETATM   13  C   UNL     1     -12.647  13.808  70.526  1.00  0.00    -0.361 C  
BRANCH  13  14
HETATM   14  C   UNL     1     -11.536  14.839  70.470  1.00  0.00    -0.279 C  
HETATM   15  O   UNL     1     -11.013  15.241  71.508  1.00  0.00    -0.305 OA 
HETATM   16  N   UNL     1     -11.163  15.257  69.204  1.00  0.00    -0.260 N  
HETATM   17  H   UNL     1     -11.680  14.917  68.393  1.00  0.00     0.000 HD 
BRANCH  16  18
HETATM   18  C   UNL     1     -10.032  16.181  69.004  1.00  0.00    -0.242 C  
BRANCH  18  19
HETATM   19  C   UNL     1     -10.162  17.174  67.835  1.00  0.00    -0.330 A  
HETATM   20  C   UNL     1     -10.596  16.805  66.517  1.00  0.00    -0.198 A  
HETATM   21  C   UNL     1     -10.794  17.877  65.603  1.00  0.00     0.058 A  
HETATM   22  C   UNL     1      -9.996  18.556  68.139  1.00  0.00    -0.393 A  
HETATM   23  C   UNL     1     -10.633  19.224  65.932  1.00  0.00    -0.521 A  
HETATM   24  C   UNL     1     -10.231  19.566  67.205  1.00  0.00    -0.542 A  
BRANCH  20  25
HETATM   25  N   UNL     1     -10.831  15.514  66.029  1.00  0.00    -0.319 NA 
HETATM   26  C   UNL     1      -9.702  14.637  65.646  1.00  0.00    -0.266 C  
HETATM   27  C   UNL     1      -9.917  13.243  66.246  1.00  0.00    -0.291 C  
HETATM   28  C   UNL     1     -11.232  12.643  65.762  1.00  0.00    -0.347 C  
HETATM   29  C   UNL     1     -12.381  13.586  66.066  1.00  0.00    -0.486 C  
HETATM   30  C   UNL     1     -12.124  15.004  65.574  1.00  0.00     0.072 C  
ENDBRANCH  20  25
ENDBRANCH  18  19
BRANCH  18  31
HETATM   31  C   UNL     1      -8.688  15.438  68.873  1.00  0.00    -0.208 C  
HETATM   32  C   UNL     1      -7.142  17.499  68.744  1.00  0.00    -0.248 C  
HETATM   33  C   UNL     1      -7.447  16.165  69.429  1.00  0.00    -0.181 C  
HETATM   34  C   UNL     1      -6.227  15.254  69.257  1.00  0.00    -0.118 C  
ENDBRANCH  18  31
ENDBRANCH  16  18
ENDBRANCH  13  14
ENDBRANCH  11  13
ENDBRANCH   3   4
ENDBRANCH   2   3
TORSDOF 8
ENDMDL
MODEL       30
REMARK 921   NORMALIZED FREE ENERGY PREDICTED BY IDOCK:   -6.39 KCAL/MOL
REMARK 922        TOTAL FREE ENERGY PREDICTED BY IDOCK:  -11.77 KCAL/MOL
REMARK 923 INTER-LIGAND FREE ENERGY PREDICTED BY IDOCK:   -9.91 KCAL/MOL
REMARK 924 INTRA-LIGAND FREE ENERGY PREDICTED BY IDOCK:   -1.86 KCAL/MOL
REMARK 927      BINDING AFFINITY PREDICTED BY RF-SCORE:    0.00 PKD
ROOT
HETATM    1  C   UNL     1      -9.352  10.912  62.381  1.00  0.00    -0.252 C  
HETATM    2  C   UNL     1      -9.665  10.318  63.736  1.00  0.00    -0.235 C  
ENDROOT
BRANCH   2   3
HETATM    3  O   UNL     1     -10.792  11.013  64.308  1.00  0.00    -0.353 OA 
BRANCH   3   4
HETATM    4  C   UNL     1     -10.463  11.972  65.233  1.00  0.00    -0.284 A  
HETATM    5  C   UNL     1     -11.100  13.221  65.174  1.00  0.00    -0.315 A  
HETATM    6  C   UNL     1     -10.714  14.228  66.079  1.00  0.00    -0.304 A  
HETATM    7  C   UNL     1     -12.165  13.592  64.184  1.00  0.00    -0.399 C  
HETATM    8  C   UNL     1      -9.718  13.998  67.025  1.00  0.00    -0.256 A  
HETATM    9  O   UNL     1     -12.629  14.723  64.108  1.00  0.00    -0.784 OA 
HETATM   10  O   UNL     1     -12.596  12.587  63.403  1.00  0.00    -0.690 OA 
HETATM   11  C   UNL     1      -9.099  12.747  67.106  1.00  0.00    -0.219 A  
HETATM   12  C   UNL     1      -9.507  11.733  66.234  1.00  0.00    -0.238 A  
BRANCH  11  13
HETATM   13  C   UNL     1      -8.009  12.479  68.111  1.00  0.00    -0.157 C  
BRANCH  13  14
HETATM   14  C   UNL     1      -8.128  11.123  68.779  1.00  0.00    -0.140 C  
HETATM   15  O   UNL     1      -7.140  10.400  68.892  1.00  0.00    -0.065 OA 
HETATM   16  N   UNL     1      -9.387  10.791  69.252  1.00  0.00    -0.388 N  
HETATM   17  H   UNL     1     -10.169  11.420  69.074  1.00  0.00     0.000 HD 
BRANCH  16  18
HETATM   18  C   UNL     1      -9.618   9.546  70.006  1.00  0.00    -0.238 C  
BRANCH  18  19
HETATM   19  C   UNL     1      -9.996   8.306  69.176  1.00  0.00    -0.196 A  
HETATM   20  C   UNL     1     -10.253   7.012  69.742  1.00  0.00    -0.201 A  
HETATM   21  C   UNL     1     -10.728   6.020  68.840  1.00  0.00    -0.384 A  
HETATM   22  C   UNL     1     -10.260   8.511  67.790  1.00  0.00    -0.283 A  
HETATM   23  C   UNL     1     -10.988   6.253  67.489  1.00  0.00    -0.444 A  
HETATM   24  C   UNL     1     -10.750   7.503  66.960  1.00  0.00    -0.367 A  
BRANCH  20  25
HETATM   25  N   UNL     1     -10.077   6.615  71.073  1.00  0.00    -0.187 NA 
HETATM   26  C   UNL     1      -8.726   6.302  71.591  1.00  0.00    -0.134 C  
HETATM   27  C   UNL     1      -8.528   6.997  72.943  1.00  0.00    -0.130 C  
HETATM   28  C   UNL     1      -9.589   6.550  73.942  1.00  0.00    -0.222 C  
HETATM   29  C   UNL     1     -10.976   6.780  73.372  1.00  0.00    -0.199 C  
HETATM   30  C   UNL     1     -11.144   6.190  71.978  1.00  0.00    -0.274 C  
ENDBRANCH  20  25
ENDBRANCH  18  19
BRANCH  18  31
HETATM   31  C   UNL     1     -10.663   9.729  71.124  1.00  0.00    -0.284 C  
HETATM   32  C   UNL     1     -12.271  11.306  69.866  1.00  0.00    -0.358 C  
HETATM   33  C   UNL     1     -12.109  10.014  70.669  1.00  0.00    -0.381 C  
HETATM   34  C   UNL     1     -13.003  10.112  71.910  1.00  0.00    -0.549 C  
ENDBRANCH  18  31
ENDBRANCH  16  18
ENDBRANCH  13  14
ENDBRANCH  11  13
ENDBRANCH   3   4
ENDBRANCH   2   3
TORSDOF 8
ENDMDL
MODEL       31
REMARK 921   NORMALIZED FREE ENERGY PREDICTED BY IDOCK:   -6.38 KCAL/MOL
REMARK 922        TOTAL FREE ENERGY PREDICTED BY IDOCK:  -11.76 KCAL/MOL
REMARK 923 INTER-LIGAND FREE ENERGY PREDICTED BY IDOCK:  -10.51 KCAL/MOL
REMARK 924 INTRA-LIGAND FREE ENERGY PREDICTED BY IDOCK:   -1.26 KCAL/MOL
REMARK 927      BINDING AFFINITY PREDICTED BY RF-SCORE:    0.00 PKD
ROOT
HETATM    1  C   UNL     1      -9.862  20.403  66.920  1.00  0.00    -0.572 C  
HETATM    2  C   UNL     1     -10.569  19.249  66.246  1.00  0.00    -0.454 C  
ENDROOT
BRANCH   2   3
HETATM    3  O   UNL     1      -9.607  18.217  65.944  1.00  0.00    -0.510 OA 
BRANCH   3   4
HETATM    4  C   UNL     1      -9.162  17.512  67.034  1.00  0.00    -0.248 A  
HETATM    5  C   UNL     1      -7.781  17.323  67.204  1.00  0.00    -0.220 A  
HETATM    6  C   UNL     1      -7.328  16.543  68.284  1.00  0.00    -0.169 A  
HETATM    7  C   UNL     1      -6.724  17.873  66.293  1.00  0.00    -0.259 C  
HETATM    8  C   UNL     1      -8.226  15.965  69.179  1.00  0.00    -0.240 A  
HETATM    9  O   UNL     1      -5.536  17.607  66.426  1.00  0.00    -0.159 OA 
HETATM   10  O   UNL     1      -7.169  18.703  65.334  1.00  0.00    -0.520 OA 
HETATM   11  C   UNL     1      -9.600  16.173  69.029  1.00  0.00    -0.251 A  
HETATM   12  C   UNL     1     -10.052  16.979  67.980  1.00  0.00    -0.305 A  
BRANCH  11  13
HETATM   13  C   UNL     1     -10.591  15.546  69.976  1.00  0.00    -0.337 C  
BRANCH  13  14
HETATM   14  C   UNL     1     -11.189  14.255  69.450  1.00  0.00    -0.273 C  
HETATM   15  O   UNL     1     -12.408  14.093  69.449  1.00  0.00    -0.326 OA 
HETATM   16  N   UNL     1     -10.284  13.321  68.973  1.00  0.00    -0.432 N  
HETATM   17  H   UNL     1      -9.285  13.505  69.057  1.00  0.00     0.000 HD 
BRANCH  16  18
HETATM   18  C   UNL     1     -10.737  12.066  68.347  1.00  0.00    -0.229 C  
BRANCH  18  19
HETATM   19  C   UNL     1     -11.035  12.127  66.838  1.00  0.00    -0.317 A  
HETATM   20  C   UNL     1     -10.460  11.233  65.872  1.00  0.00    -0.259 A  
HETATM   21  C   UNL     1     -10.960  11.344  64.545  1.00  0.00    -0.346 A  
HETATM   22  C   UNL     1     -12.064  13.019  66.417  1.00  0.00    -0.428 A  
HETATM   23  C   UNL     1     -11.976  12.221  64.164  1.00  0.00    -0.518 A  
HETATM   24  C   UNL     1     -12.530  13.064  65.103  1.00  0.00    -0.552 A  
BRANCH  20  25
HETATM   25  N   UNL     1      -9.460  10.278  66.087  1.00  0.00    -0.172 NA 
HETATM   26  C   UNL     1      -8.057  10.561  65.708  1.00  0.00    -0.158 C  
HETATM   27  C   UNL     1      -7.130  10.160  66.861  1.00  0.00    -0.091 C  
HETATM   28  C   UNL     1      -7.293   8.682  67.198  1.00  0.00    -0.088 C  
HETATM   29  C   UNL     1      -8.748   8.369  67.491  1.00  0.00    -0.136 C  
HETATM   30  C   UNL     1      -9.688   8.868  66.402  1.00  0.00    -0.262 C  
ENDBRANCH  20  25
ENDBRANCH  18  19
BRANCH  18  31
HETATM   31  C   UNL     1     -11.959  11.463  69.068  1.00  0.00    -0.387 C  
HETATM   32  C   UNL     1     -10.726   9.632  70.404  1.00  0.00    -0.356 C  
HETATM   33  C   UNL     1     -11.692  10.819  70.444  1.00  0.00    -0.445 C  
HETATM   34  C   UNL     1     -13.023  10.327  71.021  1.00  0.00    -0.488 C  
ENDBRANCH  18  31
ENDBRANCH  16  18
ENDBRANCH  13  14
ENDBRANCH  11  13
ENDBRANCH   3   4
ENDBRANCH   2   3
TORSDOF 8
ENDMDL
MODEL       32
REMARK 921   NORMALIZED FREE ENERGY PREDICTED BY IDOCK:   -6.37 KCAL/MOL
REMARK 922        TOTAL FREE ENERGY PREDICTED BY IDOCK:  -11.75 KCAL/MOL
REMARK 923 INTER-LIGAND FREE ENERGY PREDICTED BY IDOCK:   -9.68 KCAL/MOL
REMARK 924 INTRA-LIGAND FREE ENERGY PREDICTED BY IDOCK:   -2.06 KCAL/MOL
REMARK 927      BINDING AFFINITY PREDICTED BY RF-SCORE:    0.00 PKD
ROOT
HETATM    1  C   UNL     1     -10.340  18.827  67.673  1.00  0.00    -0.476 C  
HETATM    2  C   UNL     1     -10.471  17.342  67.923  1.00  0.00    -0.382 C  
ENDROOT
BRANCH   2   3
HETATM    3  O   UNL     1     -10.853  16.688  66.696  1.00  0.00    -0.184 OA 
BRANCH   3   4
HETATM    4  C   UNL     1     -11.266  15.387  66.845  1.00  0.00    -0.214 A  
HETATM    5  C   UNL     1     -11.778  14.703  65.731  1.00  0.00    -0.302 A  
HETATM    6  C   UNL     1     -12.264  13.393  65.900  1.00  0.00    -0.502 A  
HETATM    7  C   UNL     1     -11.877  15.276  64.348  1.00  0.00    -0.281 C  
HETATM    8  C   UNL     1     -12.241  12.774  67.147  1.00  0.00    -0.058 A  
HETATM    9  O   UNL     1     -12.416  14.677  63.425  1.00  0.00    -0.576 OA 
HETATM   10  O   UNL     1     -11.309  16.482  64.185  1.00  0.00    -1.060 OA 
HETATM   11  C   UNL     1     -11.707  13.441  68.254  1.00  0.00    -0.391 A  
HETATM   12  C   UNL     1     -11.188  14.728  68.082  1.00  0.00    -0.307 A  
BRANCH  11  13
HETATM   13  C   UNL     1     -11.685  12.797  69.616  1.00  0.00    -0.372 C  
BRANCH  13  14
HETATM   14  C   UNL     1     -11.156  11.375  69.598  1.00  0.00    -0.174 C  
HETATM   15  O   UNL     1     -11.902  10.435  69.868  1.00  0.00    -0.258 OA 
HETATM   16  N   UNL     1      -9.825  11.230  69.247  1.00  0.00    -0.422 N  
HETATM   17  H   UNL     1      -9.256  12.061  69.088  1.00  0.00     0.000 HD 
BRANCH  16  18
HETATM   18  C   UNL     1      -9.213   9.897  69.097  1.00  0.00    -0.180 C  
BRANCH  18  19
HETATM   19  C   UNL     1      -8.100   9.542  70.099  1.00  0.00    -0.186 A  
HETATM   20  C   UNL     1      -8.233   8.542  71.121  1.00  0.00    -0.144 A  
HETATM   21  C   UNL     1      -7.056   8.248  71.863  1.00  0.00    -0.095 A  
HETATM   22  C   UNL     1      -6.821  10.132  69.882  1.00  0.00    -0.124 A  
HETATM   23  C   UNL     1      -5.813   8.835  71.620  1.00  0.00    -0.056 A  
HETATM   24  C   UNL     1      -5.695   9.783  70.627  1.00  0.00    -0.066 A  
BRANCH  20  25
HETATM   25  N   UNL     1      -9.389   7.838  71.477  1.00  0.00    -0.135 NA 
HETATM   26  C   UNL     1     -10.066   8.106  72.766  1.00  0.00    -0.297 C  
HETATM   27  C   UNL     1     -11.574   8.248  72.527  1.00  0.00    -0.454 C  
HETATM   28  C   UNL     1     -12.142   6.984  71.890  1.00  0.00    -0.358 C  
HETATM   29  C   UNL     1     -11.384   6.652  70.618  1.00  0.00    -0.401 C  
HETATM   30  C   UNL     1      -9.876   6.623  70.823  1.00  0.00    -0.183 C  
ENDBRANCH  20  25
ENDBRANCH  18  19
BRANCH  18  31
HETATM   31  C   UNL     1      -8.687   9.656  67.668  1.00  0.00    -0.126 C  
HETATM   32  C   UNL     1     -10.527   8.033  66.871  1.00  0.00    -0.387 C  
HETATM   33  C   UNL     1      -9.744   9.319  66.597  1.00  0.00    -0.281 C  
HETATM   34  C   UNL     1      -9.041   9.167  65.244  1.00  0.00    -0.252 C  
ENDBRANCH  18  31
ENDBRANCH  16  18
ENDBRANCH  13  14
ENDBRANCH  11  13
ENDBRANCH   3   4
ENDBRANCH   2   3
TORSDOF 8
ENDMDL
MODEL       33
REMARK 921   NORMALIZED FREE ENERGY PREDICTED BY IDOCK:   -6.36 KCAL/MOL
REMARK 922        TOTAL FREE ENERGY PREDICTED BY IDOCK:  -11.73 KCAL/MOL
REMARK 923 INTER-LIGAND FREE ENERGY PREDICTED BY IDOCK:   -9.32 KCAL/MOL
REMARK 924 INTRA-LIGAND FREE ENERGY PREDICTED BY IDOCK:   -2.41 KCAL/MOL
REMARK 927      BINDING AFFINITY PREDICTED BY RF-SCORE:    0.00 PKD
ROOT
HETATM    1  C   UNL     1     -13.476   9.505  71.391  1.00  0.00    -0.405 C  
HETATM    2  C   UNL     1     -12.402  10.519  71.069  1.00  0.00    -0.399 C  
ENDROOT
BRANCH   2   3
HETATM    3  O   UNL     1     -12.880  11.838  71.406  1.00  0.00    -0.404 OA 
BRANCH   3   4
HETATM    4  C   UNL     1     -12.404  12.842  70.600  1.00  0.00    -0.302 A  
HETATM    5  C   UNL     1     -12.752  14.171  70.891  1.00  0.00    -0.432 A  
HETATM    6  C   UNL     1     -12.321  15.194  70.026  1.00  0.00    -0.356 A  
HETATM    7  C   UNL     1     -13.590  14.599  72.060  1.00  0.00    -0.400 C  
HETATM    8  C   UNL     1     -11.557  14.905  68.897  1.00  0.00    -0.339 A  
HETATM    9  O   UNL     1     -13.948  15.759  72.224  1.00  0.00    -0.495 OA 
HETATM   10  O   UNL     1     -13.899  13.624  72.931  1.00  0.00    -0.659 OA 
HETATM   11  C   UNL     1     -11.185  13.586  68.619  1.00  0.00    -0.311 A  
HETATM   12  C   UNL     1     -11.579  12.572  69.497  1.00  0.00    -0.348 A  
BRANCH  11  13
HETATM   13  C   UNL     1     -10.372  13.248  67.396  1.00  0.00    -0.243 C  
BRANCH  13  14
HETATM   14  C   UNL     1     -10.731  11.906  66.789  1.00  0.00    -0.246 C  
HETATM   15  O   UNL     1     -11.826  11.742  66.253  1.00  0.00    -0.501 OA 
HETATM   16  N   UNL     1      -9.754  10.927  66.866  1.00  0.00    -0.178 N  
HETATM   17  H   UNL     1      -8.891  11.122  67.373  1.00  0.00     0.000 HD 
BRANCH  16  18
HETATM   18  C   UNL     1      -9.937   9.609  66.231  1.00  0.00    -0.264 C  
BRANCH  18  19
HETATM   19  C   UNL     1      -9.835   8.386  67.158  1.00  0.00    -0.279 A  
HETATM   20  C   UNL     1      -8.861   8.254  68.205  1.00  0.00    -0.140 A  
HETATM   21  C   UNL     1      -9.008   7.121  69.054  1.00  0.00    -0.134 A  
HETATM   22  C   UNL     1     -10.874   7.415  67.064  1.00  0.00    -0.307 A  
HETATM   23  C   UNL     1     -10.043   6.192  68.944  1.00  0.00    -0.211 A  
HETATM   24  C   UNL     1     -10.980   6.337  67.944  1.00  0.00    -0.421 A  
BRANCH  20  25
HETATM   25  N   UNL     1      -7.782   9.103  68.475  1.00  0.00    -0.092 NA 
HETATM   26  C   UNL     1      -6.496   8.934  67.763  1.00  0.00    -0.060 C  
HETATM   27  C   UNL     1      -6.005  10.300  67.271  1.00  0.00    -0.053 C  
HETATM   28  C   UNL     1      -5.833  11.265  68.438  1.00  0.00    -0.045 C  
HETATM   29  C   UNL     1      -7.124  11.367  69.228  1.00  0.00    -0.100 C  
HETATM   30  C   UNL     1      -7.680  10.005  69.622  1.00  0.00    -0.156 C  
ENDBRANCH  20  25
ENDBRANCH  18  19
BRANCH  18  31
HETATM   31  C   UNL     1      -8.986   9.403  65.035  1.00  0.00    -0.258 C  
HETATM   32  C   UNL     1     -10.147  10.993  63.368  1.00  0.00    -0.424 C  
HETATM   33  C   UNL     1      -8.844  10.591  64.061  1.00  0.00    -0.206 C  
HETATM   34  C   UNL     1      -7.826  10.217  62.978  1.00  0.00    -0.148 C  
ENDBRANCH  18  31
ENDBRANCH  16  18
ENDBRANCH  13  14
ENDBRANCH  11  13
ENDBRANCH   3   4
ENDBRANCH   2   3
TORSDOF 8
ENDMDL
MODEL       34
REMARK 921   NORMALIZED FREE ENERGY PREDICTED BY IDOCK:   -6.35 KCAL/MOL
REMARK 922        TOTAL FREE ENERGY PREDICTED BY IDOCK:  -11.71 KCAL/MOL
REMARK 923 INTER-LIGAND FREE ENERGY PREDICTED BY IDOCK:   -8.55 KCAL/MOL
REMARK 924 INTRA-LIGAND FREE ENERGY PREDICTED BY IDOCK:   -3.16 KCAL/MOL
REMARK 927      BINDING AFFINITY PREDICTED BY RF-SCORE:    0.00 PKD
ROOT
HETATM    1  C   UNL     1     -13.346  11.725  72.179  1.00  0.00    -0.334 C  
HETATM    2  C   UNL     1     -12.990  11.723  70.709  1.00  0.00     0.048 C  
ENDROOT
BRANCH   2   3
HETATM    3  O   UNL     1     -12.134  10.596  70.432  1.00  0.00    -0.285 OA 
BRANCH   3   4
HETATM    4  C   UNL     1     -11.108  10.858  69.559  1.00  0.00    -0.268 A  
HETATM    5  C   UNL     1      -9.856  10.263  69.782  1.00  0.00    -0.201 A  
HETATM    6  C   UNL     1      -8.786  10.585  68.927  1.00  0.00    -0.154 A  
HETATM    7  C   UNL     1      -9.549   9.310  70.900  1.00  0.00    -0.269 C  
HETATM    8  C   UNL     1      -8.955  11.477  67.870  1.00  0.00    -0.159 A  
HETATM    9  O   UNL     1      -8.419   8.887  71.113  1.00  0.00    -0.174 OA 
HETATM   10  O   UNL     1     -10.607   8.932  71.637  1.00  0.00    -0.296 OA 
HETATM   11  C   UNL     1     -10.207  12.050  67.627  1.00  0.00    -0.210 A  
HETATM   12  C   UNL     1     -11.281  11.703  68.451  1.00  0.00    -0.307 A  
BRANCH  11  13
HETATM   13  C   UNL     1     -10.410  13.029  66.499  1.00  0.00    -0.278 C  
BRANCH  13  14
HETATM   14  C   UNL     1     -10.993  14.354  66.951  1.00  0.00    -0.308 C  
HETATM   15  O   UNL     1     -12.131  14.676  66.614  1.00  0.00    -0.347 OA 
HETATM   16  N   UNL     1     -10.178  15.128  67.759  1.00  0.00    -0.235 N  
HETATM   17  H   UNL     1      -9.226  14.818  67.952  1.00  0.00     0.000 HD 
BRANCH  16  18
HETATM   18  C   UNL     1     -10.658  16.392  68.347  1.00  0.00    -0.311 C  
BRANCH  18  19
HETATM   19  C   UNL     1      -9.939  17.673  67.889  1.00  0.00    -0.323 A  
HETATM   20  C   UNL     1      -8.519  17.766  67.691  1.00  0.00    -0.229 A  
HETATM   21  C   UNL     1      -8.047  18.984  67.129  1.00  0.00    -0.280 A  
HETATM   22  C   UNL     1     -10.758  18.768  67.489  1.00  0.00    -0.474 A  
HETATM   23  C   UNL     1      -8.875  20.036  66.736  1.00  0.00    -0.427 A  
HETATM   24  C   UNL     1     -10.237  19.929  66.919  1.00  0.00    -0.600 A  
BRANCH  20  25
HETATM   25  N   UNL     1      -7.552  16.802  67.999  1.00  0.00    -0.165 NA 
HETATM   26  C   UNL     1      -6.881  16.805  69.319  1.00  0.00    -0.225 C  
HETATM   27  C   UNL     1      -6.871  15.381  69.886  1.00  0.00    -0.116 C  
HETATM   28  C   UNL     1      -6.155  14.426  68.937  1.00  0.00    -0.087 C  
HETATM   29  C   UNL     1      -6.780  14.493  67.556  1.00  0.00    -0.141 C  
HETATM   30  C   UNL     1      -6.899  15.918  67.033  1.00  0.00    -0.095 C  
ENDBRANCH  20  25
ENDBRANCH  18  19
BRANCH  18  31
HETATM   31  C   UNL     1     -10.665  16.352  69.888  1.00  0.00    -0.300 C  
HETATM   32  C   UNL     1     -12.968  15.236  70.214  1.00  0.00    -0.228 C  
HETATM   33  C   UNL     1     -11.473  15.211  70.539  1.00  0.00    -0.342 C  
HETATM   34  C   UNL     1     -11.317  15.308  72.061  1.00  0.00    -0.431 C  
ENDBRANCH  18  31
ENDBRANCH  16  18
ENDBRANCH  13  14
ENDBRANCH  11  13
ENDBRANCH   3   4
ENDBRANCH   2   3
TORSDOF 8
ENDMDL
MODEL       35
REMARK 921   NORMALIZED FREE ENERGY PREDICTED BY IDOCK:   -6.33 KCAL/MOL
REMARK 922        TOTAL FREE ENERGY PREDICTED BY IDOCK:  -11.69 KCAL/MOL
REMARK 923 INTER-LIGAND FREE ENERGY PREDICTED BY IDOCK:   -9.28 KCAL/MOL
REMARK 924 INTRA-LIGAND FREE ENERGY PREDICTED BY IDOCK:   -2.41 KCAL/MOL
REMARK 927      BINDING AFFINITY PREDICTED BY RF-SCORE:    0.00 PKD
ROOT
HETATM    1  C   UNL     1      -8.434   5.376  69.128  1.00  0.00    -0.103 C  
HETATM    2  C   UNL     1      -9.905   5.424  68.784  1.00  0.00    -0.150 C  
ENDROOT
BRANCH   2   3
HETATM    3  O   UNL     1     -10.676   5.107  69.961  1.00  0.00    -0.241 OA 
BRANCH   3   4
HETATM    4  C   UNL     1     -10.898   6.168  70.803  1.00  0.00    -0.288 A  
HETATM    5  C   UNL     1     -10.836   5.960  72.190  1.00  0.00    -0.290 A  
HETATM    6  C   UNL     1     -11.131   7.031  73.054  1.00  0.00    -0.295 A  
HETATM    7  C   UNL     1     -10.502   4.651  72.845  1.00  0.00    -0.194 C  
HETATM    8  C   UNL     1     -11.476   8.284  72.552  1.00  0.00    -0.454 A  
HETATM    9  O   UNL     1     -10.550   4.491  74.058  1.00  0.00    -0.228 OA 
HETATM   10  O   UNL     1     -10.118   3.673  72.007  1.00  0.00    -0.173 OA 
HETATM   11  C   UNL     1     -11.512   8.502  71.171  1.00  0.00    -0.322 A  
HETATM   12  C   UNL     1     -11.183   7.451  70.311  1.00  0.00    -0.268 A  
BRANCH  11  13
HETATM   13  C   UNL     1     -11.897   9.845  70.605  1.00  0.00    -0.386 C  
BRANCH  13  14
HETATM   14  C   UNL     1     -10.945  10.340  69.533  1.00  0.00    -0.258 C  
HETATM   15  O   UNL     1      -9.753  10.499  69.790  1.00  0.00    -0.139 OA 
HETATM   16  N   UNL     1     -11.504  10.566  68.287  1.00  0.00    -0.475 N  
HETATM   17  H   UNL     1     -12.511  10.462  68.164  1.00  0.00     0.000 HD 
BRANCH  16  18
HETATM   18  C   UNL     1     -10.673  10.955  67.133  1.00  0.00    -0.270 C  
BRANCH  18  19
HETATM   19  C   UNL     1     -11.232  12.073  66.236  1.00  0.00    -0.394 A  
HETATM   20  C   UNL     1     -11.362  13.442  66.651  1.00  0.00    -0.323 A  
HETATM   21  C   UNL     1     -11.764  14.363  65.645  1.00  0.00    -0.356 A  
HETATM   22  C   UNL     1     -11.477  11.747  64.871  1.00  0.00    -0.269 A  
HETATM   23  C   UNL     1     -11.986  14.016  64.312  1.00  0.00    -0.463 A  
HETATM   24  C   UNL     1     -11.844  12.702  63.922  1.00  0.00    -0.544 A  
BRANCH  20  25
HETATM   25  N   UNL     1     -11.152  13.966  67.932  1.00  0.00    -0.251 NA 
HETATM   26  C   UNL     1      -9.778  14.214  68.426  1.00  0.00    -0.226 C  
HETATM   27  C   UNL     1      -9.712  15.608  69.061  1.00  0.00    -0.241 C  
HETATM   28  C   UNL     1     -10.711  15.728  70.208  1.00  0.00    -0.342 C  
HETATM   29  C   UNL     1     -12.106  15.378  69.726  1.00  0.00    -0.373 C  
HETATM   30  C   UNL     1     -12.158  14.046  68.991  1.00  0.00    -0.323 C  
ENDBRANCH  20  25
ENDBRANCH  18  19
BRANCH  18  31
HETATM   31  C   UNL     1     -10.306   9.748  66.247  1.00  0.00    -0.235 C  
HETATM   32  C   UNL     1      -7.858   9.465  67.010  1.00  0.00    -0.098 C  
HETATM   33  C   UNL     1      -9.220   8.800  66.796  1.00  0.00    -0.211 C  
HETATM   34  C   UNL     1      -9.034   7.644  65.808  1.00  0.00    -0.095 C  
ENDBRANCH  18  31
ENDBRANCH  16  18
ENDBRANCH  13  14
ENDBRANCH  11  13
ENDBRANCH   3   4
ENDBRANCH   2   3
TORSDOF 8
ENDMDL
MODEL       36
REMARK 921   NORMALIZED FREE ENERGY PREDICTED BY IDOCK:   -6.31 KCAL/MOL
REMARK 922        TOTAL FREE ENERGY PREDICTED BY IDOCK:  -11.66 KCAL/MOL
REMARK 923 INTER-LIGAND FREE ENERGY PREDICTED BY IDOCK:   -9.72 KCAL/MOL
REMARK 924 INTRA-LIGAND FREE ENERGY PREDICTED BY IDOCK:   -1.95 KCAL/MOL
REMARK 927      BINDING AFFINITY PREDICTED BY RF-SCORE:    0.00 PKD
ROOT
HETATM    1  C   UNL     1      -9.395   3.688  69.698  1.00  0.00    -0.243 C  
HETATM    2  C   UNL     1      -9.963   4.947  69.081  1.00  0.00    -0.182 C  
ENDROOT
BRANCH   2   3
HETATM    3  O   UNL     1     -10.840   5.585  70.032  1.00  0.00    -0.317 OA 
BRANCH   3   4
HETATM    4  C   UNL     1     -10.750   6.954  70.065  1.00  0.00    -0.243 A  
HETATM    5  C   UNL     1     -10.774   7.608  71.307  1.00  0.00    -0.248 A  
HETATM    6  C   UNL     1     -10.750   9.015  71.337  1.00  0.00    -0.401 A  
HETATM    7  C   UNL     1     -10.853   6.917  72.636  1.00  0.00    -0.257 C  
HETATM    8  C   UNL     1     -10.701   9.757  70.160  1.00  0.00    -0.339 A  
HETATM    9  O   UNL     1     -10.965   7.528  73.691  1.00  0.00    -0.322 OA 
HETATM   10  O   UNL     1     -10.764   5.577  72.592  1.00  0.00    -0.215 OA 
HETATM   11  C   UNL     1     -10.649   9.110  68.922  1.00  0.00    -0.214 A  
HETATM   12  C   UNL     1     -10.633   7.712  68.889  1.00  0.00    -0.176 A  
BRANCH  11  13
HETATM   13  C   UNL     1     -10.609   9.892  67.634  1.00  0.00    -0.325 C  
BRANCH  13  14
HETATM   14  C   UNL     1     -10.215  11.344  67.826  1.00  0.00    -0.181 C  
HETATM   15  O   UNL     1      -9.029  11.654  67.926  1.00  0.00    -0.157 OA 
HETATM   16  N   UNL     1     -11.258  12.254  67.856  1.00  0.00    -0.254 N  
HETATM   17  H   UNL     1     -12.219  11.914  67.819  1.00  0.00     0.000 HD 
BRANCH  16  18
HETATM   18  C   UNL     1     -11.007  13.704  67.939  1.00  0.00    -0.259 C  
BRANCH  18  19
HETATM   19  C   UNL     1     -11.347  14.379  69.280  1.00  0.00    -0.319 A  
HETATM   20  C   UNL     1     -10.920  15.701  69.642  1.00  0.00    -0.288 A  
HETATM   21  C   UNL     1     -11.447  16.216  70.859  1.00  0.00    -0.421 A  
HETATM   22  C   UNL     1     -12.272  13.703  70.128  1.00  0.00    -0.413 A  
HETATM   23  C   UNL     1     -12.361  15.534  71.664  1.00  0.00    -0.471 A  
HETATM   24  C   UNL     1     -12.774  14.271  71.298  1.00  0.00    -0.427 A  
BRANCH  20  25
HETATM   25  N   UNL     1     -10.037  16.531  68.941  1.00  0.00    -0.251 NA 
HETATM   26  C   UNL     1      -8.590  16.223  68.898  1.00  0.00    -0.260 C  
HETATM   27  C   UNL     1      -8.088  16.348  67.456  1.00  0.00    -0.166 C  
HETATM   28  C   UNL     1      -8.341  17.751  66.914  1.00  0.00    -0.257 C  
HETATM   29  C   UNL     1      -9.809  18.107  67.047  1.00  0.00    -0.324 C  
HETATM   30  C   UNL     1     -10.345  17.875  68.454  1.00  0.00    -0.374 C  
ENDBRANCH  20  25
ENDBRANCH  18  19
BRANCH  18  31
HETATM   31  C   UNL     1     -11.703  14.482  66.805  1.00  0.00    -0.393 C  
HETATM   32  C   UNL     1     -10.128  13.803  64.878  1.00  0.00    -0.297 C  
HETATM   33  C   UNL     1     -11.568  13.890  65.387  1.00  0.00    -0.331 C  
HETATM   34  C   UNL     1     -12.364  14.765  64.412  1.00  0.00    -0.389 C  
ENDBRANCH  18  31
ENDBRANCH  16  18
ENDBRANCH  13  14
ENDBRANCH  11  13
ENDBRANCH   3   4
ENDBRANCH   2   3
TORSDOF 8
ENDMDL
MODEL       37
REMARK 921   NORMALIZED FREE ENERGY PREDICTED BY IDOCK:   -6.30 KCAL/MOL
REMARK 922        TOTAL FREE ENERGY PREDICTED BY IDOCK:  -11.64 KCAL/MOL
REMARK 923 INTER-LIGAND FREE ENERGY PREDICTED BY IDOCK:   -9.99 KCAL/MOL
REMARK 924 INTRA-LIGAND FREE ENERGY PREDICTED BY IDOCK:   -1.64 KCAL/MOL
REMARK 927      BINDING AFFINITY PREDICTED BY RF-SCORE:    0.00 PKD
ROOT
HETATM    1  C   UNL     1     -10.852  10.404  69.921  1.00  0.00    -0.353 C  
HETATM    2  C   UNL     1     -11.340  10.792  68.544  1.00  0.00    -0.295 C  
ENDROOT
BRANCH   2   3
HETATM    3  O   UNL     1     -10.597  10.053  67.553  1.00  0.00    -0.242 OA 
BRANCH   3   4
HETATM    4  C   UNL     1     -10.608  10.609  66.298  1.00  0.00    -0.161 A  
HETATM    5  C   UNL     1      -9.828  10.024  65.288  1.00  0.00    -0.388 A  
HETATM    6  C   UNL     1      -9.786  10.633  64.020  1.00  0.00    -0.399 A  
HETATM    7  C   UNL     1      -8.991   8.790  65.460  1.00  0.00    -0.181 C  
HETATM    8  C   UNL     1     -10.507  11.796  63.758  1.00  0.00    -0.466 A  
HETATM    9  O   UNL     1      -8.252   8.367  64.579  1.00  0.00    -0.158 OA 
HETATM   10  O   UNL     1      -9.129   8.164  66.640  1.00  0.00    -0.146 OA 
HETATM   11  C   UNL     1     -11.307  12.366  64.753  1.00  0.00    -0.360 A  
HETATM   12  C   UNL     1     -11.382  11.743  66.002  1.00  0.00    -0.335 A  
BRANCH  11  13
HETATM   13  C   UNL     1     -12.084  13.632  64.497  1.00  0.00    -0.459 C  
BRANCH  13  14
HETATM   14  C   UNL     1     -11.377  14.880  64.989  1.00  0.00    -0.398 C  
HETATM   15  O   UNL     1     -11.229  15.843  64.239  1.00  0.00    -0.428 OA 
HETATM   16  N   UNL     1     -10.950  14.852  66.306  1.00  0.00    -0.335 N  
HETATM   17  H   UNL     1     -11.062  13.997  66.850  1.00  0.00     0.000 HD 
BRANCH  16  18
HETATM   18  C   UNL     1     -10.336  16.035  66.937  1.00  0.00    -0.289 C  
BRANCH  18  19
HETATM   19  C   UNL     1      -8.819  15.965  67.183  1.00  0.00    -0.228 A  
HETATM   20  C   UNL     1      -8.014  17.098  67.546  1.00  0.00    -0.176 A  
HETATM   21  C   UNL     1      -6.658  16.820  67.873  1.00  0.00    -0.153 A  
HETATM   22  C   UNL     1      -8.226  14.669  67.207  1.00  0.00    -0.235 A  
HETATM   23  C   UNL     1      -6.107  15.538  67.898  1.00  0.00    -0.163 A  
HETATM   24  C   UNL     1      -6.893  14.457  67.561  1.00  0.00    -0.162 A  
BRANCH  20  25
HETATM   25  N   UNL     1      -8.409  18.439  67.601  1.00  0.00    -0.249 NA 
HETATM   26  C   UNL     1      -8.277  19.311  66.412  1.00  0.00    -0.319 C  
HETATM   27  C   UNL     1      -9.578  20.097  66.213  1.00  0.00    -0.487 C  
HETATM   28  C   UNL     1      -9.897  20.937  67.445  1.00  0.00    -0.309 C  
HETATM   29  C   UNL     1      -9.936  20.059  68.682  1.00  0.00    -0.432 C  
HETATM   30  C   UNL     1      -8.695  19.188  68.824  1.00  0.00    -0.330 C  
ENDBRANCH  20  25
ENDBRANCH  18  19
BRANCH  18  31
HETATM   31  C   UNL     1     -11.034  16.417  68.258  1.00  0.00    -0.355 C  
HETATM   32  C   UNL     1     -11.246  14.048  69.257  1.00  0.00    -0.304 C  
HETATM   33  C   UNL     1     -10.774  15.489  69.462  1.00  0.00    -0.272 C  
HETATM   34  C   UNL     1     -11.503  16.057  70.685  1.00  0.00    -0.427 C  
ENDBRANCH  18  31
ENDBRANCH  16  18
ENDBRANCH  13  14
ENDBRANCH  11  13
ENDBRANCH   3   4
ENDBRANCH   2   3
TORSDOF 8
ENDMDL
MODEL       38
REMARK 921   NORMALIZED FREE ENERGY PREDICTED BY IDOCK:   -6.29 KCAL/MOL
REMARK 922        TOTAL FREE ENERGY PREDICTED BY IDOCK:  -11.63 KCAL/MOL
REMARK 923 INTER-LIGAND FREE ENERGY PREDICTED BY IDOCK:  -10.03 KCAL/MOL
REMARK 924 INTRA-LIGAND FREE ENERGY PREDICTED BY IDOCK:   -1.60 KCAL/MOL
REMARK 927      BINDING AFFINITY PREDICTED BY RF-SCORE:    0.00 PKD
ROOT
HETATM    1  C   UNL     1      -8.676   9.627  63.067  1.00  0.00    -0.229 C  
HETATM    2  C   UNL     1      -9.778  10.579  63.474  1.00  0.00    -0.319 C  
ENDROOT
BRANCH   2   3
HETATM    3  O   UNL     1     -10.235  10.234  64.798  1.00  0.00    -0.329 OA 
BRANCH   3   4
HETATM    4  C   UNL     1     -10.756  11.283  65.514  1.00  0.00    -0.220 A  
HETATM    5  C   UNL     1     -11.014  11.111  66.883  1.00  0.00    -0.333 A  
HETATM    6  C   UNL     1     -11.611  12.163  67.602  1.00  0.00    -0.413 A  
HETATM    7  C   UNL     1     -10.724   9.858  67.657  1.00  0.00    -0.281 C  
HETATM    8  C   UNL     1     -11.943  13.362  66.977  1.00  0.00    -0.429 A  
HETATM    9  O   UNL     1     -11.050   9.718  68.830  1.00  0.00    -0.189 OA 
HETATM   10  O   UNL     1     -10.056   8.909  66.981  1.00  0.00    -0.213 OA 
HETATM   11  C   UNL     1     -11.664  13.548  65.619  1.00  0.00    -0.363 A  
HETATM   12  C   UNL     1     -11.035  12.520  64.911  1.00  0.00    -0.335 A  
BRANCH  11  13
HETATM   13  C   UNL     1     -12.027  14.831  64.918  1.00  0.00    -0.359 C  
BRANCH  13  14
HETATM   14  C   UNL     1     -10.958  15.900  65.030  1.00  0.00    -0.412 C  
HETATM   15  O   UNL     1     -11.061  16.948  64.394  1.00  0.00    -1.128 OA 
HETATM   16  N   UNL     1      -9.909  15.618  65.890  1.00  0.00    -0.324 N  
HETATM   17  H   UNL     1      -9.866  14.705  66.342  1.00  0.00     0.000 HD 
BRANCH  16  18
HETATM   18  C   UNL     1      -8.855  16.611  66.165  1.00  0.00    -0.288 C  
BRANCH  18  19
HETATM   19  C   UNL     1      -7.661  16.122  67.004  1.00  0.00    -0.256 A  
HETATM   20  C   UNL     1      -6.566  16.961  67.403  1.00  0.00    -0.162 A  
HETATM   21  C   UNL     1      -5.625  16.376  68.296  1.00  0.00    -0.106 A  
HETATM   22  C   UNL     1      -7.745  14.805  67.543  1.00  0.00    -0.215 A  
HETATM   23  C   UNL     1      -5.739  15.086  68.815  1.00  0.00    -0.086 A  
HETATM   24  C   UNL     1      -6.802  14.295  68.436  1.00  0.00    -0.104 A  
BRANCH  20  25
HETATM   25  N   UNL     1      -6.315  18.279  67.005  1.00  0.00    -0.171 NA 
HETATM   26  C   UNL     1      -5.742  18.564  65.670  1.00  0.00    -0.198 C  
HETATM   27  C   UNL     1      -6.535  19.697  65.009  1.00  0.00    -0.308 C  
HETATM   28  C   UNL     1      -6.504  20.954  65.871  1.00  0.00    -0.229 C  
HETATM   29  C   UNL     1      -7.000  20.642  67.271  1.00  0.00    -0.384 C  
HETATM   30  C   UNL     1      -6.295  19.443  67.890  1.00  0.00    -0.214 C  
ENDBRANCH  20  25
ENDBRANCH  18  19
BRANCH  18  31
HETATM   31  C   UNL     1      -9.417  17.895  66.807  1.00  0.00    -0.289 C  
HETATM   32  C   UNL     1     -10.624  16.803  68.809  1.00  0.00    -0.348 C  
HETATM   33  C   UNL     1      -9.626  17.861  68.335  1.00  0.00    -0.320 C  
HETATM   34  C   UNL     1     -10.136  19.232  68.790  1.00  0.00    -0.477 C  
ENDBRANCH  18  31
ENDBRANCH  16  18
ENDBRANCH  13  14
ENDBRANCH  11  13
ENDBRANCH   3   4
ENDBRANCH   2   3
TORSDOF 8
ENDMDL
MODEL       39
REMARK 921   NORMALIZED FREE ENERGY PREDICTED BY IDOCK:   -6.24 KCAL/MOL
REMARK 922        TOTAL FREE ENERGY PREDICTED BY IDOCK:  -11.55 KCAL/MOL
REMARK 923 INTER-LIGAND FREE ENERGY PREDICTED BY IDOCK:   -9.57 KCAL/MOL
REMARK 924 INTRA-LIGAND FREE ENERGY PREDICTED BY IDOCK:   -1.98 KCAL/MOL
REMARK 927      BINDING AFFINITY PREDICTED BY RF-SCORE:    0.00 PKD
ROOT
HETATM    1  C   UNL     1     -12.055  16.070  72.002  1.00  0.00    -0.606 C  
HETATM    2  C   UNL     1     -12.474  15.469  70.680  1.00  0.00    -0.435 C  
ENDROOT
BRANCH   2   3
HETATM    3  O   UNL     1     -11.549  15.889  69.656  1.00  0.00    -0.326 OA 
BRANCH   3   4
HETATM    4  C   UNL     1     -11.315  14.953  68.678  1.00  0.00    -0.292 A  
HETATM    5  C   UNL     1     -10.794  15.374  67.445  1.00  0.00    -0.309 A  
HETATM    6  C   UNL     1     -10.618  14.426  66.420  1.00  0.00    -0.297 A  
HETATM    7  C   UNL     1     -10.427  16.790  67.109  1.00  0.00    -0.299 C  
HETATM    8  C   UNL     1     -10.948  13.087  66.616  1.00  0.00    -0.301 A  
HETATM    9  O   UNL     1     -10.063  17.129  65.990  1.00  0.00    -0.395 OA 
HETATM   10  O   UNL     1     -10.498  17.658  68.132  1.00  0.00    -0.364 OA 
HETATM   11  C   UNL     1     -11.442  12.659  67.852  1.00  0.00    -0.360 A  
HETATM   12  C   UNL     1     -11.582  13.591  68.885  1.00  0.00    -0.364 A  
BRANCH  11  13
HETATM   13  C   UNL     1     -11.820  11.218  68.083  1.00  0.00    -0.276 C  
BRANCH  13  14
HETATM   14  C   UNL     1     -10.625  10.313  68.311  1.00  0.00    -0.221 C  
HETATM   15  O   UNL     1     -10.127   9.697  67.371  1.00  0.00    -0.178 OA 
HETATM   16  N   UNL     1     -10.148  10.258  69.610  1.00  0.00    -0.288 N  
HETATM   17  H   UNL     1     -10.647  10.756  70.347  1.00  0.00     0.000 HD 
BRANCH  16  18
HETATM   18  C   UNL     1      -8.934   9.494  69.950  1.00  0.00    -0.212 C  
BRANCH  18  19
HETATM   19  C   UNL     1      -8.864   8.926  71.378  1.00  0.00    -0.283 A  
HETATM   20  C   UNL     1      -9.996   8.397  72.086  1.00  0.00    -0.306 A  
HETATM   21  C   UNL     1      -9.717   7.785  73.339  1.00  0.00    -0.353 A  
HETATM   22  C   UNL     1      -7.568   8.777  71.952  1.00  0.00    -0.051 A  
HETATM   23  C   UNL     1      -8.435   7.644  73.872  1.00  0.00    -0.270 A  
HETATM   24  C   UNL     1      -7.355   8.144  73.177  1.00  0.00    -0.164 A  
BRANCH  20  25
HETATM   25  N   UNL     1     -11.337   8.426  71.688  1.00  0.00    -0.268 NA 
HETATM   26  C   UNL     1     -11.890   7.353  70.831  1.00  0.00    -0.290 C  
HETATM   27  C   UNL     1     -13.232   6.886  71.406  1.00  0.00    -0.287 C  
HETATM   28  C   UNL     1     -14.217   8.047  71.493  1.00  0.00    -0.513 C  
HETATM   29  C   UNL     1     -13.613   9.188  72.289  1.00  0.00    -0.548 C  
HETATM   30  C   UNL     1     -12.227   9.581  71.795  1.00  0.00    -0.387 C  
ENDBRANCH  20  25
ENDBRANCH  18  19
BRANCH  18  31
HETATM   31  C   UNL     1      -7.646  10.294  69.671  1.00  0.00    -0.167 C  
HETATM   32  C   UNL     1      -6.331   8.449  68.437  1.00  0.00    -0.055 C  
HETATM   33  C   UNL     1      -6.847   9.889  68.416  1.00  0.00    -0.063 C  
HETATM   34  C   UNL     1      -5.640  10.824  68.280  1.00  0.00    -0.043 C  
ENDBRANCH  18  31
ENDBRANCH  16  18
ENDBRANCH  13  14
ENDBRANCH  11  13
ENDBRANCH   3   4
ENDBRANCH   2   3
TORSDOF 8
ENDMDL
MODEL       40
REMARK 921   NORMALIZED FREE ENERGY PREDICTED BY IDOCK:   -6.22 KCAL/MOL
REMARK 922        TOTAL FREE ENERGY PREDICTED BY IDOCK:  -11.52 KCAL/MOL
REMARK 923 INTER-LIGAND FREE ENERGY PREDICTED BY IDOCK:   -9.63 KCAL/MOL
REMARK 924 INTRA-LIGAND FREE ENERGY PREDICTED BY IDOCK:   -1.89 KCAL/MOL
REMARK 927      BINDING AFFINITY PREDICTED BY RF-SCORE:    0.00 PKD
ROOT
HETATM    1  C   UNL     1     -13.899   7.703  71.683  1.00  0.00    -0.480 C  
HETATM    2  C   UNL     1     -13.931   9.214  71.664  1.00  0.00    -0.286 C  
ENDROOT
BRANCH   2   3
HETATM    3  O   UNL     1     -12.633   9.719  72.039  1.00  0.00    -0.380 OA 
BRANCH   3   4
HETATM    4  C   UNL     1     -11.789   9.967  70.985  1.00  0.00    -0.376 A  
HETATM    5  C   UNL     1     -10.491   9.434  71.014  1.00  0.00    -0.392 A  
HETATM    6  C   UNL     1      -9.603   9.743  69.967  1.00  0.00    -0.282 A  
HETATM    7  C   UNL     1      -9.948   8.562  72.109  1.00  0.00    -0.317 C  
HETATM    8  C   UNL     1      -9.997  10.563  68.911  1.00  0.00    -0.213 A  
HETATM    9  O   UNL     1      -8.780   8.195  72.140  1.00  0.00    -0.141 OA 
HETATM   10  O   UNL     1     -10.841   8.190  73.040  1.00  0.00    -0.331 OA 
HETATM   11  C   UNL     1     -11.297  11.074  68.865  1.00  0.00    -0.346 A  
HETATM   12  C   UNL     1     -12.194  10.736  69.883  1.00  0.00    -0.384 A  
BRANCH  11  13
HETATM   13  C   UNL     1     -11.741  11.974  67.740  1.00  0.00    -0.379 C  
BRANCH  13  14
HETATM   14  C   UNL     1     -11.132  13.361  67.806  1.00  0.00    -0.268 C  
HETATM   15  O   UNL     1     -11.002  14.028  66.781  1.00  0.00    -0.292 OA 
HETATM   16  N   UNL     1     -10.769  13.802  69.067  1.00  0.00    -0.359 N  
HETATM   17  H   UNL     1     -10.859  13.170  69.863  1.00  0.00     0.000 HD 
BRANCH  16  18
HETATM   18  C   UNL     1     -10.255  15.167  69.284  1.00  0.00    -0.251 C  
BRANCH  18  19
HETATM   19  C   UNL     1      -8.735  15.354  69.135  1.00  0.00    -0.242 A  
HETATM   20  C   UNL     1      -8.126  16.511  68.541  1.00  0.00    -0.218 A  
HETATM   21  C   UNL     1      -6.707  16.577  68.618  1.00  0.00    -0.152 A  
HETATM   22  C   UNL     1      -7.899  14.394  69.775  1.00  0.00     0.375 A  
HETATM   23  C   UNL     1      -5.914  15.625  69.261  1.00  0.00    -0.112 A  
HETATM   24  C   UNL     1      -6.512  14.527  69.840  1.00  0.00    -0.161 A  
BRANCH  20  25
HETATM   25  N   UNL     1      -8.767  17.568  67.886  1.00  0.00    -0.241 NA 
HETATM   26  C   UNL     1      -9.198  17.429  66.476  1.00  0.00    -0.266 C  
HETATM   27  C   UNL     1     -10.636  17.940  66.332  1.00  0.00    -0.238 C  
HETATM   28  C   UNL     1     -10.737  19.398  66.769  1.00  0.00    -0.550 C  
HETATM   29  C   UNL     1     -10.205  19.561  68.180  1.00  0.00    -0.556 C  
HETATM   30  C   UNL     1      -8.821  18.951  68.360  1.00  0.00    -0.344 C  
ENDBRANCH  20  25
ENDBRANCH  18  19
BRANCH  18  31
HETATM   31  C   UNL     1     -10.694  15.745  70.644  1.00  0.00    -0.199 C  
HETATM   32  C   UNL     1     -13.216  15.232  70.461  1.00  0.00    -0.278 C  
HETATM   33  C   UNL     1     -11.938  15.101  71.291  1.00  0.00    -0.399 C  
HETATM   34  C   UNL     1     -12.183  15.769  72.649  1.00  0.00    -0.573 C  
ENDBRANCH  18  31
ENDBRANCH  16  18
ENDBRANCH  13  14
ENDBRANCH  11  13
ENDBRANCH   3   4
ENDBRANCH   2   3
TORSDOF 8
ENDMDL
MODEL       41
REMARK 921   NORMALIZED FREE ENERGY PREDICTED BY IDOCK:   -6.21 KCAL/MOL
REMARK 922        TOTAL FREE ENERGY PREDICTED BY IDOCK:  -11.51 KCAL/MOL
REMARK 923 INTER-LIGAND FREE ENERGY PREDICTED BY IDOCK:   -9.55 KCAL/MOL
REMARK 924 INTRA-LIGAND FREE ENERGY PREDICTED BY IDOCK:   -1.96 KCAL/MOL
REMARK 927      BINDING AFFINITY PREDICTED BY RF-SCORE:    0.00 PKD
ROOT
HETATM    1  C   UNL     1      -9.651   5.099  68.294  1.00  0.00    -0.178 C  
HETATM    2  C   UNL     1     -10.688   5.822  67.464  1.00  0.00    -0.236 C  
ENDROOT
BRANCH   2   3
HETATM    3  O   UNL     1     -10.027   6.776  66.607  1.00  0.00    -0.181 OA 
BRANCH   3   4
HETATM    4  C   UNL     1      -9.564   7.897  67.250  1.00  0.00    -0.159 A  
HETATM    5  C   UNL     1      -8.252   8.330  67.002  1.00  0.00    -0.104 A  
HETATM    6  C   UNL     1      -7.755   9.439  67.711  1.00  0.00    -0.088 A  
HETATM    7  C   UNL     1      -7.302   7.676  66.041  1.00  0.00    -0.077 C  
HETATM    8  C   UNL     1      -8.544  10.107  68.645  1.00  0.00    -0.123 A  
HETATM    9  O   UNL     1      -6.136   8.030  65.925  1.00  0.00    -0.038 OA 
HETATM   10  O   UNL     1      -7.830   6.690  65.296  1.00  0.00    -0.096 OA 
HETATM   11  C   UNL     1      -9.861   9.696  68.875  1.00  0.00    -0.179 A  
HETATM   12  C   UNL     1     -10.371   8.619  68.144  1.00  0.00    -0.267 A  
BRANCH  11  13
HETATM   13  C   UNL     1     -10.729  10.394  69.890  1.00  0.00    -0.331 C  
BRANCH  13  14
HETATM   14  C   UNL     1     -11.543  11.530  69.303  1.00  0.00    -0.322 C  
HETATM   15  O   UNL     1     -12.470  11.292  68.530  1.00  0.00    -0.434 OA 
HETATM   16  N   UNL     1     -11.185  12.804  69.710  1.00  0.00    -0.481 N  
HETATM   17  H   UNL     1     -10.371  12.925  70.312  1.00  0.00     0.000 HD 
BRANCH  16  18
HETATM   18  C   UNL     1     -11.956  13.989  69.291  1.00  0.00    -0.353 C  
BRANCH  18  19
HETATM   19  C   UNL     1     -11.218  15.000  68.397  1.00  0.00    -0.303 A  
HETATM   20  C   UNL     1     -10.898  14.764  67.017  1.00  0.00    -0.315 A  
HETATM   21  C   UNL     1     -10.343  15.865  66.308  1.00  0.00    -0.324 A  
HETATM   22  C   UNL     1     -10.993  16.299  68.938  1.00  0.00    -0.334 A  
HETATM   23  C   UNL     1     -10.144  17.130  66.862  1.00  0.00    -0.298 A  
HETATM   24  C   UNL     1     -10.468  17.349  68.184  1.00  0.00    -0.389 A  
BRANCH  20  25
HETATM   25  N   UNL     1     -11.058  13.573  66.298  1.00  0.00    -0.299 NA 
HETATM   26  C   UNL     1     -12.379  13.205  65.739  1.00  0.00    -0.435 C  
HETATM   27  C   UNL     1     -12.204  12.751  64.285  1.00  0.00    -0.499 C  
HETATM   28  C   UNL     1     -11.250  11.564  64.200  1.00  0.00    -0.393 C  
HETATM   29  C   UNL     1      -9.928  11.906  64.861  1.00  0.00    -0.269 C  
HETATM   30  C   UNL     1     -10.101  12.468  66.266  1.00  0.00    -0.250 C  
ENDBRANCH  20  25
ENDBRANCH  18  19
BRANCH  18  31
HETATM   31  C   UNL     1     -12.564  14.741  70.491  1.00  0.00    -0.416 C  
HETATM   32  C   UNL     1     -13.277  12.691  71.885  1.00  0.00    -0.504 C  
HETATM   33  C   UNL     1     -12.513  14.016  71.851  1.00  0.00    -0.293 C  
HETATM   34  C   UNL     1     -13.112  14.936  72.920  1.00  0.00    -0.586 C  
ENDBRANCH  18  31
ENDBRANCH  16  18
ENDBRANCH  13  14
ENDBRANCH  11  13
ENDBRANCH   3   4
ENDBRANCH   2   3
TORSDOF 8
ENDMDL
MODEL       42
REMARK 921   NORMALIZED FREE ENERGY PREDICTED BY IDOCK:   -6.21 KCAL/MOL
REMARK 922        TOTAL FREE ENERGY PREDICTED BY IDOCK:  -11.51 KCAL/MOL
REMARK 923 INTER-LIGAND FREE ENERGY PREDICTED BY IDOCK:   -9.35 KCAL/MOL
REMARK 924 INTRA-LIGAND FREE ENERGY PREDICTED BY IDOCK:   -2.16 KCAL/MOL
REMARK 927      BINDING AFFINITY PREDICTED BY RF-SCORE:    0.00 PKD
ROOT
HETATM    1  C   UNL     1      -9.978  20.320  67.288  1.00  0.00    -0.580 C  
HETATM    2  C   UNL     1     -10.677  19.219  66.524  1.00  0.00    -0.393 C  
ENDROOT
BRANCH   2   3
HETATM    3  O   UNL     1      -9.690  18.407  65.856  1.00  0.00    -0.509 OA 
BRANCH   3   4
HETATM    4  C   UNL     1      -9.622  17.109  66.298  1.00  0.00    -0.252 A  
HETATM    5  C   UNL     1      -8.362  16.530  66.519  1.00  0.00    -0.327 A  
HETATM    6  C   UNL     1      -8.291  15.180  66.907  1.00  0.00    -0.267 A  
HETATM    7  C   UNL     1      -7.052  17.241  66.344  1.00  0.00    -0.277 C  
HETATM    8  C   UNL     1      -9.445  14.419  67.076  1.00  0.00    -0.255 A  
HETATM    9  O   UNL     1      -5.973  16.672  66.457  1.00  0.00    -0.313 OA 
HETATM   10  O   UNL     1      -7.144  18.555  66.081  1.00  0.00    -0.232 OA 
HETATM   11  C   UNL     1     -10.703  14.999  66.884  1.00  0.00    -0.308 A  
HETATM   12  C   UNL     1     -10.779  16.351  66.536  1.00  0.00    -0.163 A  
BRANCH  11  13
HETATM   13  C   UNL     1     -11.966  14.192  67.047  1.00  0.00    -0.471 C  
BRANCH  13  14
HETATM   14  C   UNL     1     -11.711  12.709  67.232  1.00  0.00    -0.370 C  
HETATM   15  O   UNL     1     -11.856  11.934  66.288  1.00  0.00    -0.546 OA 
HETATM   16  N   UNL     1     -11.297  12.320  68.495  1.00  0.00    -0.261 N  
HETATM   17  H   UNL     1     -11.250  13.014  69.241  1.00  0.00     0.000 HD 
BRANCH  16  18
HETATM   18  C   UNL     1     -10.921  10.924  68.782  1.00  0.00    -0.237 C  
BRANCH  18  19
HETATM   19  C   UNL     1     -11.672  10.241  69.939  1.00  0.00    -0.298 A  
HETATM   20  C   UNL     1     -11.456   8.879  70.341  1.00  0.00    -0.157 A  
HETATM   21  C   UNL     1     -12.134   8.462  71.519  1.00  0.00    -0.342 A  
HETATM   22  C   UNL     1     -12.505  11.068  70.748  1.00  0.00    -0.491 A  
HETATM   23  C   UNL     1     -12.935   9.298  72.298  1.00  0.00    -0.488 A  
HETATM   24  C   UNL     1     -13.124  10.607  71.910  1.00  0.00    -0.563 A  
BRANCH  20  25
HETATM   25  N   UNL     1     -10.667   7.918  69.698  1.00  0.00    -0.240 NA 
HETATM   26  C   UNL     1     -11.196   7.163  68.540  1.00  0.00     0.170 C  
HETATM   27  C   UNL     1     -10.148   7.151  67.422  1.00  0.00    -0.260 C  
HETATM   28  C   UNL     1      -8.847   6.521  67.906  1.00  0.00    -0.114 C  
HETATM   29  C   UNL     1      -8.352   7.233  69.152  1.00  0.00    -0.132 C  
HETATM   30  C   UNL     1      -9.426   7.351  70.226  1.00  0.00    -0.165 C  
ENDBRANCH  20  25
ENDBRANCH  18  19
BRANCH  18  31
HETATM   31  C   UNL     1      -9.406  10.764  69.014  1.00  0.00    -0.168 C  
HETATM   32  C   UNL     1      -8.705  10.338  66.568  1.00  0.00    -0.139 C  
HETATM   33  C   UNL     1      -8.488  11.161  67.840  1.00  0.00    -0.131 C  
HETATM   34  C   UNL     1      -7.030  10.985  68.276  1.00  0.00    -0.069 C  
ENDBRANCH  18  31
ENDBRANCH  16  18
ENDBRANCH  13  14
ENDBRANCH  11  13
ENDBRANCH   3   4
ENDBRANCH   2   3
TORSDOF 8
ENDMDL
MODEL       43
REMARK 921   NORMALIZED FREE ENERGY PREDICTED BY IDOCK:   -6.20 KCAL/MOL
REMARK 922        TOTAL FREE ENERGY PREDICTED BY IDOCK:  -11.49 KCAL/MOL
REMARK 923 INTER-LIGAND FREE ENERGY PREDICTED BY IDOCK:   -9.32 KCAL/MOL
REMARK 924 INTRA-LIGAND FREE ENERGY PREDICTED BY IDOCK:   -2.17 KCAL/MOL
REMARK 927      BINDING AFFINITY PREDICTED BY RF-SCORE:    0.00 PKD
ROOT
HETATM    1  C   UNL     1      -7.487   7.267  73.517  1.00  0.00    -0.103 C  
HETATM    2  C   UNL     1      -8.614   7.898  74.302  1.00  0.00    -0.190 C  
ENDROOT
BRANCH   2   3
HETATM    3  O   UNL     1      -9.784   7.059  74.208  1.00  0.00    -0.275 OA 
BRANCH   3   4
HETATM    4  C   UNL     1     -10.432   7.115  72.999  1.00  0.00    -0.292 A  
HETATM    5  C   UNL     1     -10.601   5.932  72.263  1.00  0.00    -0.260 A  
HETATM    6  C   UNL     1     -11.204   5.999  70.993  1.00  0.00    -0.332 A  
HETATM    7  C   UNL     1     -10.156   4.571  72.715  1.00  0.00    -0.166 C  
HETATM    8  C   UNL     1     -11.633   7.215  70.466  1.00  0.00    -0.331 A  
HETATM    9  O   UNL     1     -10.240   3.580  72.001  1.00  0.00    -0.152 OA 
HETATM   10  O   UNL     1      -9.684   4.512  73.971  1.00  0.00    -0.122 OA 
HETATM   11  C   UNL     1     -11.492   8.392  71.208  1.00  0.00    -0.325 A  
HETATM   12  C   UNL     1     -10.928   8.323  72.485  1.00  0.00    -0.424 A  
BRANCH  11  13
HETATM   13  C   UNL     1     -11.936   9.721  70.652  1.00  0.00    -0.340 C  
BRANCH  13  14
HETATM   14  C   UNL     1     -11.004  10.268  69.588  1.00  0.00    -0.270 C  
HETATM   15  O   UNL     1      -9.817  10.463  69.846  1.00  0.00    -0.165 OA 
HETATM   16  N   UNL     1     -11.574  10.499  68.347  1.00  0.00    -0.498 N  
HETATM   17  H   UNL     1     -12.577  10.363  68.225  1.00  0.00     0.000 HD 
BRANCH  16  18
HETATM   18  C   UNL     1     -10.759  10.938  67.199  1.00  0.00    -0.270 C  
BRANCH  18  19
HETATM   19  C   UNL     1     -11.347  12.072  66.341  1.00  0.00    -0.411 A  
HETATM   20  C   UNL     1     -11.449  13.436  66.778  1.00  0.00    -0.343 A  
HETATM   21  C   UNL     1     -11.885  14.373  65.801  1.00  0.00    -0.365 A  
HETATM   22  C   UNL     1     -11.651  11.764  64.983  1.00  0.00    -0.214 A  
HETATM   23  C   UNL     1     -12.165  14.044  64.474  1.00  0.00    -0.463 A  
HETATM   24  C   UNL     1     -12.050  12.734  64.063  1.00  0.00    -0.533 A  
BRANCH  20  25
HETATM   25  N   UNL     1     -11.181  13.942  68.055  1.00  0.00    -0.260 NA 
HETATM   26  C   UNL     1      -9.795  14.272  68.458  1.00  0.00    -0.231 C  
HETATM   27  C   UNL     1      -9.776  15.651  69.127  1.00  0.00    -0.249 C  
HETATM   28  C   UNL     1     -10.694  15.674  70.344  1.00  0.00    -0.336 C  
HETATM   29  C   UNL     1     -12.094  15.241  69.953  1.00  0.00    -0.375 C  
HETATM   30  C   UNL     1     -12.110  13.926  69.185  1.00  0.00    -0.338 C  
ENDBRANCH  20  25
ENDBRANCH  18  19
BRANCH  18  31
HETATM   31  C   UNL     1     -10.377   9.765  66.275  1.00  0.00    -0.235 C  
HETATM   32  C   UNL     1      -8.021  10.578  65.609  1.00  0.00    -0.158 C  
HETATM   33  C   UNL     1      -8.874   9.438  66.170  1.00  0.00    -0.178 C  
HETATM   34  C   UNL     1      -8.700   8.221  65.255  1.00  0.00    -0.121 C  
ENDBRANCH  18  31
ENDBRANCH  16  18
ENDBRANCH  13  14
ENDBRANCH  11  13
ENDBRANCH   3   4
ENDBRANCH   2   3
TORSDOF 8
ENDMDL
MODEL       44
REMARK 921   NORMALIZED FREE ENERGY PREDICTED BY IDOCK:   -6.19 KCAL/MOL
REMARK 922        TOTAL FREE ENERGY PREDICTED BY IDOCK:  -11.49 KCAL/MOL
REMARK 923 INTER-LIGAND FREE ENERGY PREDICTED BY IDOCK:  -10.45 KCAL/MOL
REMARK 924 INTRA-LIGAND FREE ENERGY PREDICTED BY IDOCK:   -1.03 KCAL/MOL
REMARK 927      BINDING AFFINITY PREDICTED BY RF-SCORE:    0.00 PKD
ROOT
HETATM    1  C   UNL     1      -7.314  10.185  62.890  1.00  0.00    -0.141 C  
HETATM    2  C   UNL     1      -8.664  10.807  62.613  1.00  0.00    -0.268 C  
ENDROOT
BRANCH   2   3
HETATM    3  O   UNL     1      -9.658  10.165  63.438  1.00  0.00    -0.296 OA 
BRANCH   3   4
HETATM    4  C   UNL     1     -10.290  11.000  64.326  1.00  0.00    -0.364 A  
HETATM    5  C   UNL     1     -10.490  10.563  65.646  1.00  0.00    -0.213 A  
HETATM    6  C   UNL     1     -11.197  11.390  66.538  1.00  0.00    -0.276 A  
HETATM    7  C   UNL     1     -10.025   9.244  66.190  1.00  0.00    -0.277 C  
HETATM    8  C   UNL     1     -11.694  12.626  66.130  1.00  0.00    -0.461 A  
HETATM    9  O   UNL     1     -10.301   8.864  67.321  1.00  0.00    -0.241 OA 
HETATM   10  O   UNL     1      -9.259   8.519  65.358  1.00  0.00    -0.117 OA 
HETATM   11  C   UNL     1     -11.473  13.077  64.825  1.00  0.00    -0.363 A  
HETATM   12  C   UNL     1     -10.738  12.275  63.947  1.00  0.00    -0.463 A  
BRANCH  11  13
HETATM   13  C   UNL     1     -12.014  14.404  64.357  1.00  0.00    -0.471 C  
BRANCH  13  14
HETATM   14  C   UNL     1     -11.117  15.575  64.710  1.00  0.00    -0.407 C  
HETATM   15  O   UNL     1     -11.191  16.624  64.074  1.00  0.00    -1.052 OA 
HETATM   16  N   UNL     1     -10.259  15.377  65.779  1.00  0.00    -0.325 N  
HETATM   17  H   UNL     1     -10.217  14.461  66.224  1.00  0.00     0.000 HD 
BRANCH  16  18
HETATM   18  C   UNL     1      -9.404  16.466  66.287  1.00  0.00    -0.315 C  
BRANCH  18  19
HETATM   19  C   UNL     1      -8.470  16.109  67.457  1.00  0.00    -0.177 A  
HETATM   20  C   UNL     1      -8.928  15.600  68.720  1.00  0.00    -0.205 A  
HETATM   21  C   UNL     1      -7.915  15.191  69.631  1.00  0.00    -0.113 A  
HETATM   22  C   UNL     1      -7.069  16.137  67.199  1.00  0.00    -0.253 A  
HETATM   23  C   UNL     1      -6.549  15.220  69.346  1.00  0.00    -0.152 A  
HETATM   24  C   UNL     1      -6.123  15.697  68.125  1.00  0.00    -0.137 A  
BRANCH  20  25
HETATM   25  N   UNL     1     -10.251  15.475  69.157  1.00  0.00    -0.225 NA 
HETATM   26  C   UNL     1     -11.086  14.336  68.711  1.00  0.00    -0.256 C  
HETATM   27  C   UNL     1     -11.805  13.730  69.921  1.00  0.00    -0.394 C  
HETATM   28  C   UNL     1     -12.673  14.775  70.613  1.00  0.00    -0.415 C  
HETATM   29  C   UNL     1     -11.839  15.987  70.985  1.00  0.00    -0.435 C  
HETATM   30  C   UNL     1     -11.030  16.525  69.812  1.00  0.00    -0.292 C  
ENDBRANCH  20  25
ENDBRANCH  18  19
BRANCH  18  31
HETATM   31  C   UNL     1     -10.220  17.716  66.670  1.00  0.00    -0.341 C  
HETATM   32  C   UNL     1      -8.283  19.421  66.696  1.00  0.00    -0.322 C  
HETATM   33  C   UNL     1      -9.675  19.069  66.167  1.00  0.00    -0.333 C  
HETATM   34  C   UNL     1     -10.642  20.177  66.599  1.00  0.00    -0.352 C  
ENDBRANCH  18  31
ENDBRANCH  16  18
ENDBRANCH  13  14
ENDBRANCH  11  13
ENDBRANCH   3   4
ENDBRANCH   2   3
TORSDOF 8
ENDMDL
MODEL       45
REMARK 921   NORMALIZED FREE ENERGY PREDICTED BY IDOCK:   -6.18 KCAL/MOL
REMARK 922        TOTAL FREE ENERGY PREDICTED BY IDOCK:  -11.46 KCAL/MOL
REMARK 923 INTER-LIGAND FREE ENERGY PREDICTED BY IDOCK:   -8.66 KCAL/MOL
REMARK 924 INTRA-LIGAND FREE ENERGY PREDICTED BY IDOCK:   -2.80 KCAL/MOL
REMARK 927      BINDING AFFINITY PREDICTED BY RF-SCORE:    0.00 PKD
ROOT
HETATM    1  C   UNL     1      -9.909  10.179  64.832  1.00  0.00    -0.390 C  
HETATM    2  C   UNL     1      -8.933   9.408  65.692  1.00  0.00    -0.193 C  
ENDROOT
BRANCH   2   3
HETATM    3  O   UNL     1      -9.483   8.107  65.981  1.00  0.00    -0.176 OA 
BRANCH   3   4
HETATM    4  C   UNL     1      -9.866   7.924  67.286  1.00  0.00    -0.195 A  
HETATM    5  C   UNL     1     -10.082   6.619  67.756  1.00  0.00    -0.180 A  
HETATM    6  C   UNL     1     -10.540   6.435  69.074  1.00  0.00    -0.305 A  
HETATM    7  C   UNL     1      -9.888   5.374  66.941  1.00  0.00    -0.166 C  
HETATM    8  C   UNL     1     -10.776   7.524  69.910  1.00  0.00    -0.254 A  
HETATM    9  O   UNL     1     -10.178   4.260  67.361  1.00  0.00    -0.051 OA 
HETATM   10  O   UNL     1      -9.348   5.563  65.725  1.00  0.00    -0.156 OA 
HETATM   11  C   UNL     1     -10.536   8.825  69.455  1.00  0.00    -0.222 A  
HETATM   12  C   UNL     1     -10.044   9.009  68.160  1.00  0.00    -0.229 A  
BRANCH  11  13
HETATM   13  C   UNL     1     -10.797  10.019  70.337  1.00  0.00    -0.380 C  
BRANCH  13  14
HETATM   14  C   UNL     1     -11.684  11.063  69.686  1.00  0.00    -0.329 C  
HETATM   15  O   UNL     1     -12.880  10.836  69.512  1.00  0.00    -0.198 OA 
HETATM   16  N   UNL     1     -11.063  12.251  69.338  1.00  0.00    -0.441 N  
HETATM   17  H   UNL     1     -10.055  12.344  69.466  1.00  0.00     0.000 HD 
BRANCH  16  18
HETATM   18  C   UNL     1     -11.829  13.383  68.787  1.00  0.00    -0.351 C  
BRANCH  18  19
HETATM   19  C   UNL     1     -11.606  13.697  67.297  1.00  0.00    -0.387 A  
HETATM   20  C   UNL     1     -10.311  13.763  66.679  1.00  0.00    -0.279 A  
HETATM   21  C   UNL     1     -10.303  13.922  65.266  1.00  0.00    -0.396 A  
HETATM   22  C   UNL     1     -12.763  13.761  66.469  1.00  0.00    -0.073 A  
HETATM   23  C   UNL     1     -11.454  13.971  64.478  1.00  0.00    -0.380 A  
HETATM   24  C   UNL     1     -12.690  13.892  65.082  1.00  0.00    -0.434 A  
BRANCH  20  25
HETATM   25  N   UNL     1      -9.063  13.701  67.310  1.00  0.00    -0.218 NA 
HETATM   26  C   UNL     1      -8.421  14.930  67.828  1.00  0.00    -0.154 C  
HETATM   27  C   UNL     1      -7.903  14.672  69.247  1.00  0.00    -0.071 C  
HETATM   28  C   UNL     1      -6.907  13.517  69.258  1.00  0.00    -0.051 C  
HETATM   29  C   UNL     1      -7.531  12.282  68.637  1.00  0.00    -0.100 C  
HETATM   30  C   UNL     1      -8.151  12.558  67.274  1.00  0.00    -0.179 C  
ENDBRANCH  20  25
ENDBRANCH  18  19
BRANCH  18  31
HETATM   31  C   UNL     1     -11.622  14.676  69.601  1.00  0.00    -0.349 C  
HETATM   32  C   UNL     1     -13.522  14.338  71.313  1.00  0.00    -0.378 C  
HETATM   33  C   UNL     1     -12.036  14.624  71.086  1.00  0.00    -0.405 C  
HETATM   34  C   UNL     1     -11.708  15.974  71.733  1.00  0.00    -0.593 C  
ENDBRANCH  18  31
ENDBRANCH  16  18
ENDBRANCH  13  14
ENDBRANCH  11  13
ENDBRANCH   3   4
ENDBRANCH   2   3
TORSDOF 8
ENDMDL
MODEL       46
REMARK 921   NORMALIZED FREE ENERGY PREDICTED BY IDOCK:   -6.16 KCAL/MOL
REMARK 922        TOTAL FREE ENERGY PREDICTED BY IDOCK:  -11.44 KCAL/MOL
REMARK 923 INTER-LIGAND FREE ENERGY PREDICTED BY IDOCK:  -10.08 KCAL/MOL
REMARK 924 INTRA-LIGAND FREE ENERGY PREDICTED BY IDOCK:   -1.36 KCAL/MOL
REMARK 927      BINDING AFFINITY PREDICTED BY RF-SCORE:    0.00 PKD
ROOT
HETATM    1  C   UNL     1     -10.564   5.080  66.234  1.00  0.00    -0.332 C  
HETATM    2  C   UNL     1     -10.820   6.187  67.232  1.00  0.00    -0.352 C  
ENDROOT
BRANCH   2   3
HETATM    3  O   UNL     1      -9.845   6.102  68.292  1.00  0.00    -0.119 OA 
BRANCH   3   4
HETATM    4  C   UNL     1      -9.586   7.291  68.927  1.00  0.00    -0.143 A  
HETATM    5  C   UNL     1      -8.252   7.670  69.145  1.00  0.00    -0.130 A  
HETATM    6  C   UNL     1      -7.988   8.855  69.857  1.00  0.00    -0.108 A  
HETATM    7  C   UNL     1      -7.055   6.884  68.695  1.00  0.00    -0.085 C  
HETATM    8  C   UNL     1      -9.025   9.648  70.340  1.00  0.00    -0.239 A  
HETATM    9  O   UNL     1      -5.910   7.204  68.986  1.00  0.00    -0.018 OA 
HETATM   10  O   UNL     1      -7.327   5.817  67.924  1.00  0.00    -0.074 OA 
HETATM   11  C   UNL     1     -10.355   9.288  70.103  1.00  0.00    -0.258 A  
HETATM   12  C   UNL     1     -10.622   8.133  69.362  1.00  0.00    -0.206 A  
BRANCH  11  13
HETATM   13  C   UNL     1     -11.494  10.124  70.629  1.00  0.00    -0.432 C  
BRANCH  13  14
HETATM   14  C   UNL     1     -11.852  11.288  69.725  1.00  0.00    -0.364 C  
HETATM   15  O   UNL     1     -12.398  11.085  68.642  1.00  0.00    -0.539 OA 
HETATM   16  N   UNL     1     -11.543  12.547  70.211  1.00  0.00    -0.534 N  
HETATM   17  H   UNL     1     -11.042  12.632  71.095  1.00  0.00     0.000 HD 
BRANCH  16  18
HETATM   18  C   UNL     1     -11.925  13.767  69.477  1.00  0.00    -0.345 C  
BRANCH  18  19
HETATM   19  C   UNL     1     -10.784  14.525  68.775  1.00  0.00    -0.257 A  
HETATM   20  C   UNL     1     -10.463  14.375  67.383  1.00  0.00    -0.261 A  
HETATM   21  C   UNL     1      -9.472  15.260  66.874  1.00  0.00    -0.249 A  
HETATM   22  C   UNL     1     -10.128  15.545  69.523  1.00  0.00    -0.278 A  
HETATM   23  C   UNL     1      -8.853  16.257  67.629  1.00  0.00    -0.195 A  
HETATM   24  C   UNL     1      -9.181  16.400  68.960  1.00  0.00    -0.247 A  
BRANCH  20  25
HETATM   25  N   UNL     1     -11.003  13.453  66.479  1.00  0.00    -0.288 NA 
HETATM   26  C   UNL     1     -12.373  13.635  65.949  1.00  0.00    -0.471 C  
HETATM   27  C   UNL     1     -12.361  13.427  64.430  1.00  0.00    -0.399 C  
HETATM   28  C   UNL     1     -11.843  12.036  64.079  1.00  0.00    -0.500 C  
HETATM   29  C   UNL     1     -10.479  11.811  64.703  1.00  0.00    -0.347 C  
HETATM   30  C   UNL     1     -10.456  12.127  66.193  1.00  0.00    -0.248 C  
ENDBRANCH  20  25
ENDBRANCH  18  19
BRANCH  18  31
HETATM   31  C   UNL     1     -12.705  14.759  70.362  1.00  0.00    -0.368 C  
HETATM   32  C   UNL     1     -13.614  13.070  72.088  1.00  0.00    -0.618 C  
HETATM   33  C   UNL     1     -12.855  14.377  71.849  1.00  0.00    -0.426 C  
HETATM   34  C   UNL     1     -13.607  15.501  72.570  1.00  0.00    -0.646 C  
ENDBRANCH  18  31
ENDBRANCH  16  18
ENDBRANCH  13  14
ENDBRANCH  11  13
ENDBRANCH   3   4
ENDBRANCH   2   3
TORSDOF 8
ENDMDL
MODEL       47
REMARK 921   NORMALIZED FREE ENERGY PREDICTED BY IDOCK:   -6.14 KCAL/MOL
REMARK 922        TOTAL FREE ENERGY PREDICTED BY IDOCK:  -11.41 KCAL/MOL
REMARK 923 INTER-LIGAND FREE ENERGY PREDICTED BY IDOCK:   -9.66 KCAL/MOL
REMARK 924 INTRA-LIGAND FREE ENERGY PREDICTED BY IDOCK:   -1.75 KCAL/MOL
REMARK 927      BINDING AFFINITY PREDICTED BY RF-SCORE:    0.00 PKD
ROOT
HETATM    1  C   UNL     1      -6.594   9.771  70.339  1.00  0.00    -0.114 C  
HETATM    2  C   UNL     1      -8.093   9.614  70.220  1.00  0.00    -0.183 C  
ENDROOT
BRANCH   2   3
HETATM    3  O   UNL     1      -8.555   8.697  71.233  1.00  0.00    -0.154 OA 
BRANCH   3   4
HETATM    4  C   UNL     1      -9.888   8.808  71.541  1.00  0.00    -0.301 A  
HETATM    5  C   UNL     1     -10.426   7.987  72.544  1.00  0.00    -0.383 A  
HETATM    6  C   UNL     1     -11.806   8.052  72.812  1.00  0.00    -0.303 A  
HETATM    7  C   UNL     1      -9.638   6.999  73.354  1.00  0.00    -0.191 C  
HETATM    8  C   UNL     1     -12.635   8.918  72.103  1.00  0.00    -0.467 A  
HETATM    9  O   UNL     1     -10.164   6.236  74.155  1.00  0.00    -0.274 OA 
HETATM   10  O   UNL     1      -8.309   7.030  73.160  1.00  0.00    -0.111 OA 
HETATM   11  C   UNL     1     -12.099   9.758  71.122  1.00  0.00    -0.460 A  
HETATM   12  C   UNL     1     -10.723   9.723  70.879  1.00  0.00    -0.375 A  
BRANCH  11  13
HETATM   13  C   UNL     1     -12.978  10.692  70.331  1.00  0.00    -0.210 C  
BRANCH  13  14
HETATM   14  C   UNL     1     -12.266  11.956  69.888  1.00  0.00    -0.199 C  
HETATM   15  O   UNL     1     -12.091  12.878  70.682  1.00  0.00    -0.349 OA 
HETATM   16  N   UNL     1     -11.829  11.974  68.574  1.00  0.00    -0.330 N  
HETATM   17  H   UNL     1     -12.058  11.192  67.960  1.00  0.00     0.000 HD 
BRANCH  16  18
HETATM   18  C   UNL     1     -11.038  13.100  68.044  1.00  0.00    -0.263 C  
BRANCH  18  19
HETATM   19  C   UNL     1     -11.459  13.638  66.666  1.00  0.00    -0.365 A  
HETATM   20  C   UNL     1     -11.052  14.914  66.147  1.00  0.00    -0.335 A  
HETATM   21  C   UNL     1     -11.419  15.185  64.799  1.00  0.00    -0.383 A  
HETATM   22  C   UNL     1     -12.156  12.741  65.805  1.00  0.00    -0.505 A  
HETATM   23  C   UNL     1     -12.093  14.281  63.976  1.00  0.00    -0.350 A  
HETATM   24  C   UNL     1     -12.466  13.054  64.482  1.00  0.00    -0.427 A  
BRANCH  20  25
HETATM   25  N   UNL     1     -10.350  15.921  66.819  1.00  0.00    -0.293 NA 
HETATM   26  C   UNL     1      -8.891  16.080  66.623  1.00  0.00    -0.272 C  
HETATM   27  C   UNL     1      -8.569  17.559  66.387  1.00  0.00    -0.273 C  
HETATM   28  C   UNL     1      -9.034  18.409  67.564  1.00  0.00    -0.271 C  
HETATM   29  C   UNL     1     -10.509  18.174  67.829  1.00  0.00    -0.421 C  
HETATM   30  C   UNL     1     -10.857  16.696  67.951  1.00  0.00    -0.321 C  
ENDBRANCH  20  25
ENDBRANCH  18  19
BRANCH  18  31
HETATM   31  C   UNL     1      -9.529  12.787  68.013  1.00  0.00    -0.213 C  
HETATM   32  C   UNL     1      -9.665  10.440  66.952  1.00  0.00    -0.223 C  
HETATM   33  C   UNL     1      -9.050  11.840  66.894  1.00  0.00    -0.192 C  
HETATM   34  C   UNL     1      -7.527  11.694  66.995  1.00  0.00    -0.150 C  
ENDBRANCH  18  31
ENDBRANCH  16  18
ENDBRANCH  13  14
ENDBRANCH  11  13
ENDBRANCH   3   4
ENDBRANCH   2   3
TORSDOF 8
ENDMDL
MODEL       48
REMARK 921   NORMALIZED FREE ENERGY PREDICTED BY IDOCK:   -6.12 KCAL/MOL
REMARK 922        TOTAL FREE ENERGY PREDICTED BY IDOCK:  -11.38 KCAL/MOL
REMARK 923 INTER-LIGAND FREE ENERGY PREDICTED BY IDOCK:   -9.80 KCAL/MOL
REMARK 924 INTRA-LIGAND FREE ENERGY PREDICTED BY IDOCK:   -1.59 KCAL/MOL
REMARK 927      BINDING AFFINITY PREDICTED BY RF-SCORE:    0.00 PKD
ROOT
HETATM    1  C   UNL     1      -9.548   6.163  68.522  1.00  0.00    -0.127 C  
HETATM    2  C   UNL     1      -9.368   7.088  69.704  1.00  0.00    -0.149 C  
ENDROOT
BRANCH   2   3
HETATM    3  O   UNL     1     -10.656   7.357  70.294  1.00  0.00    -0.220 OA 
BRANCH   3   4
HETATM    4  C   UNL     1     -11.043   8.674  70.248  1.00  0.00    -0.217 A  
HETATM    5  C   UNL     1     -11.966   9.146  71.194  1.00  0.00    -0.374 A  
HETATM    6  C   UNL     1     -12.414  10.477  71.104  1.00  0.00    -0.517 A  
HETATM    7  C   UNL     1     -12.550   8.322  72.303  1.00  0.00    -0.311 C  
HETATM    8  C   UNL     1     -11.953  11.323  70.098  1.00  0.00    -0.452 A  
HETATM    9  O   UNL     1     -13.423   8.747  73.050  1.00  0.00    -0.270 OA 
HETATM   10  O   UNL     1     -12.030   7.091  72.438  1.00  0.00    -0.239 OA 
HETATM   11  C   UNL     1     -11.013  10.865  69.170  1.00  0.00    -0.290 A  
HETATM   12  C   UNL     1     -10.536   9.556  69.279  1.00  0.00    -0.236 A  
BRANCH  11  13
HETATM   13  C   UNL     1     -10.511  11.758  68.064  1.00  0.00    -0.221 C  
BRANCH  13  14
HETATM   14  C   UNL     1     -10.438  13.220  68.460  1.00  0.00    -0.250 C  
HETATM   15  O   UNL     1      -9.359  13.724  68.769  1.00  0.00    -0.129 OA 
HETATM   16  N   UNL     1     -11.634  13.916  68.426  1.00  0.00    -0.311 N  
HETATM   17  H   UNL     1     -12.497  13.416  68.211  1.00  0.00     0.000 HD 
BRANCH  16  18
HETATM   18  C   UNL     1     -11.687  15.364  68.693  1.00  0.00    -0.354 C  
BRANCH  18  19
HETATM   19  C   UNL     1     -10.751  16.247  67.849  1.00  0.00    -0.329 A  
HETATM   20  C   UNL     1     -10.567  16.094  66.433  1.00  0.00    -0.269 A  
HETATM   21  C   UNL     1      -9.775  17.088  65.796  1.00  0.00    -0.081 A  
HETATM   22  C   UNL     1     -10.168  17.376  68.496  1.00  0.00    -0.369 A  
HETATM   23  C   UNL     1      -9.226  18.189  66.454  1.00  0.00    -0.267 A  
HETATM   24  C   UNL     1      -9.421  18.333  67.810  1.00  0.00    -0.281 A  
BRANCH  20  25
HETATM   25  N   UNL     1     -11.068  15.073  65.617  1.00  0.00    -0.344 NA 
HETATM   26  C   UNL     1     -10.162  14.310  64.728  1.00  0.00    -0.250 C  
HETATM   27  C   UNL     1     -10.455  12.812  64.872  1.00  0.00    -0.342 C  
HETATM   28  C   UNL     1     -11.908  12.509  64.524  1.00  0.00    -0.448 C  
HETATM   29  C   UNL     1     -12.838  13.362  65.366  1.00  0.00    -0.388 C  
HETATM   30  C   UNL     1     -12.481  14.842  65.319  1.00  0.00    -0.076 C  
ENDBRANCH  20  25
ENDBRANCH  18  19
BRANCH  18  31
HETATM   31  C   UNL     1     -11.463  15.690  70.183  1.00  0.00    -0.358 C  
HETATM   32  C   UNL     1     -13.779  14.974  71.065  1.00  0.00    -0.417 C  
HETATM   33  C   UNL     1     -12.260  14.843  71.196  1.00  0.00    -0.380 C  
HETATM   34  C   UNL     1     -11.867  15.275  72.613  1.00  0.00    -0.533 C  
ENDBRANCH  18  31
ENDBRANCH  16  18
ENDBRANCH  13  14
ENDBRANCH  11  13
ENDBRANCH   3   4
ENDBRANCH   2   3
TORSDOF 8
ENDMDL
MODEL       49
REMARK 921   NORMALIZED FREE ENERGY PREDICTED BY IDOCK:   -6.12 KCAL/MOL
REMARK 922        TOTAL FREE ENERGY PREDICTED BY IDOCK:  -11.38 KCAL/MOL
REMARK 923 INTER-LIGAND FREE ENERGY PREDICTED BY IDOCK:   -8.73 KCAL/MOL
REMARK 924 INTRA-LIGAND FREE ENERGY PREDICTED BY IDOCK:   -2.65 KCAL/MOL
REMARK 927      BINDING AFFINITY PREDICTED BY RF-SCORE:    0.00 PKD
ROOT
HETATM    1  C   UNL     1     -13.149  15.414  70.953  1.00  0.00    -0.528 C  
HETATM    2  C   UNL     1     -11.768  15.530  70.347  1.00  0.00    -0.339 C  
ENDROOT
BRANCH   2   3
HETATM    3  O   UNL     1     -11.891  15.879  68.953  1.00  0.00    -0.397 OA 
BRANCH   3   4
HETATM    4  C   UNL     1     -11.333  14.973  68.085  1.00  0.00    -0.330 A  
HETATM    5  C   UNL     1     -10.454  15.434  67.093  1.00  0.00    -0.290 A  
HETATM    6  C   UNL     1      -9.935  14.516  66.161  1.00  0.00    -0.330 A  
HETATM    7  C   UNL     1     -10.031  16.864  66.922  1.00  0.00    -0.279 C  
HETATM    8  C   UNL     1     -10.280  13.168  66.214  1.00  0.00    -0.294 A  
HETATM    9  O   UNL     1      -9.335  17.238  65.986  1.00  0.00    -0.469 OA 
HETATM   10  O   UNL     1     -10.449  17.704  67.884  1.00  0.00    -0.362 OA 
HETATM   11  C   UNL     1     -11.134  12.699  67.217  1.00  0.00    -0.320 A  
HETATM   12  C   UNL     1     -11.620  13.601  68.168  1.00  0.00    -0.367 A  
BRANCH  11  13
HETATM   13  C   UNL     1     -11.533  11.247  67.286  1.00  0.00    -0.265 C  
BRANCH  13  14
HETATM   14  C   UNL     1     -10.723  10.450  68.290  1.00  0.00    -0.235 C  
HETATM   15  O   UNL     1     -10.001  11.028  69.101  1.00  0.00    -0.195 OA 
HETATM   16  N   UNL     1     -10.876   9.075  68.234  1.00  0.00    -0.454 N  
HETATM   17  H   UNL     1     -11.453   8.666  67.499  1.00  0.00     0.000 HD 
BRANCH  16  18
HETATM   18  C   UNL     1     -10.223   8.190  69.216  1.00  0.00    -0.214 C  
BRANCH  18  19
HETATM   19  C   UNL     1      -9.646   6.873  68.667  1.00  0.00    -0.133 A  
HETATM   20  C   UNL     1      -8.650   6.805  67.635  1.00  0.00    -0.121 A  
HETATM   21  C   UNL     1      -8.130   5.511  67.355  1.00  0.00    -0.101 A  
HETATM   22  C   UNL     1     -10.011   5.674  69.345  1.00  0.00    -0.261 A  
HETATM   23  C   UNL     1      -8.500   4.354  68.043  1.00  0.00    -0.100 A  
HETATM   24  C   UNL     1      -9.447   4.435  69.041  1.00  0.00    -0.237 A  
BRANCH  20  25
HETATM   25  N   UNL     1      -8.145   7.862  66.869  1.00  0.00    -0.114 NA 
HETATM   26  C   UNL     1      -8.577   8.046  65.465  1.00  0.00    -0.135 C  
HETATM   27  C   UNL     1      -8.929   9.519  65.232  1.00  0.00    -0.244 C  
HETATM   28  C   UNL     1      -7.734  10.416  65.533  1.00  0.00    -0.147 C  
HETATM   29  C   UNL     1      -7.228  10.159  66.940  1.00  0.00    -0.092 C  
HETATM   30  C   UNL     1      -6.984   8.681  67.216  1.00  0.00    -0.075 C  
ENDBRANCH  20  25
ENDBRANCH  18  19
BRANCH  18  31
HETATM   31  C   UNL     1     -11.142   7.867  70.410  1.00  0.00    -0.249 C  
HETATM   32  C   UNL     1      -9.467   8.372  72.306  1.00  0.00    -0.367 C  
HETATM   33  C   UNL     1     -10.856   8.630  71.720  1.00  0.00    -0.395 C  
HETATM   34  C   UNL     1     -11.897   8.216  72.765  1.00  0.00    -0.296 C  
ENDBRANCH  18  31
ENDBRANCH  16  18
ENDBRANCH  13  14
ENDBRANCH  11  13
ENDBRANCH   3   4
ENDBRANCH   2   3
TORSDOF 8
ENDMDL
MODEL       50
REMARK 921   NORMALIZED FREE ENERGY PREDICTED BY IDOCK:   -6.12 KCAL/MOL
REMARK 922        TOTAL FREE ENERGY PREDICTED BY IDOCK:  -11.37 KCAL/MOL
REMARK 923 INTER-LIGAND FREE ENERGY PREDICTED BY IDOCK:   -9.73 KCAL/MOL
REMARK 924 INTRA-LIGAND FREE ENERGY PREDICTED BY IDOCK:   -1.65 KCAL/MOL
REMARK 927      BINDING AFFINITY PREDICTED BY RF-SCORE:    0.00 PKD
ROOT
HETATM    1  C   UNL     1     -12.930  16.071  73.429  1.00  0.00    -0.676 C  
HETATM    2  C   UNL     1     -13.646  15.001  72.636  1.00  0.00    -0.463 C  
ENDROOT
BRANCH   2   3
HETATM    3  O   UNL     1     -13.053  14.908  71.325  1.00  0.00    -0.332 OA 
BRANCH   3   4
HETATM    4  C   UNL     1     -12.775  13.629  70.912  1.00  0.00    -0.310 A  
HETATM    5  C   UNL     1     -12.192  13.433  69.650  1.00  0.00    -0.279 A  
HETATM    6  C   UNL     1     -11.970  12.119  69.198  1.00  0.00    -0.311 A  
HETATM    7  C   UNL     1     -11.803  14.534  68.707  1.00  0.00    -0.315 C  
HETATM    8  C   UNL     1     -12.316  11.022  69.984  1.00  0.00    -0.377 A  
HETATM    9  O   UNL     1     -11.383  14.316  67.577  1.00  0.00    -0.297 OA 
HETATM   10  O   UNL     1     -11.921  15.778  69.200  1.00  0.00    -0.387 OA 
HETATM   11  C   UNL     1     -12.871  11.213  71.253  1.00  0.00    -0.515 A  
HETATM   12  C   UNL     1     -13.058  12.517  71.721  1.00  0.00    -0.450 A  
BRANCH  11  13
HETATM   13  C   UNL     1     -13.267  10.041  72.114  1.00  0.00    -0.489 C  
BRANCH  13  14
HETATM   14  C   UNL     1     -12.530   8.763  71.764  1.00  0.00    -0.350 C  
HETATM   15  O   UNL     1     -13.155   7.721  71.573  1.00  0.00    -0.332 OA 
HETATM   16  N   UNL     1     -11.153   8.868  71.661  1.00  0.00    -0.324 N  
HETATM   17  H   UNL     1     -10.701   9.755  71.886  1.00  0.00     0.000 HD 
BRANCH  16  18
HETATM   18  C   UNL     1     -10.326   7.725  71.232  1.00  0.00    -0.198 C  
BRANCH  18  19
HETATM   19  C   UNL     1      -8.895   7.671  71.793  1.00  0.00    -0.139 A  
HETATM   20  C   UNL     1      -8.372   6.567  72.548  1.00  0.00    -0.114 A  
HETATM   21  C   UNL     1      -6.986   6.627  72.863  1.00  0.00    -0.076 A  
HETATM   22  C   UNL     1      -8.003   8.709  71.394  1.00  0.00    -0.174 A  
HETATM   23  C   UNL     1      -6.135   7.652  72.449  1.00  0.00    -0.040 A  
HETATM   24  C   UNL     1      -6.645   8.700  71.713  1.00  0.00    -0.076 A  
BRANCH  20  25
HETATM   25  N   UNL     1      -9.073   5.450  73.017  1.00  0.00    -0.128 NA 
HETATM   26  C   UNL     1     -10.265   5.617  73.879  1.00  0.00    -0.245 C  
HETATM   27  C   UNL     1     -11.393   4.715  73.365  1.00  0.00    -0.394 C  
HETATM   28  C   UNL     1     -10.955   3.255  73.355  1.00  0.00    -0.301 C  
HETATM   29  C   UNL     1      -9.678   3.095  72.552  1.00  0.00    -0.206 C  
HETATM   30  C   UNL     1      -8.589   4.070  72.981  1.00  0.00    -0.099 C  
ENDBRANCH  20  25
ENDBRANCH  18  19
BRANCH  18  31
HETATM   31  C   UNL     1     -10.260   7.599  69.697  1.00  0.00    -0.204 C  
HETATM   32  C   UNL     1     -10.277   5.023  69.543  1.00  0.00    -0.286 C  
HETATM   33  C   UNL     1     -10.909   6.340  69.086  1.00  0.00    -0.403 C  
HETATM   34  C   UNL     1     -10.790   6.418  67.560  1.00  0.00    -0.438 C  
ENDBRANCH  18  31
ENDBRANCH  16  18
ENDBRANCH  13  14
ENDBRANCH  11  13
ENDBRANCH   3   4
ENDBRANCH   2   3
TORSDOF 8
ENDMDL
MODEL       51
REMARK 921   NORMALIZED FREE ENERGY PREDICTED BY IDOCK:   -6.12 KCAL/MOL
REMARK 922        TOTAL FREE ENERGY PREDICTED BY IDOCK:  -11.37 KCAL/MOL
REMARK 923 INTER-LIGAND FREE ENERGY PREDICTED BY IDOCK:   -9.44 KCAL/MOL
REMARK 924 INTRA-LIGAND FREE ENERGY PREDICTED BY IDOCK:   -1.94 KCAL/MOL
REMARK 927      BINDING AFFINITY PREDICTED BY RF-SCORE:    0.00 PKD
ROOT
HETATM    1  C   UNL     1     -13.060  14.991  70.836  1.00  0.00    -0.462 C  
HETATM    2  C   UNL     1     -12.039  14.722  69.754  1.00  0.00    -0.319 C  
ENDROOT
BRANCH   2   3
HETATM    3  O   UNL     1     -11.799  15.938  69.017  1.00  0.00    -0.389 OA 
BRANCH   3   4
HETATM    4  C   UNL     1     -11.373  15.750  67.726  1.00  0.00    -0.240 A  
HETATM    5  C   UNL     1     -10.499  16.688  67.154  1.00  0.00    -0.300 A  
HETATM    6  C   UNL     1     -10.115  16.532  65.809  1.00  0.00    -0.328 A  
HETATM    7  C   UNL     1      -9.947  17.888  67.867  1.00  0.00    -0.329 C  
HETATM    8  C   UNL     1     -10.587  15.466  65.047  1.00  0.00    -0.445 A  
HETATM    9  O   UNL     1      -9.261  18.732  67.303  1.00  0.00    -0.282 OA 
HETATM   10  O   UNL     1     -10.236  17.959  69.177  1.00  0.00    -0.354 OA 
HETATM   11  C   UNL     1     -11.436  14.514  65.620  1.00  0.00    -0.341 A  
HETATM   12  C   UNL     1     -11.788  14.644  66.967  1.00  0.00    -0.358 A  
BRANCH  11  13
HETATM   13  C   UNL     1     -11.971  13.360  64.812  1.00  0.00    -0.429 C  
BRANCH  13  14
HETATM   14  C   UNL     1     -11.394  12.020  65.224  1.00  0.00    -0.312 C  
HETATM   15  O   UNL     1     -11.018  11.219  64.370  1.00  0.00    -0.332 OA 
HETATM   16  N   UNL     1     -11.310  11.792  66.588  1.00  0.00    -0.334 N  
HETATM   17  H   UNL     1     -11.691  12.483  67.234  1.00  0.00     0.000 HD 
BRANCH  16  18
HETATM   18  C   UNL     1     -10.679  10.572  67.124  1.00  0.00    -0.265 C  
BRANCH  18  19
HETATM   19  C   UNL     1     -11.106  10.152  68.541  1.00  0.00    -0.266 A  
HETATM   20  C   UNL     1     -10.660   8.949  69.188  1.00  0.00    -0.195 A  
HETATM   21  C   UNL     1     -11.042   8.795  70.549  1.00  0.00    -0.278 A  
HETATM   22  C   UNL     1     -11.855  11.098  69.299  1.00  0.00    -0.422 A  
HETATM   23  C   UNL     1     -11.768   9.745  71.269  1.00  0.00    -0.472 A  
HETATM   24  C   UNL     1     -12.179  10.901  70.642  1.00  0.00    -0.472 A  
BRANCH  20  25
HETATM   25  N   UNL     1      -9.905   7.912  68.628  1.00  0.00    -0.166 NA 
HETATM   26  C   UNL     1     -10.549   6.896  67.765  1.00  0.00    -0.244 C  
HETATM   27  C   UNL     1      -9.701   6.692  66.504  1.00  0.00    -0.176 C  
HETATM   28  C   UNL     1      -8.288   6.251  66.867  1.00  0.00    -0.109 C  
HETATM   29  C   UNL     1      -7.661   7.241  67.830  1.00  0.00    -0.111 C  
HETATM   30  C   UNL     1      -8.550   7.538  69.030  1.00  0.00    -0.136 C  
ENDBRANCH  20  25
ENDBRANCH  18  19
BRANCH  18  31
HETATM   31  C   UNL     1      -9.140  10.641  67.071  1.00  0.00    -0.155 C  
HETATM   32  C   UNL     1      -8.842  12.959  68.163  1.00  0.00    -0.194 C  
HETATM   33  C   UNL     1      -8.455  11.479  68.170  1.00  0.00    -0.154 C  
HETATM   34  C   UNL     1      -6.937  11.384  67.984  1.00  0.00    -0.069 C  
ENDBRANCH  18  31
ENDBRANCH  16  18
ENDBRANCH  13  14
ENDBRANCH  11  13
ENDBRANCH   3   4
ENDBRANCH   2   3
TORSDOF 8
ENDMDL
MODEL       52
REMARK 921   NORMALIZED FREE ENERGY PREDICTED BY IDOCK:   -6.11 KCAL/MOL
REMARK 922        TOTAL FREE ENERGY PREDICTED BY IDOCK:  -11.36 KCAL/MOL
REMARK 923 INTER-LIGAND FREE ENERGY PREDICTED BY IDOCK:   -8.93 KCAL/MOL
REMARK 924 INTRA-LIGAND FREE ENERGY PREDICTED BY IDOCK:   -2.44 KCAL/MOL
REMARK 927      BINDING AFFINITY PREDICTED BY RF-SCORE:    0.00 PKD
ROOT
HETATM    1  C   UNL     1     -11.886  13.680  69.371  1.00  0.00    -0.392 C  
HETATM    2  C   UNL     1     -11.452  12.413  68.670  1.00  0.00    -0.303 C  
ENDROOT
BRANCH   2   3
HETATM    3  O   UNL     1     -12.110  12.332  67.389  1.00  0.00    -0.533 OA 
BRANCH   3   4
HETATM    4  C   UNL     1     -11.380  11.705  66.410  1.00  0.00    -0.245 A  
HETATM    5  C   UNL     1     -11.507  12.143  65.082  1.00  0.00    -0.376 A  
HETATM    6  C   UNL     1     -10.811  11.457  64.069  1.00  0.00    -0.450 A  
HETATM    7  C   UNL     1     -12.365  13.291  64.638  1.00  0.00    -0.391 C  
HETATM    8  C   UNL     1     -10.004  10.361  64.367  1.00  0.00    -0.388 A  
HETATM    9  O   UNL     1     -12.518  13.581  63.458  1.00  0.00    -0.745 OA 
HETATM   10  O   UNL     1     -12.932  13.999  65.629  1.00  0.00    -0.608 OA 
HETATM   11  C   UNL     1      -9.854   9.939  65.692  1.00  0.00    -0.368 A  
HETATM   12  C   UNL     1     -10.512  10.642  66.705  1.00  0.00    -0.296 A  
BRANCH  11  13
HETATM   13  C   UNL     1      -8.998   8.748  66.037  1.00  0.00    -0.235 C  
BRANCH  13  14
HETATM   14  C   UNL     1      -9.698   7.745  66.933  1.00  0.00    -0.216 C  
HETATM   15  O   UNL     1     -10.781   7.266  66.598  1.00  0.00    -0.243 OA 
HETATM   16  N   UNL     1      -9.034   7.412  68.102  1.00  0.00    -0.130 N  
HETATM   17  H   UNL     1      -8.165   7.892  68.337  1.00  0.00     0.000 HD 
BRANCH  16  18
HETATM   18  C   UNL     1      -9.558   6.379  69.014  1.00  0.00    -0.131 C  
BRANCH  18  19
HETATM   19  C   UNL     1     -10.081   6.872  70.374  1.00  0.00    -0.201 A  
HETATM   20  C   UNL     1      -9.520   7.983  71.092  1.00  0.00    -0.153 A  
HETATM   21  C   UNL     1     -10.220   8.387  72.262  1.00  0.00    -0.396 A  
HETATM   22  C   UNL     1     -11.287   6.287  70.855  1.00  0.00    -0.389 A  
HETATM   23  C   UNL     1     -11.408   7.801  72.703  1.00  0.00    -0.449 A  
HETATM   24  C   UNL     1     -11.943   6.744  71.999  1.00  0.00    -0.355 A  
BRANCH  20  25
HETATM   25  N   UNL     1      -8.361   8.702  70.776  1.00  0.00    -0.136 NA 
HETATM   26  C   UNL     1      -7.067   8.355  71.406  1.00  0.00    -0.074 C  
HETATM   27  C   UNL     1      -5.979   8.294  70.329  1.00  0.00    -0.028 C  
HETATM   28  C   UNL     1      -5.865   9.628  69.599  1.00  0.00    -0.033 C  
HETATM   29  C   UNL     1      -7.213  10.034  69.036  1.00  0.00    -0.076 C  
HETATM   30  C   UNL     1      -8.324   9.985  70.076  1.00  0.00    -0.111 C  
ENDBRANCH  20  25
ENDBRANCH  18  19
BRANCH  18  31
HETATM   31  C   UNL     1      -8.540   5.247  69.256  1.00  0.00    -0.102 C  
HETATM   32  C   UNL     1      -9.473   3.547  67.554  1.00  0.00    -0.233 C  
HETATM   33  C   UNL     1      -8.252   4.318  68.059  1.00  0.00    -0.093 C  
HETATM   34  C   UNL     1      -7.186   3.299  68.475  1.00  0.00    -0.050 C  
ENDBRANCH  18  31
ENDBRANCH  16  18
ENDBRANCH  13  14
ENDBRANCH  11  13
ENDBRANCH   3   4
ENDBRANCH   2   3
TORSDOF 8
ENDMDL
MODEL       53
REMARK 921   NORMALIZED FREE ENERGY PREDICTED BY IDOCK:   -6.11 KCAL/MOL
REMARK 922        TOTAL FREE ENERGY PREDICTED BY IDOCK:  -11.36 KCAL/MOL
REMARK 923 INTER-LIGAND FREE ENERGY PREDICTED BY IDOCK:   -9.35 KCAL/MOL
REMARK 924 INTRA-LIGAND FREE ENERGY PREDICTED BY IDOCK:   -2.01 KCAL/MOL
REMARK 927      BINDING AFFINITY PREDICTED BY RF-SCORE:    0.00 PKD
ROOT
HETATM    1  C   UNL     1     -10.085   5.586  69.725  1.00  0.00    -0.302 C  
HETATM    2  C   UNL     1      -9.472   6.959  69.885  1.00  0.00    -0.156 C  
ENDROOT
BRANCH   2   3
HETATM    3  O   UNL     1     -10.328   7.764  70.722  1.00  0.00    -0.202 OA 
BRANCH   3   4
HETATM    4  C   UNL     1     -10.557   9.034  70.252  1.00  0.00    -0.217 A  
HETATM    5  C   UNL     1     -11.694   9.728  70.694  1.00  0.00    -0.377 A  
HETATM    6  C   UNL     1     -11.965  11.001  70.162  1.00  0.00    -0.443 A  
HETATM    7  C   UNL     1     -12.684   9.200  71.691  1.00  0.00    -0.358 C  
HETATM    8  C   UNL     1     -11.124  11.576  69.212  1.00  0.00    -0.305 A  
HETATM    9  O   UNL     1     -13.712   9.800  71.979  1.00  0.00    -0.358 OA 
HETATM   10  O   UNL     1     -12.350   8.034  72.268  1.00  0.00    -0.320 OA 
HETATM   11  C   UNL     1      -9.975  10.900  68.789  1.00  0.00    -0.203 A  
HETATM   12  C   UNL     1      -9.682   9.652  69.345  1.00  0.00    -0.203 A  
BRANCH  11  13
HETATM   13  C   UNL     1      -9.058  11.496  67.752  1.00  0.00    -0.165 C  
BRANCH  13  14
HETATM   14  C   UNL     1      -9.157  13.006  67.660  1.00  0.00    -0.198 C  
HETATM   15  O   UNL     1      -9.602  13.536  66.643  1.00  0.00    -0.264 OA 
HETATM   16  N   UNL     1      -8.743  13.709  68.779  1.00  0.00    -0.370 N  
HETATM   17  H   UNL     1      -8.336  13.202  69.564  1.00  0.00     0.000 HD 
BRANCH  16  18
HETATM   18  C   UNL     1      -8.877  15.175  68.858  1.00  0.00    -0.205 C  
BRANCH  18  19
HETATM   19  C   UNL     1      -7.592  15.961  69.168  1.00  0.00    -0.213 A  
HETATM   20  C   UNL     1      -7.420  17.359  68.885  1.00  0.00    -0.235 A  
HETATM   21  C   UNL     1      -6.221  17.951  69.370  1.00  0.00    -0.248 A  
HETATM   22  C   UNL     1      -6.589  15.289  69.925  1.00  0.00    -0.159 A  
HETATM   23  C   UNL     1      -5.261  17.269  70.119  1.00  0.00    -0.216 A  
HETATM   24  C   UNL     1      -5.444  15.932  70.396  1.00  0.00    -0.158 A  
BRANCH  20  25
HETATM   25  N   UNL     1      -8.290  18.196  68.177  1.00  0.00    -0.269 NA 
HETATM   26  C   UNL     1      -8.411  18.083  66.706  1.00  0.00    -0.257 C  
HETATM   27  C   UNL     1      -9.894  18.075  66.318  1.00  0.00    -0.310 C  
HETATM   28  C   UNL     1     -10.588  19.343  66.805  1.00  0.00    -0.574 C  
HETATM   29  C   UNL     1     -10.382  19.512  68.298  1.00  0.00    -0.524 C  
HETATM   30  C   UNL     1      -8.919  19.406  68.706  1.00  0.00    -0.349 C  
ENDBRANCH  20  25
ENDBRANCH  18  19
BRANCH  18  31
HETATM   31  C   UNL     1      -9.973  15.606  69.853  1.00  0.00    -0.235 C  
HETATM   32  C   UNL     1     -12.024  15.158  68.353  1.00  0.00    -0.216 C  
HETATM   33  C   UNL     1     -11.344  14.915  69.702  1.00  0.00    -0.311 C  
HETATM   34  C   UNL     1     -12.276  15.432  70.803  1.00  0.00    -0.430 C  
ENDBRANCH  18  31
ENDBRANCH  16  18
ENDBRANCH  13  14
ENDBRANCH  11  13
ENDBRANCH   3   4
ENDBRANCH   2   3
TORSDOF 8
ENDMDL
MODEL       54
REMARK 921   NORMALIZED FREE ENERGY PREDICTED BY IDOCK:   -6.09 KCAL/MOL
REMARK 922        TOTAL FREE ENERGY PREDICTED BY IDOCK:  -11.34 KCAL/MOL
REMARK 923 INTER-LIGAND FREE ENERGY PREDICTED BY IDOCK:   -8.68 KCAL/MOL
REMARK 924 INTRA-LIGAND FREE ENERGY PREDICTED BY IDOCK:   -2.65 KCAL/MOL
REMARK 927      BINDING AFFINITY PREDICTED BY RF-SCORE:    0.00 PKD
ROOT
HETATM    1  C   UNL     1      -8.165  19.439  67.540  1.00  0.00    -0.321 C  
HETATM    2  C   UNL     1      -8.393  18.189  68.360  1.00  0.00    -0.299 C  
ENDROOT
BRANCH   2   3
HETATM    3  O   UNL     1      -9.572  17.514  67.876  1.00  0.00    -0.265 OA 
BRANCH   3   4
HETATM    4  C   UNL     1      -9.336  16.290  67.302  1.00  0.00    -0.224 A  
HETATM    5  C   UNL     1      -9.883  16.012  66.040  1.00  0.00    -0.365 A  
HETATM    6  C   UNL     1      -9.698  14.733  65.482  1.00  0.00    -0.261 A  
HETATM    7  C   UNL     1     -10.692  16.980  65.227  1.00  0.00    -0.096 C  
HETATM    8  C   UNL     1      -8.983  13.751  66.162  1.00  0.00     0.223 A  
HETATM    9  O   UNL     1     -11.229  16.666  64.172  1.00  0.00    -1.103 OA 
HETATM   10  O   UNL     1     -10.764  18.226  65.725  1.00  0.00    -0.468 OA 
HETATM   11  C   UNL     1      -8.412  14.031  67.408  1.00  0.00    -0.209 A  
HETATM   12  C   UNL     1      -8.561  15.312  67.947  1.00  0.00    -0.153 A  
BRANCH  11  13
HETATM   13  C   UNL     1      -7.646  12.979  68.169  1.00  0.00    -0.136 C  
BRANCH  13  14
HETATM   14  C   UNL     1      -8.302  11.613  68.129  1.00  0.00    -0.154 C  
HETATM   15  O   UNL     1      -8.337  10.973  67.079  1.00  0.00    -0.129 OA 
HETATM   16  N   UNL     1      -8.819  11.156  69.329  1.00  0.00    -0.379 N  
HETATM   17  H   UNL     1      -8.800  11.766  70.146  1.00  0.00     0.000 HD 
BRANCH  16  18
HETATM   18  C   UNL     1      -9.396   9.805  69.451  1.00  0.00    -0.202 C  
BRANCH  18  19
HETATM   19  C   UNL     1     -10.464   9.616  70.543  1.00  0.00    -0.367 A  
HETATM   20  C   UNL     1     -11.672  10.389  70.623  1.00  0.00    -0.351 A  
HETATM   21  C   UNL     1     -12.609   9.981  71.612  1.00  0.00    -0.524 A  
HETATM   22  C   UNL     1     -10.307   8.500  71.416  1.00  0.00    -0.307 A  
HETATM   23  C   UNL     1     -12.432   8.876  72.447  1.00  0.00    -0.405 A  
HETATM   24  C   UNL     1     -11.275   8.133  72.350  1.00  0.00    -0.452 A  
BRANCH  20  25
HETATM   25  N   UNL     1     -12.022  11.502  69.850  1.00  0.00    -0.336 NA 
HETATM   26  C   UNL     1     -12.384  12.783  70.498  1.00  0.00    -0.275 C  
HETATM   27  C   UNL     1     -11.645  13.930  69.800  1.00  0.00    -0.335 C  
HETATM   28  C   UNL     1     -11.996  13.976  68.317  1.00  0.00    -0.384 C  
HETATM   29  C   UNL     1     -11.717  12.632  67.670  1.00  0.00    -0.420 C  
HETATM   30  C   UNL     1     -12.353  11.473  68.426  1.00  0.00     0.466 C  
ENDBRANCH  20  25
ENDBRANCH  18  19
BRANCH  18  31
HETATM   31  C   UNL     1      -8.313   8.723  69.627  1.00  0.00    -0.126 C  
HETATM   32  C   UNL     1      -9.405   6.876  68.194  1.00  0.00    -0.124 C  
HETATM   33  C   UNL     1      -8.156   7.716  68.469  1.00  0.00    -0.124 C  
HETATM   34  C   UNL     1      -7.005   6.761  68.802  1.00  0.00    -0.079 C  
ENDBRANCH  18  31
ENDBRANCH  16  18
ENDBRANCH  13  14
ENDBRANCH  11  13
ENDBRANCH   3   4
ENDBRANCH   2   3
TORSDOF 8
ENDMDL
MODEL       55
REMARK 921   NORMALIZED FREE ENERGY PREDICTED BY IDOCK:   -6.09 KCAL/MOL
REMARK 922        TOTAL FREE ENERGY PREDICTED BY IDOCK:  -11.33 KCAL/MOL
REMARK 923 INTER-LIGAND FREE ENERGY PREDICTED BY IDOCK:   -8.89 KCAL/MOL
REMARK 924 INTRA-LIGAND FREE ENERGY PREDICTED BY IDOCK:   -2.45 KCAL/MOL
REMARK 927      BINDING AFFINITY PREDICTED BY RF-SCORE:    0.00 PKD
ROOT
HETATM    1  C   UNL     1     -10.420   5.657  66.903  1.00  0.00    -0.349 C  
HETATM    2  C   UNL     1     -11.102   6.466  67.983  1.00  0.00    -0.267 C  
ENDROOT
BRANCH   2   3
HETATM    3  O   UNL     1     -11.007   5.758  69.236  1.00  0.00    -0.330 OA 
BRANCH   3   4
HETATM    4  C   UNL     1     -10.983   6.562  70.347  1.00  0.00    -0.298 A  
HETATM    5  C   UNL     1     -10.545   6.024  71.568  1.00  0.00    -0.295 A  
HETATM    6  C   UNL     1     -10.586   6.829  72.721  1.00  0.00    -0.264 A  
HETATM    7  C   UNL     1     -10.052   4.620  71.755  1.00  0.00    -0.191 C  
HETATM    8  C   UNL     1     -11.049   8.142  72.665  1.00  0.00    -0.450 A  
HETATM    9  O   UNL     1      -9.767   4.163  72.855  1.00  0.00    -0.126 OA 
HETATM   10  O   UNL     1      -9.917   3.904  70.626  1.00  0.00    -0.173 OA 
HETATM   11  C   UNL     1     -11.460   8.690  71.446  1.00  0.00    -0.352 A  
HETATM   12  C   UNL     1     -11.385   7.907  70.291  1.00  0.00    -0.158 A  
BRANCH  11  13
HETATM   13  C   UNL     1     -11.978  10.103  71.364  1.00  0.00    -0.447 C  
BRANCH  13  14
HETATM   14  C   UNL     1     -11.942  10.674  69.959  1.00  0.00    -0.329 C  
HETATM   15  O   UNL     1     -12.981  10.793  69.312  1.00  0.00    -0.021 OA 
HETATM   16  N   UNL     1     -10.694  11.055  69.494  1.00  0.00    -0.388 N  
HETATM   17  H   UNL     1      -9.871  10.877  70.069  1.00  0.00     0.000 HD 
BRANCH  16  18
HETATM   18  C   UNL     1     -10.532  11.714  68.185  1.00  0.00    -0.195 C  
BRANCH  18  19
HETATM   19  C   UNL     1     -10.040  10.823  67.031  1.00  0.00    -0.249 A  
HETATM   20  C   UNL     1     -10.123  11.190  65.645  1.00  0.00    -0.253 A  
HETATM   21  C   UNL     1      -9.489  10.307  64.727  1.00  0.00    -0.341 A  
HETATM   22  C   UNL     1      -9.318   9.646  67.384  1.00  0.00    -0.155 A  
HETATM   23  C   UNL     1      -8.779   9.166  65.104  1.00  0.00    -0.228 A  
HETATM   24  C   UNL     1      -8.694   8.832  66.438  1.00  0.00    -0.158 A  
BRANCH  20  25
HETATM   25  N   UNL     1     -10.766  12.306  65.098  1.00  0.00    -0.283 NA 
HETATM   26  C   UNL     1     -12.225  12.287  64.848  1.00  0.00    -0.339 C  
HETATM   27  C   UNL     1     -12.848  13.583  65.378  1.00  0.00    -0.420 C  
HETATM   28  C   UNL     1     -12.218  14.799  64.708  1.00  0.00    -0.356 C  
HETATM   29  C   UNL     1     -10.711  14.771  64.879  1.00  0.00    -0.438 C  
HETATM   30  C   UNL     1     -10.097  13.441  64.462  1.00  0.00    -0.192 C  
ENDBRANCH  20  25
ENDBRANCH  18  19
BRANCH  18  31
HETATM   31  C   UNL     1      -9.628  12.959  68.268  1.00  0.00    -0.212 C  
HETATM   32  C   UNL     1     -11.477  14.731  68.579  1.00  0.00    -0.330 C  
HETATM   33  C   UNL     1     -10.166  14.141  69.101  1.00  0.00    -0.065 C  
HETATM   34  C   UNL     1      -9.113  15.254  69.109  1.00  0.00    -0.236 C  
ENDBRANCH  18  31
ENDBRANCH  16  18
ENDBRANCH  13  14
ENDBRANCH  11  13
ENDBRANCH   3   4
ENDBRANCH   2   3
TORSDOF 8
ENDMDL
MODEL       56
REMARK 921   NORMALIZED FREE ENERGY PREDICTED BY IDOCK:   -6.09 KCAL/MOL
REMARK 922        TOTAL FREE ENERGY PREDICTED BY IDOCK:  -11.33 KCAL/MOL
REMARK 923 INTER-LIGAND FREE ENERGY PREDICTED BY IDOCK:   -9.43 KCAL/MOL
REMARK 924 INTRA-LIGAND FREE ENERGY PREDICTED BY IDOCK:   -1.90 KCAL/MOL
REMARK 927      BINDING AFFINITY PREDICTED BY RF-SCORE:    0.00 PKD
ROOT
HETATM    1  C   UNL     1      -8.780   9.715  63.360  1.00  0.00    -0.237 C  
HETATM    2  C   UNL     1      -9.436  10.122  64.661  1.00  0.00    -0.297 C  
ENDROOT
BRANCH   2   3
HETATM    3  O   UNL     1     -10.386  11.175  64.402  1.00  0.00    -0.298 OA 
BRANCH   3   4
HETATM    4  C   UNL     1     -10.919  11.754  65.527  1.00  0.00    -0.290 A  
HETATM    5  C   UNL     1     -11.654  12.943  65.397  1.00  0.00    -0.386 A  
HETATM    6  C   UNL     1     -12.142  13.572  66.557  1.00  0.00    -0.460 A  
HETATM    7  C   UNL     1     -11.946  13.630  64.096  1.00  0.00    -0.443 C  
HETATM    8  C   UNL     1     -11.909  13.032  67.820  1.00  0.00    -0.395 A  
HETATM    9  O   UNL     1     -12.512  14.715  64.036  1.00  0.00    -0.796 OA 
HETATM   10  O   UNL     1     -11.568  12.958  62.995  1.00  0.00    -0.282 OA 
HETATM   11  C   UNL     1     -11.201  11.833  67.951  1.00  0.00    -0.331 A  
HETATM   12  C   UNL     1     -10.748  11.185  66.799  1.00  0.00    -0.326 A  
BRANCH  11  13
HETATM   13  C   UNL     1     -10.924  11.237  69.308  1.00  0.00    -0.297 C  
BRANCH  13  14
HETATM   14  C   UNL     1     -10.142   9.939  69.244  1.00  0.00    -0.203 C  
HETATM   15  O   UNL     1      -8.941   9.926  69.508  1.00  0.00    -0.182 OA 
HETATM   16  N   UNL     1     -10.870   8.813  68.899  1.00  0.00    -0.429 N  
HETATM   17  H   UNL     1     -11.852   8.911  68.642  1.00  0.00     0.000 HD 
BRANCH  16  18
HETATM   18  C   UNL     1     -10.254   7.473  68.896  1.00  0.00    -0.208 C  
BRANCH  18  19
HETATM   19  C   UNL     1      -9.556   7.041  70.197  1.00  0.00    -0.164 A  
HETATM   20  C   UNL     1     -10.200   7.020  71.481  1.00  0.00    -0.198 A  
HETATM   21  C   UNL     1      -9.446   6.457  72.548  1.00  0.00    -0.145 A  
HETATM   22  C   UNL     1      -8.252   6.480  70.077  1.00  0.00    -0.130 A  
HETATM   23  C   UNL     1      -8.173   5.904  72.398  1.00  0.00    -0.110 A  
HETATM   24  C   UNL     1      -7.572   5.918  71.158  1.00  0.00    -0.100 A  
BRANCH  20  25
HETATM   25  N   UNL     1     -11.475   7.501  71.802  1.00  0.00    -0.253 NA 
HETATM   26  C   UNL     1     -11.641   8.837  72.418  1.00  0.00    -0.250 C  
HETATM   27  C   UNL     1     -12.759   9.594  71.693  1.00  0.00    -0.499 C  
HETATM   28  C   UNL     1     -14.070   8.820  71.762  1.00  0.00    -0.468 C  
HETATM   29  C   UNL     1     -13.878   7.416  71.220  1.00  0.00    -0.357 C  
HETATM   30  C   UNL     1     -12.695   6.697  71.854  1.00  0.00    -0.212 C  
ENDBRANCH  20  25
ENDBRANCH  18  19
BRANCH  18  31
HETATM   31  C   UNL     1      -9.270   7.288  67.723  1.00  0.00    -0.127 C  
HETATM   32  C   UNL     1      -9.928   4.880  67.073  1.00  0.00    -0.238 C  
HETATM   33  C   UNL     1      -9.712   6.321  66.606  1.00  0.00    -0.195 C  
HETATM   34  C   UNL     1      -8.637   6.310  65.514  1.00  0.00    -0.124 C  
ENDBRANCH  18  31
ENDBRANCH  16  18
ENDBRANCH  13  14
ENDBRANCH  11  13
ENDBRANCH   3   4
ENDBRANCH   2   3
TORSDOF 8
ENDMDL
MODEL       57
REMARK 921   NORMALIZED FREE ENERGY PREDICTED BY IDOCK:   -6.08 KCAL/MOL
REMARK 922        TOTAL FREE ENERGY PREDICTED BY IDOCK:  -11.32 KCAL/MOL
REMARK 923 INTER-LIGAND FREE ENERGY PREDICTED BY IDOCK:   -9.27 KCAL/MOL
REMARK 924 INTRA-LIGAND FREE ENERGY PREDICTED BY IDOCK:   -2.05 KCAL/MOL
REMARK 927      BINDING AFFINITY PREDICTED BY RF-SCORE:    0.00 PKD
ROOT
HETATM    1  C   UNL     1     -14.359   7.465  71.784  1.00  0.00    -0.586 C  
HETATM    2  C   UNL     1     -12.876   7.715  71.628  1.00  0.00    -0.349 C  
ENDROOT
BRANCH   2   3
HETATM    3  O   UNL     1     -12.150   6.565  72.108  1.00  0.00    -0.315 OA 
BRANCH   3   4
HETATM    4  C   UNL     1     -11.312   5.991  71.184  1.00  0.00    -0.232 A  
HETATM    5  C   UNL     1     -10.342   5.076  71.622  1.00  0.00    -0.262 A  
HETATM    6  C   UNL     1      -9.439   4.540  70.685  1.00  0.00    -0.240 A  
HETATM    7  C   UNL     1     -10.164   4.633  73.044  1.00  0.00    -0.169 C  
HETATM    8  C   UNL     1      -9.499   4.901  69.341  1.00  0.00    -0.218 A  
HETATM    9  O   UNL     1      -9.245   3.904  73.397  1.00  0.00    -0.104 OA 
HETATM   10  O   UNL     1     -11.101   5.070  73.902  1.00  0.00    -0.285 OA 
HETATM   11  C   UNL     1     -10.482   5.791  68.896  1.00  0.00    -0.326 A  
HETATM   12  C   UNL     1     -11.405   6.296  69.817  1.00  0.00    -0.506 A  
BRANCH  11  13
HETATM   13  C   UNL     1     -10.558   6.208  67.450  1.00  0.00    -0.352 C  
BRANCH  13  14
HETATM   14  C   UNL     1      -9.678   7.399  67.121  1.00  0.00    -0.171 C  
HETATM   15  O   UNL     1      -8.609   7.558  67.708  1.00  0.00    -0.120 OA 
HETATM   16  N   UNL     1     -10.151   8.244  66.132  1.00  0.00    -0.445 N  
HETATM   17  H   UNL     1     -11.072   8.076  65.729  1.00  0.00     0.000 HD 
BRANCH  16  18
HETATM   18  C   UNL     1      -9.349   9.384  65.650  1.00  0.00    -0.246 C  
BRANCH  18  19
HETATM   19  C   UNL     1     -10.128  10.663  65.296  1.00  0.00    -0.363 A  
HETATM   20  C   UNL     1     -10.637  11.585  66.273  1.00  0.00    -0.263 A  
HETATM   21  C   UNL     1     -11.205  12.784  65.761  1.00  0.00    -0.341 A  
HETATM   22  C   UNL     1     -10.195  11.020  63.918  1.00  0.00    -0.425 A  
HETATM   23  C   UNL     1     -11.248  13.112  64.405  1.00  0.00    -0.403 A  
HETATM   24  C   UNL     1     -10.743  12.225  63.479  1.00  0.00    -0.497 A  
BRANCH  20  25
HETATM   25  N   UNL     1     -10.649  11.430  67.664  1.00  0.00    -0.193 NA 
HETATM   26  C   UNL     1     -11.805  11.897  68.462  1.00  0.00    -0.297 C  
HETATM   27  C   UNL     1     -12.209  10.802  69.457  1.00  0.00    -0.292 C  
HETATM   28  C   UNL     1     -11.045  10.451  70.377  1.00  0.00    -0.371 C  
HETATM   29  C   UNL     1      -9.828  10.066  69.558  1.00  0.00    -0.249 C  
HETATM   30  C   UNL     1      -9.489  11.097  68.489  1.00  0.00    -0.193 C  
ENDBRANCH  20  25
ENDBRANCH  18  19
BRANCH  18  31
HETATM   31  C   UNL     1      -8.457   9.002  64.452  1.00  0.00    -0.190 C  
HETATM   32  C   UNL     1      -6.376  10.385  65.093  1.00  0.00    -0.103 C  
HETATM   33  C   UNL     1      -6.935   9.016  64.701  1.00  0.00    -0.085 C  
HETATM   34  C   UNL     1      -6.225   8.562  63.421  1.00  0.00    -0.081 C  
ENDBRANCH  18  31
ENDBRANCH  16  18
ENDBRANCH  13  14
ENDBRANCH  11  13
ENDBRANCH   3   4
ENDBRANCH   2   3
TORSDOF 8
ENDMDL
MODEL       58
REMARK 921   NORMALIZED FREE ENERGY PREDICTED BY IDOCK:   -6.07 KCAL/MOL
REMARK 922        TOTAL FREE ENERGY PREDICTED BY IDOCK:  -11.31 KCAL/MOL
REMARK 923 INTER-LIGAND FREE ENERGY PREDICTED BY IDOCK:   -9.63 KCAL/MOL
REMARK 924 INTRA-LIGAND FREE ENERGY PREDICTED BY IDOCK:   -1.68 KCAL/MOL
REMARK 927      BINDING AFFINITY PREDICTED BY RF-SCORE:    0.00 PKD
ROOT
HETATM    1  C   UNL     1     -10.524   4.932  66.161  1.00  0.00    -0.346 C  
HETATM    2  C   UNL     1     -10.624   5.843  67.364  1.00  0.00    -0.282 C  
ENDROOT
BRANCH   2   3
HETATM    3  O   UNL     1     -10.265   5.102  68.549  1.00  0.00    -0.164 OA 
BRANCH   3   4
HETATM    4  C   UNL     1     -10.605   5.713  69.730  1.00  0.00    -0.329 A  
HETATM    5  C   UNL     1     -10.224   5.113  70.941  1.00  0.00    -0.299 A  
HETATM    6  C   UNL     1     -10.631   5.703  72.152  1.00  0.00    -0.274 A  
HETATM    7  C   UNL     1      -9.425   3.848  71.054  1.00  0.00    -0.166 C  
HETATM    8  C   UNL     1     -11.396   6.867  72.162  1.00  0.00    -0.302 A  
HETATM    9  O   UNL     1      -9.194   3.309  72.129  1.00  0.00    -0.101 OA 
HETATM   10  O   UNL     1      -8.954   3.362  69.893  1.00  0.00    -0.082 OA 
HETATM   11  C   UNL     1     -11.754   7.483  70.959  1.00  0.00    -0.317 A  
HETATM   12  C   UNL     1     -11.320   6.922  69.755  1.00  0.00    -0.288 A  
BRANCH  11  13
HETATM   13  C   UNL     1     -12.594   8.735  70.944  1.00  0.00     0.002 C  
BRANCH  13  14
HETATM   14  C   UNL     1     -11.788   9.995  70.697  1.00  0.00    -0.325 C  
HETATM   15  O   UNL     1     -10.567   9.988  70.844  1.00  0.00    -0.271 OA 
HETATM   16  N   UNL     1     -12.511  11.104  70.289  1.00  0.00    -0.294 N  
HETATM   17  H   UNL     1     -13.528  11.048  70.241  1.00  0.00     0.000 HD 
BRANCH  16  18
HETATM   18  C   UNL     1     -11.840  12.364  69.922  1.00  0.00    -0.305 C  
BRANCH  18  19
HETATM   19  C   UNL     1     -12.196  13.598  70.770  1.00  0.00    -0.424 A  
HETATM   20  C   UNL     1     -11.768  14.933  70.460  1.00  0.00    -0.292 A  
HETATM   21  C   UNL     1     -12.310  15.967  71.273  1.00  0.00    -0.460 A  
HETATM   22  C   UNL     1     -13.135  13.409  71.825  1.00  0.00    -0.479 A  
HETATM   23  C   UNL     1     -13.238  15.752  72.293  1.00  0.00    -0.522 A  
HETATM   24  C   UNL     1     -13.651  14.467  72.573  1.00  0.00    -0.586 A  
BRANCH  20  25
HETATM   25  N   UNL     1     -10.872  15.328  69.460  1.00  0.00    -0.256 NA 
HETATM   26  C   UNL     1      -9.411  15.243  69.682  1.00  0.00    -0.165 C  
HETATM   27  C   UNL     1      -8.749  14.594  68.461  1.00  0.00    -0.176 C  
HETATM   28  C   UNL     1      -9.040  15.396  67.198  1.00  0.00    -0.236 C  
HETATM   29  C   UNL     1     -10.537  15.570  67.020  1.00  0.00    -0.311 C  
HETATM   30  C   UNL     1     -11.219  16.106  68.271  1.00  0.00    -0.343 C  
ENDBRANCH  20  25
ENDBRANCH  18  19
BRANCH  18  31
HETATM   31  C   UNL     1     -12.034  12.715  68.434  1.00  0.00    -0.268 C  
HETATM   32  C   UNL     1      -9.929  11.546  67.506  1.00  0.00    -0.207 C  
HETATM   33  C   UNL     1     -11.447  11.718  67.414  1.00  0.00    -0.375 C  
HETATM   34  C   UNL     1     -11.784  12.208  66.001  1.00  0.00    -0.388 C  
ENDBRANCH  18  31
ENDBRANCH  16  18
ENDBRANCH  13  14
ENDBRANCH  11  13
ENDBRANCH   3   4
ENDBRANCH   2   3
TORSDOF 8
ENDMDL
MODEL       59
REMARK 921   NORMALIZED FREE ENERGY PREDICTED BY IDOCK:   -6.06 KCAL/MOL
REMARK 922        TOTAL FREE ENERGY PREDICTED BY IDOCK:  -11.29 KCAL/MOL
REMARK 923 INTER-LIGAND FREE ENERGY PREDICTED BY IDOCK:   -9.33 KCAL/MOL
REMARK 924 INTRA-LIGAND FREE ENERGY PREDICTED BY IDOCK:   -1.96 KCAL/MOL
REMARK 927      BINDING AFFINITY PREDICTED BY RF-SCORE:    0.00 PKD
ROOT
HETATM    1  C   UNL     1      -7.131   7.816  70.166  1.00  0.00    -0.054 C  
HETATM    2  C   UNL     1      -8.192   8.477  71.017  1.00  0.00    -0.140 C  
ENDROOT
BRANCH   2   3
HETATM    3  O   UNL     1      -9.250   7.531  71.274  1.00  0.00    -0.148 OA 
BRANCH   3   4
HETATM    4  C   UNL     1     -10.485   8.095  71.476  1.00  0.00    -0.221 A  
HETATM    5  C   UNL     1     -11.505   7.314  72.041  1.00  0.00    -0.305 A  
HETATM    6  C   UNL     1     -12.789   7.871  72.186  1.00  0.00    -0.227 A  
HETATM    7  C   UNL     1     -11.344   5.891  72.490  1.00  0.00    -0.304 C  
HETATM    8  C   UNL     1     -13.055   9.176  71.781  1.00  0.00    -0.456 A  
HETATM    9  O   UNL     1     -12.284   5.217  72.892  1.00  0.00    -0.110 OA 
HETATM   10  O   UNL     1     -10.089   5.415  72.446  1.00  0.00    -0.173 OA 
HETATM   11  C   UNL     1     -12.035   9.967  71.242  1.00  0.00    -0.483 A  
HETATM   12  C   UNL     1     -10.749   9.430  71.133  1.00  0.00    -0.417 A  
BRANCH  11  13
HETATM   13  C   UNL     1     -12.303  11.378  70.784  1.00  0.00    -0.483 C  
BRANCH  13  14
HETATM   14  C   UNL     1     -11.789  11.662  69.385  1.00  0.00    -0.342 C  
HETATM   15  O   UNL     1     -12.372  11.199  68.406  1.00  0.00    -0.556 OA 
HETATM   16  N   UNL     1     -10.667  12.469  69.307  1.00  0.00    -0.442 N  
HETATM   17  H   UNL     1     -10.207  12.771  70.166  1.00  0.00     0.000 HD 
BRANCH  16  18
HETATM   18  C   UNL     1     -10.123  12.901  68.006  1.00  0.00    -0.235 C  
BRANCH  18  19
HETATM   19  C   UNL     1      -9.310  11.853  67.226  1.00  0.00    -0.177 A  
HETATM   20  C   UNL     1      -9.351  11.712  65.797  1.00  0.00    -0.205 A  
HETATM   21  C   UNL     1      -8.427  10.787  65.236  1.00  0.00    -0.116 A  
HETATM   22  C   UNL     1      -8.350  11.100  67.961  1.00  0.00    -0.134 A  
HETATM   23  C   UNL     1      -7.489  10.070  65.981  1.00  0.00    -0.112 A  
HETATM   24  C   UNL     1      -7.451  10.225  67.350  1.00  0.00    -0.094 A  
BRANCH  20  25
HETATM   25  N   UNL     1     -10.201  12.369  64.901  1.00  0.00    -0.285 NA 
HETATM   26  C   UNL     1     -10.828  11.631  63.781  1.00  0.00    -0.424 C  
HETATM   27  C   UNL     1     -12.319  11.982  63.715  1.00  0.00    -0.602 C  
HETATM   28  C   UNL     1     -12.514  13.482  63.527  1.00  0.00    -0.234 C  
HETATM   29  C   UNL     1     -11.790  14.246  64.620  1.00  0.00    -0.459 C  
HETATM   30  C   UNL     1     -10.335  13.820  64.769  1.00  0.00    -0.398 C  
ENDBRANCH  20  25
ENDBRANCH  18  19
BRANCH  18  31
HETATM   31  C   UNL     1      -9.283  14.189  68.126  1.00  0.00    -0.194 C  
HETATM   32  C   UNL     1     -11.226  15.885  68.192  1.00  0.00    -0.339 C  
HETATM   33  C   UNL     1      -9.947  15.373  68.858  1.00  0.00    -0.219 C  
HETATM   34  C   UNL     1      -8.947  16.532  68.921  1.00  0.00    -0.245 C  
ENDBRANCH  18  31
ENDBRANCH  16  18
ENDBRANCH  13  14
ENDBRANCH  11  13
ENDBRANCH   3   4
ENDBRANCH   2   3
TORSDOF 8
ENDMDL
MODEL       60
REMARK 921   NORMALIZED FREE ENERGY PREDICTED BY IDOCK:   -6.05 KCAL/MOL
REMARK 922        TOTAL FREE ENERGY PREDICTED BY IDOCK:  -11.27 KCAL/MOL
REMARK 923 INTER-LIGAND FREE ENERGY PREDICTED BY IDOCK:   -9.11 KCAL/MOL
REMARK 924 INTRA-LIGAND FREE ENERGY PREDICTED BY IDOCK:   -2.17 KCAL/MOL
REMARK 927      BINDING AFFINITY PREDICTED BY RF-SCORE:    0.00 PKD
ROOT
HETATM    1  C   UNL     1     -10.983   4.296  73.243  1.00  0.00    -0.334 C  
HETATM    2  C   UNL     1     -11.434   5.614  72.657  1.00  0.00    -0.285 C  
ENDROOT
BRANCH   2   3
HETATM    3  O   UNL     1     -10.777   5.816  71.388  1.00  0.00    -0.243 OA 
BRANCH   3   4
HETATM    4  C   UNL     1     -10.584   7.132  71.046  1.00  0.00    -0.221 A  
HETATM    5  C   UNL     1      -9.288   7.572  70.737  1.00  0.00    -0.162 A  
HETATM    6  C   UNL     1      -9.080   8.934  70.454  1.00  0.00    -0.217 A  
HETATM    7  C   UNL     1      -8.070   6.695  70.711  1.00  0.00    -0.119 C  
HETATM    8  C   UNL     1     -10.137   9.841  70.473  1.00  0.00    -0.289 A  
HETATM    9  O   UNL     1      -6.943   7.138  70.527  1.00  0.00    -0.056 OA 
HETATM   10  O   UNL     1      -8.306   5.382  70.876  1.00  0.00    -0.113 OA 
HETATM   11  C   UNL     1     -11.435   9.402  70.754  1.00  0.00    -0.364 A  
HETATM   12  C   UNL     1     -11.651   8.043  70.998  1.00  0.00    -0.303 A  
BRANCH  11  13
HETATM   13  C   UNL     1     -12.592  10.367  70.795  1.00  0.00    -0.462 C  
BRANCH  13  14
HETATM   14  C   UNL     1     -12.316  11.666  70.061  1.00  0.00    -0.187 C  
HETATM   15  O   UNL     1     -12.371  12.738  70.661  1.00  0.00    -0.360 OA 
HETATM   16  N   UNL     1     -11.991  11.545  68.721  1.00  0.00    -0.319 N  
HETATM   17  H   UNL     1     -12.018  10.625  68.281  1.00  0.00     0.000 HD 
BRANCH  16  18
HETATM   18  C   UNL     1     -11.606  12.719  67.917  1.00  0.00    -0.351 C  
BRANCH  18  19
HETATM   19  C   UNL     1     -11.451  12.487  66.403  1.00  0.00    -0.418 A  
HETATM   20  C   UNL     1     -10.746  11.373  65.833  1.00  0.00    -0.255 A  
HETATM   21  C   UNL     1     -10.827  11.242  64.418  1.00  0.00    -0.373 A  
HETATM   22  C   UNL     1     -12.192  13.343  65.538  1.00  0.00    -0.499 A  
HETATM   23  C   UNL     1     -11.570  12.091  63.597  1.00  0.00    -0.578 A  
HETATM   24  C   UNL     1     -12.254  13.148  64.158  1.00  0.00    -0.465 A  
BRANCH  20  25
HETATM   25  N   UNL     1      -9.982  10.415  66.507  1.00  0.00    -0.209 NA 
HETATM   26  C   UNL     1     -10.608   9.170  67.008  1.00  0.00    -0.195 C  
HETATM   27  C   UNL     1      -9.733   7.972  66.623  1.00  0.00    -0.313 C  
HETATM   28  C   UNL     1      -8.329   8.119  67.198  1.00  0.00    -0.120 C  
HETATM   29  C   UNL     1      -7.721   9.440  66.765  1.00  0.00    -0.098 C  
HETATM   30  C   UNL     1      -8.636  10.626  67.041  1.00  0.00    -0.128 C  
ENDBRANCH  20  25
ENDBRANCH  18  19
BRANCH  18  31
HETATM   31  C   UNL     1     -10.325  13.393  68.447  1.00  0.00    -0.253 C  
HETATM   32  C   UNL     1     -10.875  15.816  67.754  1.00  0.00    -0.316 C  
HETATM   33  C   UNL     1     -10.457  14.868  68.879  1.00  0.00    -0.242 C  
HETATM   34  C   UNL     1      -9.104  15.342  69.421  1.00  0.00    -0.258 C  
ENDBRANCH  18  31
ENDBRANCH  16  18
ENDBRANCH  13  14
ENDBRANCH  11  13
ENDBRANCH   3   4
ENDBRANCH   2   3
TORSDOF 8
ENDMDL
MODEL       61
REMARK 921   NORMALIZED FREE ENERGY PREDICTED BY IDOCK:   -6.05 KCAL/MOL
REMARK 922        TOTAL FREE ENERGY PREDICTED BY IDOCK:  -11.27 KCAL/MOL
REMARK 923 INTER-LIGAND FREE ENERGY PREDICTED BY IDOCK:   -9.21 KCAL/MOL
REMARK 924 INTRA-LIGAND FREE ENERGY PREDICTED BY IDOCK:   -2.06 KCAL/MOL
REMARK 927      BINDING AFFINITY PREDICTED BY RF-SCORE:    0.00 PKD
ROOT
HETATM    1  C   UNL     1     -12.045  13.699  66.429  1.00  0.00    -0.478 C  
HETATM    2  C   UNL     1     -11.661  12.624  67.421  1.00  0.00    -0.369 C  
ENDROOT
BRANCH   2   3
HETATM    3  O   UNL     1     -11.295  13.243  68.671  1.00  0.00    -0.250 OA 
BRANCH   3   4
HETATM    4  C   UNL     1     -12.002  12.796  69.759  1.00  0.00    -0.292 A  
HETATM    5  C   UNL     1     -12.521  13.734  70.666  1.00  0.00    -0.429 A  
HETATM    6  C   UNL     1     -13.186  13.273  71.817  1.00  0.00    -0.495 A  
HETATM    7  C   UNL     1     -12.398  15.222  70.521  1.00  0.00    -0.387 C  
HETATM    8  C   UNL     1     -13.337  11.910  72.063  1.00  0.00    -0.425 A  
HETATM    9  O   UNL     1     -12.784  16.002  71.382  1.00  0.00    -0.430 OA 
HETATM   10  O   UNL     1     -11.858  15.642  69.364  1.00  0.00    -0.355 OA 
HETATM   11  C   UNL     1     -12.846  10.973  71.149  1.00  0.00    -0.491 A  
HETATM   12  C   UNL     1     -12.218  11.427  69.985  1.00  0.00    -0.377 A  
BRANCH  11  13
HETATM   13  C   UNL     1     -12.984   9.493  71.400  1.00  0.00    -0.450 C  
BRANCH  13  14
HETATM   14  C   UNL     1     -11.673   8.740  71.282  1.00  0.00    -0.298 C  
HETATM   15  O   UNL     1     -10.636   9.231  71.723  1.00  0.00    -0.355 OA 
HETATM   16  N   UNL     1     -11.744   7.495  70.679  1.00  0.00    -0.425 N  
HETATM   17  H   UNL     1     -12.632   7.178  70.290  1.00  0.00     0.000 HD 
BRANCH  16  18
HETATM   18  C   UNL     1     -10.562   6.618  70.589  1.00  0.00    -0.227 C  
BRANCH  18  19
HETATM   19  C   UNL     1     -10.054   6.304  69.171  1.00  0.00    -0.204 A  
HETATM   20  C   UNL     1      -8.734   5.819  68.883  1.00  0.00    -0.111 A  
HETATM   21  C   UNL     1      -8.486   5.447  67.533  1.00  0.00    -0.106 A  
HETATM   22  C   UNL     1     -11.012   6.347  68.116  1.00  0.00    -0.393 A  
HETATM   23  C   UNL     1      -9.448   5.490  66.522  1.00  0.00    -0.161 A  
HETATM   24  C   UNL     1     -10.716   5.945  66.814  1.00  0.00    -0.371 A  
BRANCH  20  25
HETATM   25  N   UNL     1      -7.664   5.684  69.776  1.00  0.00    -0.078 NA 
HETATM   26  C   UNL     1      -6.818   6.849  70.117  1.00  0.00    -0.057 C  
HETATM   27  C   UNL     1      -6.622   6.906  71.636  1.00  0.00    -0.049 C  
HETATM   28  C   UNL     1      -5.976   5.623  72.147  1.00  0.00    -0.034 C  
HETATM   29  C   UNL     1      -6.790   4.418  71.715  1.00  0.00    -0.034 C  
HETATM   30  C   UNL     1      -7.088   4.415  70.221  1.00  0.00    -0.045 C  
ENDBRANCH  20  25
ENDBRANCH  18  19
BRANCH  18  31
HETATM   31  C   UNL     1     -10.763   5.291  71.348  1.00  0.00    -0.203 C  
HETATM   32  C   UNL     1      -9.822   6.033  73.633  1.00  0.00    -0.180 C  
HETATM   33  C   UNL     1     -10.988   5.401  72.870  1.00  0.00    -0.338 C  
HETATM   34  C   UNL     1     -11.217   3.994  73.433  1.00  0.00    -0.313 C  
ENDBRANCH  18  31
ENDBRANCH  16  18
ENDBRANCH  13  14
ENDBRANCH  11  13
ENDBRANCH   3   4
ENDBRANCH   2   3
TORSDOF 8
ENDMDL
MODEL       62
REMARK 921   NORMALIZED FREE ENERGY PREDICTED BY IDOCK:   -6.01 KCAL/MOL
REMARK 922        TOTAL FREE ENERGY PREDICTED BY IDOCK:  -11.21 KCAL/MOL
REMARK 923 INTER-LIGAND FREE ENERGY PREDICTED BY IDOCK:   -9.35 KCAL/MOL
REMARK 924 INTRA-LIGAND FREE ENERGY PREDICTED BY IDOCK:   -1.87 KCAL/MOL
REMARK 927      BINDING AFFINITY PREDICTED BY RF-SCORE:    0.00 PKD
ROOT
HETATM    1  C   UNL     1      -9.432   3.930  69.883  1.00  0.00    -0.267 C  
HETATM    2  C   UNL     1      -9.237   5.371  69.468  1.00  0.00    -0.117 C  
ENDROOT
BRANCH   2   3
HETATM    3  O   UNL     1      -8.899   6.155  70.630  1.00  0.00    -0.140 OA 
BRANCH   3   4
HETATM    4  C   UNL     1      -9.484   7.396  70.673  1.00  0.00    -0.164 A  
HETATM    5  C   UNL     1     -10.142   7.799  71.846  1.00  0.00    -0.231 A  
HETATM    6  C   UNL     1     -10.800   9.042  71.866  1.00  0.00    -0.413 A  
HETATM    7  C   UNL     1     -10.228   6.981  73.101  1.00  0.00    -0.255 C  
HETATM    8  C   UNL     1     -10.803   9.871  70.747  1.00  0.00    -0.387 A  
HETATM    9  O   UNL     1     -10.891   7.330  74.070  1.00  0.00    -0.212 OA 
HETATM   10  O   UNL     1      -9.503   5.850  73.099  1.00  0.00    -0.143 OA 
HETATM   11  C   UNL     1     -10.126   9.487  69.585  1.00  0.00    -0.228 A  
HETATM   12  C   UNL     1      -9.438   8.269  69.574  1.00  0.00    -0.162 A  
BRANCH  11  13
HETATM   13  C   UNL     1     -10.127  10.360  68.357  1.00  0.00    -0.181 C  
BRANCH  13  14
HETATM   14  C   UNL     1     -10.998  11.593  68.499  1.00  0.00    -0.220 C  
HETATM   15  O   UNL     1     -12.223  11.485  68.530  1.00  0.00    -0.524 OA 
HETATM   16  N   UNL     1     -10.325  12.799  68.607  1.00  0.00    -0.346 N  
HETATM   17  H   UNL     1      -9.309  12.814  68.520  1.00  0.00     0.000 HD 
BRANCH  16  18
HETATM   18  C   UNL     1     -11.048  14.061  68.847  1.00  0.00    -0.268 C  
BRANCH  18  19
HETATM   19  C   UNL     1     -10.670  15.246  67.941  1.00  0.00    -0.275 A  
HETATM   20  C   UNL     1     -10.721  15.203  66.506  1.00  0.00    -0.310 A  
HETATM   21  C   UNL     1     -10.474  16.434  65.837  1.00  0.00    -0.350 A  
HETATM   22  C   UNL     1     -10.414  16.494  68.579  1.00  0.00    -0.302 A  
HETATM   23  C   UNL     1     -10.237  17.644  66.490  1.00  0.00    -0.355 A  
HETATM   24  C   UNL     1     -10.204  17.675  67.867  1.00  0.00    -0.357 A  
BRANCH  20  25
HETATM   25  N   UNL     1     -10.972  14.090  65.696  1.00  0.00    -0.295 NA 
HETATM   26  C   UNL     1     -12.361  13.712  65.348  1.00  0.00    -0.476 C  
HETATM   27  C   UNL     1     -12.446  13.425  63.845  1.00  0.00    -0.313 C  
HETATM   28  C   UNL     1     -11.486  12.309  63.451  1.00  0.00    -0.512 C  
HETATM   29  C   UNL     1     -10.075  12.650  63.894  1.00  0.00    -0.247 C  
HETATM   30  C   UNL     1     -10.001  13.049  65.362  1.00  0.00    -0.188 C  
ENDBRANCH  20  25
ENDBRANCH  18  19
BRANCH  18  31
HETATM   31  C   UNL     1     -10.954  14.515  70.318  1.00  0.00    -0.005 C  
HETATM   32  C   UNL     1     -13.391  15.312  70.609  1.00  0.00    -0.320 C  
HETATM   33  C   UNL     1     -12.255  14.436  71.142  1.00  0.00    -0.420 C  
HETATM   34  C   UNL     1     -11.952  14.875  72.579  1.00  0.00    -0.364 C  
ENDBRANCH  18  31
ENDBRANCH  16  18
ENDBRANCH  13  14
ENDBRANCH  11  13
ENDBRANCH   3   4
ENDBRANCH   2   3
TORSDOF 8
ENDMDL
MODEL       63
REMARK 921   NORMALIZED FREE ENERGY PREDICTED BY IDOCK:   -6.01 KCAL/MOL
REMARK 922        TOTAL FREE ENERGY PREDICTED BY IDOCK:  -11.21 KCAL/MOL
REMARK 923 INTER-LIGAND FREE ENERGY PREDICTED BY IDOCK:   -9.19 KCAL/MOL
REMARK 924 INTRA-LIGAND FREE ENERGY PREDICTED BY IDOCK:   -2.02 KCAL/MOL
REMARK 927      BINDING AFFINITY PREDICTED BY RF-SCORE:    0.00 PKD
ROOT
HETATM    1  C   UNL     1     -10.807   8.528  72.273  1.00  0.00    -0.418 C  
HETATM    2  C   UNL     1      -9.573   8.485  71.401  1.00  0.00    -0.215 C  
ENDROOT
BRANCH   2   3
HETATM    3  O   UNL     1      -9.863   7.729  70.208  1.00  0.00    -0.183 OA 
BRANCH   3   4
HETATM    4  C   UNL     1      -9.590   8.387  69.034  1.00  0.00    -0.160 A  
HETATM    5  C   UNL     1     -10.088   7.865  67.830  1.00  0.00    -0.246 A  
HETATM    6  C   UNL     1      -9.752   8.500  66.620  1.00  0.00    -0.318 A  
HETATM    7  C   UNL     1     -10.947   6.639  67.720  1.00  0.00    -0.281 C  
HETATM    8  C   UNL     1      -8.941   9.633  66.605  1.00  0.00    -0.166 A  
HETATM    9  O   UNL     1     -11.283   6.165  66.641  1.00  0.00    -0.232 OA 
HETATM   10  O   UNL     1     -11.346   6.112  68.889  1.00  0.00    -0.367 OA 
HETATM   11  C   UNL     1      -8.465  10.172  67.805  1.00  0.00    -0.114 A  
HETATM   12  C   UNL     1      -8.829   9.566  69.011  1.00  0.00    -0.143 A  
BRANCH  11  13
HETATM   13  C   UNL     1      -7.575  11.388  67.812  1.00  0.00    -0.105 C  
BRANCH  13  14
HETATM   14  C   UNL     1      -8.335  12.690  67.647  1.00  0.00    -0.174 C  
HETATM   15  O   UNL     1      -7.757  13.696  67.239  1.00  0.00    -0.154 OA 
HETATM   16  N   UNL     1      -9.683  12.646  67.962  1.00  0.00    -0.210 N  
HETATM   17  H   UNL     1     -10.079  11.788  68.345  1.00  0.00     0.000 HD 
BRANCH  16  18
HETATM   18  C   UNL     1     -10.557  13.815  67.754  1.00  0.00    -0.246 C  
BRANCH  18  19
HETATM   19  C   UNL     1     -11.103  14.492  69.023  1.00  0.00    -0.279 A  
HETATM   20  C   UNL     1     -10.946  15.889  69.316  1.00  0.00    -0.293 A  
HETATM   21  C   UNL     1     -11.638  16.368  70.462  1.00  0.00    -0.091 A  
HETATM   22  C   UNL     1     -11.947  13.709  69.863  1.00  0.00    -0.415 A  
HETATM   23  C   UNL     1     -12.467  15.579  71.260  1.00  0.00    -0.486 A  
HETATM   24  C   UNL     1     -12.621  14.242  70.961  1.00  0.00    -0.428 A  
BRANCH  20  25
HETATM   25  N   UNL     1     -10.181  16.825  68.610  1.00  0.00    -0.278 NA 
HETATM   26  C   UNL     1     -10.760  17.553  67.458  1.00  0.00    -0.280 C  
HETATM   27  C   UNL     1     -10.432  19.045  67.585  1.00  0.00    -0.523 C  
HETATM   28  C   UNL     1      -8.924  19.265  67.639  1.00  0.00    -0.346 C  
HETATM   29  C   UNL     1      -8.314  18.443  68.759  1.00  0.00    -0.255 C  
HETATM   30  C   UNL     1      -8.730  16.979  68.706  1.00  0.00    -0.244 C  
ENDBRANCH  20  25
ENDBRANCH  18  19
BRANCH  18  31
HETATM   31  C   UNL     1     -11.738  13.499  66.815  1.00  0.00    -0.430 C  
HETATM   32  C   UNL     1     -10.417  13.349  64.604  1.00  0.00    -0.428 C  
HETATM   33  C   UNL     1     -11.408  12.674  65.555  1.00  0.00    -0.356 C  
HETATM   34  C   UNL     1     -12.707  12.418  64.783  1.00  0.00    -0.324 C  
ENDBRANCH  18  31
ENDBRANCH  16  18
ENDBRANCH  13  14
ENDBRANCH  11  13
ENDBRANCH   3   4
ENDBRANCH   2   3
TORSDOF 8
ENDMDL
MODEL       64
REMARK 921   NORMALIZED FREE ENERGY PREDICTED BY IDOCK:   -6.00 KCAL/MOL
REMARK 922        TOTAL FREE ENERGY PREDICTED BY IDOCK:  -11.21 KCAL/MOL
REMARK 923 INTER-LIGAND FREE ENERGY PREDICTED BY IDOCK:   -8.77 KCAL/MOL
REMARK 924 INTRA-LIGAND FREE ENERGY PREDICTED BY IDOCK:   -2.44 KCAL/MOL
REMARK 927      BINDING AFFINITY PREDICTED BY RF-SCORE:    0.00 PKD
ROOT
HETATM    1  C   UNL     1     -12.481  12.010  63.458  1.00  0.00    -0.654 C  
HETATM    2  C   UNL     1     -11.095  11.604  63.903  1.00  0.00    -0.401 C  
ENDROOT
BRANCH   2   3
HETATM    3  O   UNL     1     -10.738  12.355  65.082  1.00  0.00    -0.276 OA 
BRANCH   3   4
HETATM    4  C   UNL     1     -10.596  11.600  66.220  1.00  0.00    -0.258 A  
HETATM    5  C   UNL     1     -11.124  12.083  67.428  1.00  0.00    -0.337 A  
HETATM    6  C   UNL     1     -10.919  11.342  68.606  1.00  0.00    -0.267 A  
HETATM    7  C   UNL     1     -11.882  13.370  67.575  1.00  0.00    -0.366 C  
HETATM    8  C   UNL     1     -10.208  10.144  68.587  1.00  0.00    -0.193 A  
HETATM    9  O   UNL     1     -12.244  13.800  68.664  1.00  0.00    -0.347 OA 
HETATM   10  O   UNL     1     -12.161  14.006  66.425  1.00  0.00    -0.416 OA 
HETATM   11  C   UNL     1      -9.705   9.645  67.381  1.00  0.00    -0.198 A  
HETATM   12  C   UNL     1      -9.940  10.359  66.202  1.00  0.00    -0.290 A  
BRANCH  11  13
HETATM   13  C   UNL     1      -8.921   8.359  67.338  1.00  0.00    -0.143 C  
BRANCH  13  14
HETATM   14  C   UNL     1      -9.762   7.133  67.635  1.00  0.00    -0.143 C  
HETATM   15  O   UNL     1     -10.945   7.098  67.298  1.00  0.00    -0.310 OA 
HETATM   16  N   UNL     1      -9.109   6.091  68.272  1.00  0.00    -0.112 N  
HETATM   17  H   UNL     1      -8.141   6.215  68.568  1.00  0.00     0.000 HD 
BRANCH  16  18
HETATM   18  C   UNL     1      -9.784   4.807  68.531  1.00  0.00    -0.151 C  
BRANCH  18  19
HETATM   19  C   UNL     1      -9.794   4.325  69.993  1.00  0.00    -0.275 A  
HETATM   20  C   UNL     1     -10.310   5.099  71.087  1.00  0.00    -0.206 A  
HETATM   21  C   UNL     1     -10.368   4.438  72.345  1.00  0.00    -0.241 A  
HETATM   22  C   UNL     1      -9.415   2.972  70.231  1.00  0.00    -0.210 A  
HETATM   23  C   UNL     1     -10.000   3.107  72.546  1.00  0.00    -0.228 A  
HETATM   24  C   UNL     1      -9.519   2.370  71.485  1.00  0.00    -0.206 A  
BRANCH  20  25
HETATM   25  N   UNL     1     -10.748   6.428  71.057  1.00  0.00    -0.240 NA 
HETATM   26  C   UNL     1     -12.086   6.767  70.521  1.00  0.00    -0.274 C  
HETATM   27  C   UNL     1     -12.790   7.728  71.484  1.00  0.00    -0.357 C  
HETATM   28  C   UNL     1     -11.968   8.997  71.679  1.00  0.00    -0.426 C  
HETATM   29  C   UNL     1     -10.564   8.647  72.136  1.00  0.00    -0.411 C  
HETATM   30  C   UNL     1      -9.900   7.604  71.247  1.00  0.00    -0.171 C  
ENDBRANCH  20  25
ENDBRANCH  18  19
BRANCH  18  31
HETATM   31  C   UNL     1      -9.239   3.673  67.641  1.00  0.00    -0.225 C  
HETATM   32  C   UNL     1     -10.423   4.333  65.445  1.00  0.00    -0.192 C  
HETATM   33  C   UNL     1      -9.102   3.989  66.137  1.00  0.00    -0.141 C  
HETATM   34  C   UNL     1      -8.501   2.769  65.433  1.00  0.00    -0.099 C  
ENDBRANCH  18  31
ENDBRANCH  16  18
ENDBRANCH  13  14
ENDBRANCH  11  13
ENDBRANCH   3   4
ENDBRANCH   2   3
TORSDOF 8
ENDMDL
MODEL       65
REMARK 921   NORMALIZED FREE ENERGY PREDICTED BY IDOCK:   -5.98 KCAL/MOL
REMARK 922        TOTAL FREE ENERGY PREDICTED BY IDOCK:  -11.17 KCAL/MOL
REMARK 923 INTER-LIGAND FREE ENERGY PREDICTED BY IDOCK:   -9.02 KCAL/MOL
REMARK 924 INTRA-LIGAND FREE ENERGY PREDICTED BY IDOCK:   -2.15 KCAL/MOL
REMARK 927      BINDING AFFINITY PREDICTED BY RF-SCORE:    0.00 PKD
ROOT
HETATM    1  C   UNL     1     -10.970  15.037  67.282  1.00  0.00    -0.326 C  
HETATM    2  C   UNL     1     -11.770  13.979  68.008  1.00  0.00    -0.359 C  
ENDROOT
BRANCH   2   3
HETATM    3  O   UNL     1     -11.637  14.178  69.430  1.00  0.00    -0.266 OA 
BRANCH   3   4
HETATM    4  C   UNL     1     -12.139  13.159  70.200  1.00  0.00    -0.321 A  
HETATM    5  C   UNL     1     -13.050  13.464  71.224  1.00  0.00    -0.317 A  
HETATM    6  C   UNL     1     -13.512  12.428  72.057  1.00  0.00    -0.460 A  
HETATM    7  C   UNL     1     -13.563  14.841  71.529  1.00  0.00    -0.416 C  
HETATM    8  C   UNL     1     -13.082  11.116  71.876  1.00  0.00    -0.513 A  
HETATM    9  O   UNL     1     -14.286  15.077  72.490  1.00  0.00    -0.453 OA 
HETATM   10  O   UNL     1     -13.197  15.795  70.657  1.00  0.00    -0.501 OA 
HETATM   11  C   UNL     1     -12.196  10.803  70.841  1.00  0.00    -0.487 A  
HETATM   12  C   UNL     1     -11.764  11.822  69.987  1.00  0.00    -0.386 A  
BRANCH  11  13
HETATM   13  C   UNL     1     -11.705   9.393  70.635  1.00  0.00    -0.302 C  
BRANCH  13  14
HETATM   14  C   UNL     1     -10.568   9.292  69.637  1.00  0.00    -0.229 C  
HETATM   15  O   UNL     1      -9.404   9.430  70.010  1.00  0.00    -0.192 OA 
HETATM   16  N   UNL     1     -10.934   9.023  68.329  1.00  0.00    -0.475 N  
HETATM   17  H   UNL     1     -11.924   8.975  68.087  1.00  0.00     0.000 HD 
BRANCH  16  18
HETATM   18  C   UNL     1      -9.923   8.805  67.279  1.00  0.00    -0.220 C  
BRANCH  18  19
HETATM   19  C   UNL     1      -9.926   9.807  66.111  1.00  0.00    -0.338 A  
HETATM   20  C   UNL     1      -9.082   9.691  64.955  1.00  0.00    -0.233 A  
HETATM   21  C   UNL     1      -9.322  10.628  63.912  1.00  0.00    -0.302 A  
HETATM   22  C   UNL     1     -10.942  10.807  66.119  1.00  0.00    -0.037 A  
HETATM   23  C   UNL     1     -10.332  11.590  63.943  1.00  0.00    -0.422 A  
HETATM   24  C   UNL     1     -11.145  11.682  65.052  1.00  0.00    -0.312 A  
BRANCH  20  25
HETATM   25  N   UNL     1      -8.047   8.773  64.746  1.00  0.00    -0.142 NA 
HETATM   26  C   UNL     1      -6.694   9.028  65.291  1.00  0.00    -0.068 C  
HETATM   27  C   UNL     1      -6.177   7.760  65.978  1.00  0.00    -0.042 C  
HETATM   28  C   UNL     1      -6.135   6.592  64.998  1.00  0.00    -0.035 C  
HETATM   29  C   UNL     1      -7.498   6.390  64.365  1.00  0.00    -0.090 C  
HETATM   30  C   UNL     1      -8.071   7.675  63.781  1.00  0.00    -0.036 C  
ENDBRANCH  20  25
ENDBRANCH  18  19
BRANCH  18  31
HETATM   31  C   UNL     1      -9.981   7.376  66.704  1.00  0.00    -0.261 C  
HETATM   32  C   UNL     1      -8.541   6.204  68.495  1.00  0.00    -0.113 C  
HETATM   33  C   UNL     1      -9.861   6.223  67.722  1.00  0.00    -0.130 C  
HETATM   34  C   UNL     1      -9.992   4.893  66.973  1.00  0.00    -0.238 C  
ENDBRANCH  18  31
ENDBRANCH  16  18
ENDBRANCH  13  14
ENDBRANCH  11  13
ENDBRANCH   3   4
ENDBRANCH   2   3
TORSDOF 8
ENDMDL
MODEL       66
REMARK 921   NORMALIZED FREE ENERGY PREDICTED BY IDOCK:   -5.98 KCAL/MOL
REMARK 922        TOTAL FREE ENERGY PREDICTED BY IDOCK:  -11.17 KCAL/MOL
REMARK 923 INTER-LIGAND FREE ENERGY PREDICTED BY IDOCK:   -9.04 KCAL/MOL
REMARK 924 INTRA-LIGAND FREE ENERGY PREDICTED BY IDOCK:   -2.13 KCAL/MOL
REMARK 927      BINDING AFFINITY PREDICTED BY RF-SCORE:    0.00 PKD
ROOT
HETATM    1  C   UNL     1     -11.717  15.556  71.113  1.00  0.00    -0.439 C  
HETATM    2  C   UNL     1     -11.565  15.827  69.633  1.00  0.00    -0.358 C  
ENDROOT
BRANCH   2   3
HETATM    3  O   UNL     1     -10.616  16.896  69.443  1.00  0.00    -0.337 OA 
BRANCH   3   4
HETATM    4  C   UNL     1      -9.450  16.524  68.822  1.00  0.00    -0.246 A  
HETATM    5  C   UNL     1      -9.087  17.154  67.621  1.00  0.00    -0.227 A  
HETATM    6  C   UNL     1      -7.928  16.724  66.949  1.00  0.00    -0.248 A  
HETATM    7  C   UNL     1      -9.866  18.256  66.964  1.00  0.00    -0.326 C  
HETATM    8  C   UNL     1      -7.143  15.693  67.459  1.00  0.00    -0.214 A  
HETATM    9  O   UNL     1      -9.563  18.714  65.870  1.00  0.00    -0.479 OA 
HETATM   10  O   UNL     1     -10.905  18.725  67.675  1.00  0.00    -0.426 OA 
HETATM   11  C   UNL     1      -7.486  15.080  68.668  1.00  0.00    -0.122 A  
HETATM   12  C   UNL     1      -8.615  15.530  69.359  1.00  0.00    -0.259 A  
BRANCH  11  13
HETATM   13  C   UNL     1      -6.660  13.952  69.232  1.00  0.00    -0.113 C  
BRANCH  13  14
HETATM   14  C   UNL     1      -7.276  12.585  69.002  1.00  0.00     0.002 C  
HETATM   15  O   UNL     1      -6.581  11.574  69.081  1.00  0.00    -0.083 OA 
HETATM   16  N   UNL     1      -8.633  12.572  68.729  1.00  0.00    -0.373 N  
HETATM   17  H   UNL     1      -9.131  13.456  68.627  1.00  0.00     0.000 HD 
BRANCH  16  18
HETATM   18  C   UNL     1      -9.373  11.306  68.582  1.00  0.00    -0.164 C  
BRANCH  18  19
HETATM   19  C   UNL     1      -9.391  10.687  67.173  1.00  0.00    -0.172 A  
HETATM   20  C   UNL     1      -9.882  11.366  66.006  1.00  0.00    -0.223 A  
HETATM   21  C   UNL     1      -9.688  10.696  64.767  1.00  0.00    -0.350 A  
HETATM   22  C   UNL     1      -8.731   9.435  67.008  1.00  0.00    -0.135 A  
HETATM   23  C   UNL     1      -9.028   9.473  64.635  1.00  0.00    -0.266 A  
HETATM   24  C   UNL     1      -8.548   8.838  65.760  1.00  0.00    -0.185 A  
BRANCH  20  25
HETATM   25  N   UNL     1     -10.538  12.601  65.955  1.00  0.00    -0.268 NA 
HETATM   26  C   UNL     1      -9.764  13.863  65.930  1.00  0.00    -0.214 C  
HETATM   27  C   UNL     1     -10.324  14.780  64.838  1.00  0.00    -0.365 C  
HETATM   28  C   UNL     1     -11.799  15.076  65.083  1.00  0.00    -0.195 C  
HETATM   29  C   UNL     1     -12.580  13.781  65.206  1.00  0.00    -0.510 C  
HETATM   30  C   UNL     1     -11.962  12.815  66.208  1.00  0.00    -0.395 C  
ENDBRANCH  20  25
ENDBRANCH  18  19
BRANCH  18  31
HETATM   31  C   UNL     1     -10.824  11.417  69.091  1.00  0.00    -0.260 C  
HETATM   32  C   UNL     1     -11.036   9.054  70.105  1.00  0.00    -0.228 C  
HETATM   33  C   UNL     1     -11.184  10.561  70.322  1.00  0.00    -0.391 C  
HETATM   34  C   UNL     1     -12.640  10.845  70.707  1.00  0.00    -0.470 C  
ENDBRANCH  18  31
ENDBRANCH  16  18
ENDBRANCH  13  14
ENDBRANCH  11  13
ENDBRANCH   3   4
ENDBRANCH   2   3
TORSDOF 8
ENDMDL
MODEL       67
REMARK 921   NORMALIZED FREE ENERGY PREDICTED BY IDOCK:   -5.98 KCAL/MOL
REMARK 922        TOTAL FREE ENERGY PREDICTED BY IDOCK:  -11.17 KCAL/MOL
REMARK 923 INTER-LIGAND FREE ENERGY PREDICTED BY IDOCK:   -9.08 KCAL/MOL
REMARK 924 INTRA-LIGAND FREE ENERGY PREDICTED BY IDOCK:   -2.09 KCAL/MOL
REMARK 927      BINDING AFFINITY PREDICTED BY RF-SCORE:    0.00 PKD
ROOT
HETATM    1  C   UNL     1     -13.956  15.189  72.413  1.00  0.00    -0.616 C  
HETATM    2  C   UNL     1     -12.536  14.902  71.980  1.00  0.00    -0.334 C  
ENDROOT
BRANCH   2   3
HETATM    3  O   UNL     1     -12.471  14.906  70.539  1.00  0.00    -0.323 OA 
BRANCH   3   4
HETATM    4  C   UNL     1     -12.232  13.678  69.974  1.00  0.00    -0.329 A  
HETATM    5  C   UNL     1     -11.843  13.613  68.627  1.00  0.00    -0.409 A  
HETATM    6  C   UNL     1     -11.664  12.352  68.029  1.00  0.00    -0.414 A  
HETATM    7  C   UNL     1     -11.624  14.805  67.741  1.00  0.00    -0.357 C  
HETATM    8  C   UNL     1     -11.864  11.179  68.753  1.00  0.00    -0.388 A  
HETATM    9  O   UNL     1     -11.375  14.701  66.546  1.00  0.00    -0.341 OA 
HETATM   10  O   UNL     1     -11.692  15.997  68.357  1.00  0.00    -0.346 OA 
HETATM   11  C   UNL     1     -12.225  11.239  70.103  1.00  0.00    -0.410 A  
HETATM   12  C   UNL     1     -12.365  12.490  70.711  1.00  0.00    -0.376 A  
BRANCH  11  13
HETATM   13  C   UNL     1     -12.460   9.984  70.903  1.00  0.00    -0.431 C  
BRANCH  13  14
HETATM   14  C   UNL     1     -11.278   9.035  70.892  1.00  0.00    -0.287 C  
HETATM   15  O   UNL     1     -10.211   9.369  71.404  1.00  0.00    -0.316 OA 
HETATM   16  N   UNL     1     -11.498   7.802  70.300  1.00  0.00    -0.456 N  
HETATM   17  H   UNL     1     -12.394   7.618  69.849  1.00  0.00     0.000 HD 
BRANCH  16  18
HETATM   18  C   UNL     1     -10.464   6.752  70.308  1.00  0.00    -0.207 C  
BRANCH  18  19
HETATM   19  C   UNL     1     -10.037   6.205  68.934  1.00  0.00    -0.211 A  
HETATM   20  C   UNL     1      -8.823   5.473  68.706  1.00  0.00    -0.107 A  
HETATM   21  C   UNL     1      -8.662   4.922  67.404  1.00  0.00    -0.103 A  
HETATM   22  C   UNL     1     -10.988   6.299  67.877  1.00  0.00    -0.421 A  
HETATM   23  C   UNL     1      -9.617   5.022  66.391  1.00  0.00    -0.171 A  
HETATM   24  C   UNL     1     -10.784   5.715  66.626  1.00  0.00    -0.339 A  
BRANCH  20  25
HETATM   25  N   UNL     1      -7.780   5.253  69.612  1.00  0.00    -0.072 NA 
HETATM   26  C   UNL     1      -6.740   6.285  69.827  1.00  0.00    -0.056 C  
HETATM   27  C   UNL     1      -6.515   6.472  71.332  1.00  0.00    -0.050 C  
HETATM   28  C   UNL     1      -6.092   5.160  71.983  1.00  0.00    -0.026 C  
HETATM   29  C   UNL     1      -7.108   4.074  71.682  1.00  0.00    -0.045 C  
HETATM   30  C   UNL     1      -7.424   3.960  70.196  1.00  0.00    -0.045 C  
ENDBRANCH  20  25
ENDBRANCH  18  19
BRANCH  18  31
HETATM   31  C   UNL     1     -10.846   5.565  71.214  1.00  0.00    -0.250 C  
HETATM   32  C   UNL     1      -9.643   6.343  73.360  1.00  0.00    -0.163 C  
HETATM   33  C   UNL     1     -10.949   5.864  72.724  1.00  0.00    -0.303 C  
HETATM   34  C   UNL     1     -11.387   4.585  73.447  1.00  0.00    -0.376 C  
ENDBRANCH  18  31
ENDBRANCH  16  18
ENDBRANCH  13  14
ENDBRANCH  11  13
ENDBRANCH   3   4
ENDBRANCH   2   3
TORSDOF 8
ENDMDL
MODEL       68
REMARK 921   NORMALIZED FREE ENERGY PREDICTED BY IDOCK:   -5.97 KCAL/MOL
REMARK 922        TOTAL FREE ENERGY PREDICTED BY IDOCK:  -11.15 KCAL/MOL
REMARK 923 INTER-LIGAND FREE ENERGY PREDICTED BY IDOCK:   -8.58 KCAL/MOL
REMARK 924 INTRA-LIGAND FREE ENERGY PREDICTED BY IDOCK:   -2.57 KCAL/MOL
REMARK 927      BINDING AFFINITY PREDICTED BY RF-SCORE:    0.00 PKD
ROOT
HETATM    1  C   UNL     1     -10.637   5.387  67.039  1.00  0.00    -0.298 C  
HETATM    2  C   UNL     1     -10.932   6.725  67.679  1.00  0.00    -0.270 C  
ENDROOT
BRANCH   2   3
HETATM    3  O   UNL     1     -10.104   6.882  68.849  1.00  0.00    -0.160 OA 
BRANCH   3   4
HETATM    4  C   UNL     1     -10.602   7.749  69.790  1.00  0.00    -0.241 A  
HETATM    5  C   UNL     1     -11.067   7.234  71.011  1.00  0.00    -0.281 A  
HETATM    6  C   UNL     1     -11.640   8.114  71.948  1.00  0.00    -0.361 A  
HETATM    7  C   UNL     1     -11.028   5.785  71.398  1.00  0.00    -0.237 C  
HETATM    8  C   UNL     1     -11.747   9.477  71.681  1.00  0.00    -0.460 A  
HETATM    9  O   UNL     1     -11.529   5.366  72.435  1.00  0.00    -0.235 OA 
HETATM   10  O   UNL     1     -10.380   4.979  70.540  1.00  0.00    -0.254 OA 
HETATM   11  C   UNL     1     -11.261   9.998  70.478  1.00  0.00    -0.408 A  
HETATM   12  C   UNL     1     -10.656   9.133  69.561  1.00  0.00    -0.233 A  
BRANCH  11  13
HETATM   13  C   UNL     1     -11.379  11.466  70.160  1.00  0.00    -0.207 C  
BRANCH  13  14
HETATM   14  C   UNL     1     -11.333  11.765  68.674  1.00  0.00    -0.270 C  
HETATM   15  O   UNL     1     -12.237  11.377  67.937  1.00  0.00    -0.592 OA 
HETATM   16  N   UNL     1     -10.242  12.499  68.239  1.00  0.00    -0.230 N  
HETATM   17  H   UNL     1      -9.506  12.740  68.902  1.00  0.00     0.000 HD 
BRANCH  16  18
HETATM   18  C   UNL     1     -10.125  12.940  66.838  1.00  0.00    -0.241 C  
BRANCH  18  19
HETATM   19  C   UNL     1      -9.580  11.903  65.840  1.00  0.00    -0.248 A  
HETATM   20  C   UNL     1      -8.455  11.050  66.108  1.00  0.00    -0.168 A  
HETATM   21  C   UNL     1      -8.182  10.054  65.129  1.00  0.00    -0.146 A  
HETATM   22  C   UNL     1     -10.344  11.677  64.659  1.00  0.00    -0.341 A  
HETATM   23  C   UNL     1      -8.955   9.850  63.986  1.00  0.00    -0.276 A  
HETATM   24  C   UNL     1     -10.039  10.666  63.747  1.00  0.00    -0.336 A  
BRANCH  20  25
HETATM   25  N   UNL     1      -7.596  11.097  67.211  1.00  0.00    -0.119 NA 
HETATM   26  C   UNL     1      -6.468  12.056  67.246  1.00  0.00    -0.149 C  
HETATM   27  C   UNL     1      -6.443  12.759  68.607  1.00  0.00    -0.079 C  
HETATM   28  C   UNL     1      -6.302  11.745  69.737  1.00  0.00    -0.125 C  
HETATM   29  C   UNL     1      -7.401  10.703  69.647  1.00  0.00    -0.133 C  
HETATM   30  C   UNL     1      -7.508  10.082  68.260  1.00  0.00    -0.079 C  
ENDBRANCH  20  25
ENDBRANCH  18  19
BRANCH  18  31
HETATM   31  C   UNL     1      -9.302  14.236  66.702  1.00  0.00    -0.302 C  
HETATM   32  C   UNL     1     -10.804  15.445  64.988  1.00  0.00    -0.462 C  
HETATM   33  C   UNL     1     -10.089  15.512  66.339  1.00  0.00    -0.301 C  
HETATM   34  C   UNL     1      -9.115  16.695  66.303  1.00  0.00    -0.333 C  
ENDBRANCH  18  31
ENDBRANCH  16  18
ENDBRANCH  13  14
ENDBRANCH  11  13
ENDBRANCH   3   4
ENDBRANCH   2   3
TORSDOF 8
ENDMDL
MODEL       69
REMARK 921   NORMALIZED FREE ENERGY PREDICTED BY IDOCK:   -5.95 KCAL/MOL
REMARK 922        TOTAL FREE ENERGY PREDICTED BY IDOCK:  -11.13 KCAL/MOL
REMARK 923 INTER-LIGAND FREE ENERGY PREDICTED BY IDOCK:   -8.44 KCAL/MOL
REMARK 924 INTRA-LIGAND FREE ENERGY PREDICTED BY IDOCK:   -2.69 KCAL/MOL
REMARK 927      BINDING AFFINITY PREDICTED BY RF-SCORE:    0.00 PKD
ROOT
HETATM    1  C   UNL     1     -10.205   5.026  66.670  1.00  0.00    -0.299 C  
HETATM    2  C   UNL     1     -10.839   6.383  66.870  1.00  0.00    -0.357 C  
ENDROOT
BRANCH   2   3
HETATM    3  O   UNL     1      -9.852   7.407  66.627  1.00  0.00    -0.209 OA 
BRANCH   3   4
HETATM    4  C   UNL     1      -9.445   8.087  67.748  1.00  0.00    -0.145 A  
HETATM    5  C   UNL     1      -8.083   8.091  68.084  1.00  0.00    -0.129 A  
HETATM    6  C   UNL     1      -7.675   8.730  69.270  1.00  0.00    -0.095 A  
HETATM    7  C   UNL     1      -7.001   7.430  67.280  1.00  0.00    -0.083 C  
HETATM    8  C   UNL     1      -8.599   9.355  70.103  1.00  0.00    -0.233 A  
HETATM    9  O   UNL     1      -5.838   7.379  67.658  1.00  0.00    -0.032 OA 
HETATM   10  O   UNL     1      -7.394   6.922  66.100  1.00  0.00    -0.072 OA 
HETATM   11  C   UNL     1      -9.954   9.377  69.758  1.00  0.00    -0.217 A  
HETATM   12  C   UNL     1     -10.358   8.777  68.562  1.00  0.00    -0.231 A  
BRANCH  11  13
HETATM   13  C   UNL     1     -10.975  10.035  70.651  1.00  0.00    -0.392 C  
BRANCH  13  14
HETATM   14  C   UNL     1     -11.824  11.066  69.934  1.00  0.00    -0.353 C  
HETATM   15  O   UNL     1     -13.028  10.874  69.775  1.00  0.00    -0.121 OA 
HETATM   16  N   UNL     1     -11.160  12.205  69.509  1.00  0.00    -0.458 N  
HETATM   17  H   UNL     1     -10.150  12.269  69.630  1.00  0.00     0.000 HD 
BRANCH  16  18
HETATM   18  C   UNL     1     -11.885  13.327  68.886  1.00  0.00    -0.327 C  
BRANCH  18  19
HETATM   19  C   UNL     1     -11.553  13.618  67.411  1.00  0.00    -0.389 A  
HETATM   20  C   UNL     1     -10.229  13.548  66.861  1.00  0.00    -0.256 A  
HETATM   21  C   UNL     1     -10.130  13.708  65.451  1.00  0.00    -0.291 A  
HETATM   22  C   UNL     1     -12.653  13.805  66.525  1.00  0.00    -0.242 A  
HETATM   23  C   UNL     1     -11.228  13.880  64.606  1.00  0.00    -0.380 A  
HETATM   24  C   UNL     1     -12.495  13.931  65.145  1.00  0.00    -0.479 A  
BRANCH  20  25
HETATM   25  N   UNL     1      -9.028  13.354  67.554  1.00  0.00    -0.196 NA 
HETATM   26  C   UNL     1      -8.405  12.013  67.617  1.00  0.00    -0.160 C  
HETATM   27  C   UNL     1      -6.908  12.135  67.307  1.00  0.00    -0.149 C  
HETATM   28  C   UNL     1      -6.226  13.076  68.294  1.00  0.00    -0.085 C  
HETATM   29  C   UNL     1      -6.926  14.422  68.304  1.00  0.00    -0.113 C  
HETATM   30  C   UNL     1      -8.431  14.301  68.496  1.00  0.00    -0.164 C  
ENDBRANCH  20  25
ENDBRANCH  18  19
BRANCH  18  31
HETATM   31  C   UNL     1     -11.740  14.633  69.692  1.00  0.00    -0.358 C  
HETATM   32  C   UNL     1     -13.329  14.040  71.636  1.00  0.00    -0.442 C  
HETATM   33  C   UNL     1     -11.938  14.521  71.217  1.00  0.00    -0.396 C  
HETATM   34  C   UNL     1     -11.704  15.900  71.844  1.00  0.00    -0.590 C  
ENDBRANCH  18  31
ENDBRANCH  16  18
ENDBRANCH  13  14
ENDBRANCH  11  13
ENDBRANCH   3   4
ENDBRANCH   2   3
TORSDOF 8
ENDMDL
MODEL       70
REMARK 921   NORMALIZED FREE ENERGY PREDICTED BY IDOCK:   -5.94 KCAL/MOL
REMARK 922        TOTAL FREE ENERGY PREDICTED BY IDOCK:  -11.11 KCAL/MOL
REMARK 923 INTER-LIGAND FREE ENERGY PREDICTED BY IDOCK:   -9.08 KCAL/MOL
REMARK 924 INTRA-LIGAND FREE ENERGY PREDICTED BY IDOCK:   -2.03 KCAL/MOL
REMARK 927      BINDING AFFINITY PREDICTED BY RF-SCORE:    0.00 PKD
ROOT
HETATM    1  C   UNL     1      -9.618   4.274  67.189  1.00  0.00    -0.224 C  
HETATM    2  C   UNL     1     -10.372   5.338  67.954  1.00  0.00    -0.125 C  
ENDROOT
BRANCH   2   3
HETATM    3  O   UNL     1      -9.886   5.379  69.311  1.00  0.00    -0.152 OA 
BRANCH   3   4
HETATM    4  C   UNL     1      -9.765   6.640  69.838  1.00  0.00    -0.157 A  
HETATM    5  C   UNL     1     -10.104   6.851  71.184  1.00  0.00    -0.204 A  
HETATM    6  C   UNL     1     -10.045   8.156  71.706  1.00  0.00    -0.267 A  
HETATM    7  C   UNL     1     -10.561   5.778  72.129  1.00  0.00    -0.219 C  
HETATM    8  C   UNL     1      -9.656   9.231  70.910  1.00  0.00    -0.339 A  
HETATM    9  O   UNL     1     -10.936   6.021  73.270  1.00  0.00    -0.257 OA 
HETATM   10  O   UNL     1     -10.505   4.526  71.645  1.00  0.00    -0.134 OA 
HETATM   11  C   UNL     1      -9.291   9.022  69.576  1.00  0.00    -0.160 A  
HETATM   12  C   UNL     1      -9.311   7.721  69.065  1.00  0.00    -0.150 A  
BRANCH  11  13
HETATM   13  C   UNL     1      -8.880  10.171  68.691  1.00  0.00    -0.136 C  
BRANCH  13  14
HETATM   14  C   UNL     1     -10.036  11.075  68.307  1.00  0.00    -0.179 C  
HETATM   15  O   UNL     1     -10.800  10.749  67.400  1.00  0.00    -0.252 OA 
HETATM   16  N   UNL     1     -10.164  12.239  69.046  1.00  0.00    -0.425 N  
HETATM   17  H   UNL     1      -9.459  12.466  69.747  1.00  0.00     0.000 HD 
BRANCH  16  18
HETATM   18  C   UNL     1     -11.299  13.157  68.840  1.00  0.00    -0.289 C  
BRANCH  18  19
HETATM   19  C   UNL     1     -10.945  14.592  68.413  1.00  0.00    -0.260 A  
HETATM   20  C   UNL     1     -11.018  15.065  67.058  1.00  0.00    -0.318 A  
HETATM   21  C   UNL     1     -10.792  16.457  66.871  1.00  0.00    -0.118 A  
HETATM   22  C   UNL     1     -10.690  15.533  69.452  1.00  0.00    -0.251 A  
HETATM   23  C   UNL     1     -10.555  17.357  67.911  1.00  0.00    -0.383 A  
HETATM   24  C   UNL     1     -10.502  16.893  69.208  1.00  0.00    -0.319 A  
BRANCH  20  25
HETATM   25  N   UNL     1     -11.272  14.311  65.907  1.00  0.00    -0.313 NA 
HETATM   26  C   UNL     1     -10.167  13.930  64.998  1.00  0.00    -0.358 C  
HETATM   27  C   UNL     1     -10.290  12.444  64.646  1.00  0.00    -0.332 C  
HETATM   28  C   UNL     1     -11.633  12.153  63.986  1.00  0.00    -0.504 C  
HETATM   29  C   UNL     1     -12.767  12.632  64.873  1.00  0.00    -0.450 C  
HETATM   30  C   UNL     1     -12.592  14.076  65.323  1.00  0.00    -0.470 C  
ENDBRANCH  20  25
ENDBRANCH  18  19
BRANCH  18  31
HETATM   31  C   UNL     1     -12.225  13.222  70.070  1.00  0.00    -0.345 C  
HETATM   32  C   UNL     1     -12.891  10.730  70.156  1.00  0.00    -0.148 C  
HETATM   33  C   UNL     1     -12.331  11.936  70.915  1.00  0.00    -0.400 C  
HETATM   34  C   UNL     1     -13.248  12.210  72.112  1.00  0.00    -0.438 C  
ENDBRANCH  18  31
ENDBRANCH  16  18
ENDBRANCH  13  14
ENDBRANCH  11  13
ENDBRANCH   3   4
ENDBRANCH   2   3
TORSDOF 8
ENDMDL
MODEL       71
REMARK 921   NORMALIZED FREE ENERGY PREDICTED BY IDOCK:   -5.93 KCAL/MOL
REMARK 922        TOTAL FREE ENERGY PREDICTED BY IDOCK:  -11.09 KCAL/MOL
REMARK 923 INTER-LIGAND FREE ENERGY PREDICTED BY IDOCK:   -9.24 KCAL/MOL
REMARK 924 INTRA-LIGAND FREE ENERGY PREDICTED BY IDOCK:   -1.85 KCAL/MOL
REMARK 927      BINDING AFFINITY PREDICTED BY RF-SCORE:    0.00 PKD
ROOT
HETATM    1  C   UNL     1      -7.966   3.763  73.297  1.00  0.00    -0.083 C  
HETATM    2  C   UNL     1      -9.385   4.284  73.243  1.00  0.00    -0.112 C  
ENDROOT
BRANCH   2   3
HETATM    3  O   UNL     1     -10.004   3.841  72.018  1.00  0.00    -0.168 OA 
BRANCH   3   4
HETATM    4  C   UNL     1     -10.409   4.853  71.183  1.00  0.00    -0.152 A  
HETATM    5  C   UNL     1     -10.111   4.766  69.814  1.00  0.00    -0.289 A  
HETATM    6  C   UNL     1     -10.465   5.835  68.970  1.00  0.00    -0.336 A  
HETATM    7  C   UNL     1      -9.404   3.613  69.164  1.00  0.00    -0.174 C  
HETATM    8  C   UNL     1     -11.104   6.966  69.473  1.00  0.00    -0.270 A  
HETATM    9  O   UNL     1      -9.082   3.619  67.983  1.00  0.00    -0.125 OA 
HETATM   10  O   UNL     1      -9.174   2.558  69.964  1.00  0.00    -0.106 OA 
HETATM   11  C   UNL     1     -11.427   7.045  70.831  1.00  0.00    -0.349 A  
HETATM   12  C   UNL     1     -11.111   5.969  71.666  1.00  0.00    -0.333 A  
BRANCH  11  13
HETATM   13  C   UNL     1     -12.105   8.265  71.401  1.00  0.00    -0.331 C  
BRANCH  13  14
HETATM   14  C   UNL     1     -11.415   9.563  71.030  1.00  0.00    -0.349 C  
HETATM   15  O   UNL     1     -10.198   9.678  71.166  1.00  0.00    -0.272 OA 
HETATM   16  N   UNL     1     -12.233  10.560  70.526  1.00  0.00    -0.318 N  
HETATM   17  H   UNL     1     -13.241  10.409  70.493  1.00  0.00     0.000 HD 
BRANCH  16  18
HETATM   18  C   UNL     1     -11.677  11.835  70.037  1.00  0.00    -0.305 C  
BRANCH  18  19
HETATM   19  C   UNL     1     -12.244  13.115  70.676  1.00  0.00    -0.402 A  
HETATM   20  C   UNL     1     -11.939  14.441  70.217  1.00  0.00    -0.321 A  
HETATM   21  C   UNL     1     -12.664  15.497  70.835  1.00  0.00    -0.525 A  
HETATM   22  C   UNL     1     -13.251  12.950  71.671  1.00  0.00    -0.416 A  
HETATM   23  C   UNL     1     -13.654  15.304  71.801  1.00  0.00    -0.581 A  
HETATM   24  C   UNL     1     -13.947  14.026  72.223  1.00  0.00    -0.651 A  
BRANCH  20  25
HETATM   25  N   UNL     1     -11.003  14.810  69.244  1.00  0.00    -0.253 NA 
HETATM   26  C   UNL     1      -9.579  14.997  69.603  1.00  0.00    -0.034 C  
HETATM   27  C   UNL     1      -8.699  14.276  68.576  1.00  0.00    -0.175 C  
HETATM   28  C   UNL     1      -8.959  14.809  67.172  1.00  0.00    -0.239 C  
HETATM   29  C   UNL     1     -10.435  14.709  66.838  1.00  0.00    -0.270 C  
HETATM   30  C   UNL     1     -11.324  15.322  67.912  1.00  0.00    -0.334 C  
ENDBRANCH  20  25
ENDBRANCH  18  19
BRANCH  18  31
HETATM   31  C   UNL     1     -11.776  11.962  68.504  1.00  0.00    -0.388 C  
HETATM   32  C   UNL     1      -9.501  10.903  67.904  1.00  0.00    -0.166 C  
HETATM   33  C   UNL     1     -11.015  10.904  67.679  1.00  0.00    -0.350 C  
HETATM   34  C   UNL     1     -11.274  11.164  66.191  1.00  0.00    -0.059 C  
ENDBRANCH  18  31
ENDBRANCH  16  18
ENDBRANCH  13  14
ENDBRANCH  11  13
ENDBRANCH   3   4
ENDBRANCH   2   3
TORSDOF 8
ENDMDL
MODEL       72
REMARK 921   NORMALIZED FREE ENERGY PREDICTED BY IDOCK:   -5.92 KCAL/MOL
REMARK 922        TOTAL FREE ENERGY PREDICTED BY IDOCK:  -11.09 KCAL/MOL
REMARK 923 INTER-LIGAND FREE ENERGY PREDICTED BY IDOCK:   -9.48 KCAL/MOL
REMARK 924 INTRA-LIGAND FREE ENERGY PREDICTED BY IDOCK:   -1.61 KCAL/MOL
REMARK 927      BINDING AFFINITY PREDICTED BY RF-SCORE:    0.00 PKD
ROOT
HETATM    1  C   UNL     1      -9.630  11.466  63.009  1.00  0.00    -0.397 C  
HETATM    2  C   UNL     1     -10.367  11.237  64.309  1.00  0.00    -0.340 C  
ENDROOT
BRANCH   2   3
HETATM    3  O   UNL     1      -9.983   9.956  64.851  1.00  0.00    -0.306 OA 
BRANCH   3   4
HETATM    4  C   UNL     1     -10.156   9.833  66.207  1.00  0.00    -0.243 A  
HETATM    5  C   UNL     1      -9.572   8.744  66.872  1.00  0.00    -0.249 A  
HETATM    6  C   UNL     1      -9.805   8.581  68.250  1.00  0.00    -0.190 A  
HETATM    7  C   UNL     1      -8.721   7.697  66.214  1.00  0.00    -0.152 C  
HETATM    8  C   UNL     1     -10.599   9.482  68.955  1.00  0.00    -0.239 A  
HETATM    9  O   UNL     1      -8.308   6.712  66.813  1.00  0.00    -0.112 OA 
HETATM   10  O   UNL     1      -8.420   7.929  64.925  1.00  0.00    -0.127 OA 
HETATM   11  C   UNL     1     -11.161  10.584  68.302  1.00  0.00    -0.340 A  
HETATM   12  C   UNL     1     -10.899  10.771  66.942  1.00  0.00    -0.288 A  
BRANCH  11  13
HETATM   13  C   UNL     1     -12.035  11.564  69.041  1.00  0.00    -0.377 C  
BRANCH  13  14
HETATM   14  C   UNL     1     -11.699  13.012  68.742  1.00  0.00    -0.324 C  
HETATM   15  O   UNL     1     -12.189  13.571  67.761  1.00  0.00    -0.311 OA 
HETATM   16  N   UNL     1     -10.847  13.633  69.639  1.00  0.00    -0.446 N  
HETATM   17  H   UNL     1     -10.439  13.089  70.399  1.00  0.00     0.000 HD 
BRANCH  16  18
HETATM   18  C   UNL     1     -10.518  15.065  69.519  1.00  0.00    -0.235 C  
BRANCH  18  19
HETATM   19  C   UNL     1      -9.086  15.398  69.063  1.00  0.00    -0.233 A  
HETATM   20  C   UNL     1      -8.724  16.612  68.386  1.00  0.00    -0.225 A  
HETATM   21  C   UNL     1      -7.333  16.814  68.169  1.00  0.00    -0.174 A  
HETATM   22  C   UNL     1      -8.050  14.518  69.489  1.00  0.00     0.185 A  
HETATM   23  C   UNL     1      -6.339  15.938  68.607  1.00  0.00    -0.112 A  
HETATM   24  C   UNL     1      -6.698  14.783  69.268  1.00  0.00    -0.137 A  
BRANCH  20  25
HETATM   25  N   UNL     1      -9.583  17.608  67.907  1.00  0.00    -0.275 NA 
HETATM   26  C   UNL     1      -9.923  18.777  68.750  1.00  0.00    -0.391 C  
HETATM   27  C   UNL     1      -9.788  20.057  67.918  1.00  0.00    -0.538 C  
HETATM   28  C   UNL     1     -10.701  20.008  66.698  1.00  0.00    -0.364 C  
HETATM   29  C   UNL     1     -10.422  18.759  65.884  1.00  0.00    -0.424 C  
HETATM   30  C   UNL     1     -10.440  17.491  66.727  1.00  0.00    -0.270 C  
ENDBRANCH  20  25
ENDBRANCH  18  19
BRANCH  18  31
HETATM   31  C   UNL     1     -10.817  15.842  70.816  1.00  0.00    -0.229 C  
HETATM   32  C   UNL     1     -13.343  15.338  70.968  1.00  0.00    -0.537 C  
HETATM   33  C   UNL     1     -11.985  15.316  71.675  1.00  0.00    -0.437 C  
HETATM   34  C   UNL     1     -12.093  16.178  72.937  1.00  0.00    -0.643 C  
ENDBRANCH  18  31
ENDBRANCH  16  18
ENDBRANCH  13  14
ENDBRANCH  11  13
ENDBRANCH   3   4
ENDBRANCH   2   3
TORSDOF 8
ENDMDL
MODEL       73
REMARK 921   NORMALIZED FREE ENERGY PREDICTED BY IDOCK:   -5.92 KCAL/MOL
REMARK 922        TOTAL FREE ENERGY PREDICTED BY IDOCK:  -11.08 KCAL/MOL
REMARK 923 INTER-LIGAND FREE ENERGY PREDICTED BY IDOCK:  -10.55 KCAL/MOL
REMARK 924 INTRA-LIGAND FREE ENERGY PREDICTED BY IDOCK:   -0.53 KCAL/MOL
REMARK 927      BINDING AFFINITY PREDICTED BY RF-SCORE:    0.00 PKD
ROOT
HETATM    1  C   UNL     1      -8.130  18.296  66.510  1.00  0.00    -0.293 C  
HETATM    2  C   UNL     1      -9.516  17.823  66.888  1.00  0.00    -0.271 C  
ENDROOT
BRANCH   2   3
HETATM    3  O   UNL     1     -10.055  17.030  65.810  1.00  0.00    -0.516 OA 
BRANCH   3   4
HETATM    4  C   UNL     1      -9.980  15.673  66.006  1.00  0.00    -0.333 A  
HETATM    5  C   UNL     1     -10.835  14.832  65.276  1.00  0.00    -0.395 A  
HETATM    6  C   UNL     1     -10.806  13.448  65.526  1.00  0.00    -0.299 A  
HETATM    7  C   UNL     1     -11.821  15.301  64.246  1.00  0.00    -0.225 C  
HETATM    8  C   UNL     1      -9.945  12.908  66.479  1.00  0.00    -0.259 A  
HETATM    9  O   UNL     1     -12.612  14.543  63.700  1.00  0.00    -0.798 OA 
HETATM   10  O   UNL     1     -11.756  16.608  63.944  1.00  0.00    -1.153 OA 
HETATM   11  C   UNL     1      -9.072  13.739  67.189  1.00  0.00    -0.243 A  
HETATM   12  C   UNL     1      -9.071  15.110  66.915  1.00  0.00    -0.270 A  
BRANCH  11  13
HETATM   13  C   UNL     1      -8.142  13.180  68.234  1.00  0.00    -0.152 C  
BRANCH  13  14
HETATM   14  C   UNL     1      -8.210  11.669  68.352  1.00  0.00    -0.155 C  
HETATM   15  O   UNL     1      -7.286  10.974  67.933  1.00  0.00    -0.088 OA 
HETATM   16  N   UNL     1      -9.344  11.162  68.964  1.00  0.00    -0.386 N  
HETATM   17  H   UNL     1     -10.092  11.799  69.237  1.00  0.00     0.000 HD 
BRANCH  16  18
HETATM   18  C   UNL     1      -9.491   9.719  69.229  1.00  0.00    -0.194 C  
BRANCH  18  19
HETATM   19  C   UNL     1      -9.105   9.242  70.640  1.00  0.00    -0.309 A  
HETATM   20  C   UNL     1     -10.041   8.706  71.588  1.00  0.00    -0.294 A  
HETATM   21  C   UNL     1      -9.483   8.184  72.788  1.00  0.00    -0.349 A  
HETATM   22  C   UNL     1      -7.714   9.187  70.946  1.00  0.00    -0.152 A  
HETATM   23  C   UNL     1      -8.114   8.133  73.056  1.00  0.00    -0.230 A  
HETATM   24  C   UNL     1      -7.225   8.639  72.132  1.00  0.00    -0.058 A  
BRANCH  20  25
HETATM   25  N   UNL     1     -11.434   8.651  71.469  1.00  0.00    -0.274 NA 
HETATM   26  C   UNL     1     -12.095   7.442  70.927  1.00  0.00    -0.257 C  
HETATM   27  C   UNL     1     -13.274   7.062  71.829  1.00  0.00    -0.326 C  
HETATM   28  C   UNL     1     -14.275   8.208  71.923  1.00  0.00    -0.530 C  
HETATM   29  C   UNL     1     -13.580   9.474  72.386  1.00  0.00    -0.459 C  
HETATM   30  C   UNL     1     -12.338   9.796  71.565  1.00  0.00    -0.405 C  
ENDBRANCH  20  25
ENDBRANCH  18  19
BRANCH  18  31
HETATM   31  C   UNL     1      -8.741   8.857  68.193  1.00  0.00    -0.134 C  
HETATM   32  C   UNL     1     -10.749   7.476  67.347  1.00  0.00    -0.331 C  
HETATM   33  C   UNL     1      -9.564   8.373  66.982  1.00  0.00    -0.248 C  
HETATM   34  C   UNL     1      -8.641   7.584  66.047  1.00  0.00    -0.164 C  
ENDBRANCH  18  31
ENDBRANCH  16  18
ENDBRANCH  13  14
ENDBRANCH  11  13
ENDBRANCH   3   4
ENDBRANCH   2   3
TORSDOF 8
ENDMDL
MODEL       74
REMARK 921   NORMALIZED FREE ENERGY PREDICTED BY IDOCK:   -5.90 KCAL/MOL
REMARK 922        TOTAL FREE ENERGY PREDICTED BY IDOCK:  -11.05 KCAL/MOL
REMARK 923 INTER-LIGAND FREE ENERGY PREDICTED BY IDOCK:   -9.26 KCAL/MOL
REMARK 924 INTRA-LIGAND FREE ENERGY PREDICTED BY IDOCK:   -1.79 KCAL/MOL
REMARK 927      BINDING AFFINITY PREDICTED BY RF-SCORE:    0.00 PKD
ROOT
HETATM    1  C   UNL     1     -10.036   4.638  66.928  1.00  0.00    -0.239 C  
HETATM    2  C   UNL     1     -10.533   5.825  67.723  1.00  0.00    -0.226 C  
ENDROOT
BRANCH   2   3
HETATM    3  O   UNL     1      -9.938   5.796  69.037  1.00  0.00    -0.146 OA 
BRANCH   3   4
HETATM    4  C   UNL     1      -9.988   6.989  69.714  1.00  0.00    -0.173 A  
HETATM    5  C   UNL     1     -10.454   7.002  71.038  1.00  0.00    -0.231 A  
HETATM    6  C   UNL     1     -10.570   8.233  71.708  1.00  0.00    -0.325 A  
HETATM    7  C   UNL     1     -10.876   5.784  71.807  1.00  0.00    -0.252 C  
HETATM    8  C   UNL     1     -10.228   9.428  71.079  1.00  0.00    -0.369 A  
HETATM    9  O   UNL     1     -11.365   5.851  72.929  1.00  0.00    -0.272 OA 
HETATM   10  O   UNL     1     -10.656   4.612  71.190  1.00  0.00    -0.065 OA 
HETATM   11  C   UNL     1      -9.737   9.418  69.770  1.00  0.00    -0.215 A  
HETATM   12  C   UNL     1      -9.584   8.193  69.114  1.00  0.00    -0.157 A  
BRANCH  11  13
HETATM   13  C   UNL     1      -9.374  10.699  69.064  1.00  0.00    -0.191 C  
BRANCH  13  14
HETATM   14  C   UNL     1     -10.580  11.477  68.574  1.00  0.00    -0.210 C  
HETATM   15  O   UNL     1     -11.497  10.896  67.996  1.00  0.00    -0.374 OA 
HETATM   16  N   UNL     1     -10.571  12.836  68.838  1.00  0.00    -0.401 N  
HETATM   17  H   UNL     1      -9.749  13.254  69.274  1.00  0.00     0.000 HD 
BRANCH  16  18
HETATM   18  C   UNL     1     -11.724  13.690  68.502  1.00  0.00    -0.357 C  
BRANCH  18  19
HETATM   19  C   UNL     1     -11.815  14.168  67.042  1.00  0.00    -0.458 A  
HETATM   20  C   UNL     1     -10.893  15.092  66.443  1.00  0.00    -0.326 A  
HETATM   21  C   UNL     1     -11.047  15.309  65.046  1.00  0.00    -0.436 A  
HETATM   22  C   UNL     1     -12.776  13.524  66.209  1.00  0.00    -0.157 A  
HETATM   23  C   UNL     1     -11.991  14.655  64.253  1.00  0.00    -0.406 A  
HETATM   24  C   UNL     1     -12.861  13.760  64.837  1.00  0.00    -0.242 A  
BRANCH  20  25
HETATM   25  N   UNL     1      -9.874  15.809  67.080  1.00  0.00    -0.231 NA 
HETATM   26  C   UNL     1      -9.888  17.289  67.089  1.00  0.00    -0.269 C  
HETATM   27  C   UNL     1      -9.599  17.791  68.508  1.00  0.00    -0.322 C  
HETATM   28  C   UNL     1      -8.250  17.278  68.999  1.00  0.00    -0.096 C  
HETATM   29  C   UNL     1      -8.197  15.765  68.899  1.00  0.00    -0.210 C  
HETATM   30  C   UNL     1      -8.595  15.252  67.522  1.00  0.00    -0.177 C  
ENDBRANCH  20  25
ENDBRANCH  18  19
BRANCH  18  31
HETATM   31  C   UNL     1     -11.831  14.916  69.431  1.00  0.00    -0.356 C  
HETATM   32  C   UNL     1     -13.013  13.767  71.416  1.00  0.00    -0.433 C  
HETATM   33  C   UNL     1     -11.838  14.627  70.946  1.00  0.00    -0.372 C  
HETATM   34  C   UNL     1     -11.896  15.961  71.698  1.00  0.00    -0.565 C  
ENDBRANCH  18  31
ENDBRANCH  16  18
ENDBRANCH  13  14
ENDBRANCH  11  13
ENDBRANCH   3   4
ENDBRANCH   2   3
TORSDOF 8
ENDMDL
MODEL       75
REMARK 921   NORMALIZED FREE ENERGY PREDICTED BY IDOCK:   -5.89 KCAL/MOL
REMARK 922        TOTAL FREE ENERGY PREDICTED BY IDOCK:  -11.04 KCAL/MOL
REMARK 923 INTER-LIGAND FREE ENERGY PREDICTED BY IDOCK:   -8.99 KCAL/MOL
REMARK 924 INTRA-LIGAND FREE ENERGY PREDICTED BY IDOCK:   -2.05 KCAL/MOL
REMARK 927      BINDING AFFINITY PREDICTED BY RF-SCORE:    0.00 PKD
ROOT
HETATM    1  C   UNL     1      -8.731   9.132  63.600  1.00  0.00    -0.148 C  
HETATM    2  C   UNL     1      -8.992   9.146  65.089  1.00  0.00    -0.189 C  
ENDROOT
BRANCH   2   3
HETATM    3  O   UNL     1      -8.360   7.997  65.690  1.00  0.00    -0.127 OA 
BRANCH   3   4
HETATM    4  C   UNL     1      -9.093   7.394  66.682  1.00  0.00    -0.154 A  
HETATM    5  C   UNL     1      -9.462   6.048  66.532  1.00  0.00    -0.177 A  
HETATM    6  C   UNL     1     -10.271   5.450  67.515  1.00  0.00    -0.243 A  
HETATM    7  C   UNL     1      -9.082   5.181  65.367  1.00  0.00    -0.140 C  
HETATM    8  C   UNL     1     -10.702   6.170  68.627  1.00  0.00    -0.370 A  
HETATM    9  O   UNL     1      -9.503   4.040  65.230  1.00  0.00    -0.150 OA 
HETATM   10  O   UNL     1      -8.222   5.737  64.497  1.00  0.00    -0.132 OA 
HETATM   11  C   UNL     1     -10.313   7.503  68.794  1.00  0.00    -0.212 A  
HETATM   12  C   UNL     1      -9.478   8.090  67.839  1.00  0.00    -0.161 A  
BRANCH  11  13
HETATM   13  C   UNL     1     -10.778   8.307  69.981  1.00  0.00    -0.239 C  
BRANCH  13  14
HETATM   14  C   UNL     1     -10.480   9.788  69.857  1.00  0.00    -0.261 C  
HETATM   15  O   UNL     1      -9.320  10.193  69.918  1.00  0.00    -0.199 OA 
HETATM   16  N   UNL     1     -11.576  10.611  69.656  1.00  0.00    -0.275 N  
HETATM   17  H   UNL     1     -12.512  10.207  69.670  1.00  0.00     0.000 HD 
BRANCH  16  18
HETATM   18  C   UNL     1     -11.416  12.057  69.422  1.00  0.00    -0.296 C  
BRANCH  18  19
HETATM   19  C   UNL     1     -12.090  12.991  70.443  1.00  0.00    -0.391 A  
HETATM   20  C   UNL     1     -12.003  14.424  70.396  1.00  0.00    -0.325 A  
HETATM   21  C   UNL     1     -12.806  15.128  71.336  1.00  0.00    -0.457 A  
HETATM   22  C   UNL     1     -12.977  12.390  71.382  1.00  0.00    -0.348 A  
HETATM   23  C   UNL     1     -13.674  14.512  72.238  1.00  0.00    -0.559 A  
HETATM   24  C   UNL     1     -13.759  13.137  72.263  1.00  0.00    -0.647 A  
BRANCH  20  25
HETATM   25  N   UNL     1     -11.211  15.200  69.543  1.00  0.00    -0.256 NA 
HETATM   26  C   UNL     1      -9.793  15.471  69.872  1.00  0.00    -0.198 C  
HETATM   27  C   UNL     1      -8.929  15.230  68.629  1.00  0.00    -0.193 C  
HETATM   28  C   UNL     1      -9.379  16.121  67.476  1.00  0.00    -0.217 C  
HETATM   29  C   UNL     1     -10.856  15.917  67.201  1.00  0.00    -0.267 C  
HETATM   30  C   UNL     1     -11.711  16.041  68.455  1.00  0.00    -0.241 C  
ENDBRANCH  20  25
ENDBRANCH  18  19
BRANCH  18  31
HETATM   31  C   UNL     1     -11.862  12.470  68.005  1.00  0.00    -0.382 C  
HETATM   32  C   UNL     1      -9.578  12.255  66.826  1.00  0.00    -0.220 C  
HETATM   33  C   UNL     1     -11.059  11.871  66.833  1.00  0.00    -0.356 C  
HETATM   34  C   UNL     1     -11.680  12.352  65.517  1.00  0.00    -0.459 C  
ENDBRANCH  18  31
ENDBRANCH  16  18
ENDBRANCH  13  14
ENDBRANCH  11  13
ENDBRANCH   3   4
ENDBRANCH   2   3
TORSDOF 8
ENDMDL
MODEL       76
REMARK 921   NORMALIZED FREE ENERGY PREDICTED BY IDOCK:   -5.88 KCAL/MOL
REMARK 922        TOTAL FREE ENERGY PREDICTED BY IDOCK:  -11.03 KCAL/MOL
REMARK 923 INTER-LIGAND FREE ENERGY PREDICTED BY IDOCK:   -7.90 KCAL/MOL
REMARK 924 INTRA-LIGAND FREE ENERGY PREDICTED BY IDOCK:   -3.13 KCAL/MOL
REMARK 927      BINDING AFFINITY PREDICTED BY RF-SCORE:    0.00 PKD
ROOT
HETATM    1  C   UNL     1      -8.986   9.813  63.208  1.00  0.00    -0.274 C  
HETATM    2  C   UNL     1      -7.592  10.003  63.763  1.00  0.00    -0.141 C  
ENDROOT
BRANCH   2   3
HETATM    3  O   UNL     1      -7.452   9.221  64.967  1.00  0.00    -0.102 OA 
BRANCH   3   4
HETATM    4  C   UNL     1      -7.559   9.940  66.132  1.00  0.00    -0.104 A  
HETATM    5  C   UNL     1      -8.268   9.387  67.210  1.00  0.00    -0.117 A  
HETATM    6  C   UNL     1      -8.436  10.152  68.379  1.00  0.00    -0.118 A  
HETATM    7  C   UNL     1      -8.902   8.027  67.209  1.00  0.00    -0.131 C  
HETATM    8  C   UNL     1      -7.907  11.437  68.478  1.00  0.00    -0.140 A  
HETATM    9  O   UNL     1      -9.591   7.622  68.136  1.00  0.00    -0.146 OA 
HETATM   10  O   UNL     1      -8.639   7.273  66.129  1.00  0.00    -0.137 OA 
HETATM   11  C   UNL     1      -7.176  11.981  67.417  1.00  0.00    -0.144 A  
HETATM   12  C   UNL     1      -6.975  11.209  66.269  1.00  0.00    -0.052 A  
BRANCH  11  13
HETATM   13  C   UNL     1      -6.608  13.374  67.496  1.00  0.00    -0.143 C  
BRANCH  13  14
HETATM   14  C   UNL     1      -7.492  14.341  68.260  1.00  0.00    -0.125 C  
HETATM   15  O   UNL     1      -7.172  14.714  69.387  1.00  0.00    -0.148 OA 
HETATM   16  N   UNL     1      -8.633  14.766  67.600  1.00  0.00    -0.164 N  
HETATM   17  H   UNL     1      -8.859  14.371  66.687  1.00  0.00     0.000 HD 
BRANCH  16  18
HETATM   18  C   UNL     1      -9.527  15.779  68.189  1.00  0.00    -0.199 C  
BRANCH  18  19
HETATM   19  C   UNL     1     -10.692  15.246  69.042  1.00  0.00    -0.244 A  
HETATM   20  C   UNL     1     -11.571  14.189  68.624  1.00  0.00    -0.317 A  
HETATM   21  C   UNL     1     -12.500  13.730  69.598  1.00  0.00    -0.176 A  
HETATM   22  C   UNL     1     -10.788  15.726  70.380  1.00  0.00    -0.345 A  
HETATM   23  C   UNL     1     -12.564  14.212  70.906  1.00  0.00    -0.433 A  
HETATM   24  C   UNL     1     -11.705  15.217  71.299  1.00  0.00    -0.409 A  
BRANCH  20  25
HETATM   25  N   UNL     1     -11.624  13.573  67.368  1.00  0.00    -0.335 NA 
HETATM   26  C   UNL     1     -12.424  14.166  66.273  1.00  0.00    -0.362 C  
HETATM   27  C   UNL     1     -11.589  14.186  64.988  1.00  0.00    -0.362 C  
HETATM   28  C   UNL     1     -11.146  12.777  64.609  1.00  0.00    -0.349 C  
HETATM   29  C   UNL     1     -10.410  12.130  65.767  1.00  0.00    -0.289 C  
HETATM   30  C   UNL     1     -11.185  12.209  67.075  1.00  0.00    -0.314 C  
ENDBRANCH  20  25
ENDBRANCH  18  19
BRANCH  18  31
HETATM   31  C   UNL     1     -10.092  16.745  67.129  1.00  0.00    -0.282 C  
HETATM   32  C   UNL     1     -10.127  18.886  68.568  1.00  0.00    -0.460 C  
HETATM   33  C   UNL     1      -9.680  18.225  67.262  1.00  0.00    -0.301 C  
HETATM   34  C   UNL     1     -10.292  19.011  66.098  1.00  0.00    -0.537 C  
ENDBRANCH  18  31
ENDBRANCH  16  18
ENDBRANCH  13  14
ENDBRANCH  11  13
ENDBRANCH   3   4
ENDBRANCH   2   3
TORSDOF 8
ENDMDL
MODEL       77
REMARK 921   NORMALIZED FREE ENERGY PREDICTED BY IDOCK:   -5.88 KCAL/MOL
REMARK 922        TOTAL FREE ENERGY PREDICTED BY IDOCK:  -11.03 KCAL/MOL
REMARK 923 INTER-LIGAND FREE ENERGY PREDICTED BY IDOCK:   -8.58 KCAL/MOL
REMARK 924 INTRA-LIGAND FREE ENERGY PREDICTED BY IDOCK:   -2.45 KCAL/MOL
REMARK 927      BINDING AFFINITY PREDICTED BY RF-SCORE:    0.00 PKD
ROOT
HETATM    1  C   UNL     1     -12.088  10.786  70.359  1.00  0.00    -0.443 C  
HETATM    2  C   UNL     1     -10.747  10.097  70.253  1.00  0.00    -0.293 C  
ENDROOT
BRANCH   2   3
HETATM    3  O   UNL     1     -10.903   8.870  69.510  1.00  0.00    -0.225 OA 
BRANCH   3   4
HETATM    4  C   UNL     1     -10.228   8.834  68.316  1.00  0.00    -0.201 A  
HETATM    5  C   UNL     1     -10.170   7.627  67.602  1.00  0.00    -0.277 A  
HETATM    6  C   UNL     1      -9.421   7.572  66.413  1.00  0.00    -0.208 A  
HETATM    7  C   UNL     1     -10.834   6.350  68.028  1.00  0.00    -0.316 C  
HETATM    8  C   UNL     1      -8.745   8.694  65.938  1.00  0.00    -0.201 A  
HETATM    9  O   UNL     1     -10.682   5.295  67.424  1.00  0.00    -0.163 OA 
HETATM   10  O   UNL     1     -11.632   6.450  69.104  1.00  0.00    -0.318 OA 
HETATM   11  C   UNL     1      -8.822   9.906  66.631  1.00  0.00    -0.149 A  
HETATM   12  C   UNL     1      -9.597   9.974  67.792  1.00  0.00    -0.168 A  
BRANCH  11  13
HETATM   13  C   UNL     1      -8.088  11.129  66.145  1.00  0.00    -0.111 C  
BRANCH  13  14
HETATM   14  C   UNL     1      -8.164  12.298  67.109  1.00  0.00    -0.179 C  
HETATM   15  O   UNL     1      -7.654  12.213  68.225  1.00  0.00    -0.115 OA 
HETATM   16  N   UNL     1      -8.810  13.428  66.638  1.00  0.00    -0.434 N  
HETATM   17  H   UNL     1      -9.254  13.404  65.720  1.00  0.00     0.000 HD 
BRANCH  16  18
HETATM   18  C   UNL     1      -8.869  14.666  67.436  1.00  0.00    -0.195 C  
BRANCH  18  19
HETATM   19  C   UNL     1     -10.102  14.834  68.342  1.00  0.00    -0.225 A  
HETATM   20  C   UNL     1     -11.414  14.357  68.005  1.00  0.00    -0.310 A  
HETATM   21  C   UNL     1     -12.400  14.473  69.023  1.00  0.00    -0.122 A  
HETATM   22  C   UNL     1      -9.877  15.349  69.652  1.00  0.00    -0.263 A  
HETATM   23  C   UNL     1     -12.148  14.972  70.301  1.00  0.00    -0.378 A  
HETATM   24  C   UNL     1     -10.882  15.414  70.617  1.00  0.00    -0.318 A  
BRANCH  20  25
HETATM   25  N   UNL     1     -11.831  13.804  66.788  1.00  0.00    -0.395 NA 
HETATM   26  C   UNL     1     -12.446  14.658  65.747  1.00  0.00    -0.083 C  
HETATM   27  C   UNL     1     -11.807  14.342  64.390  1.00  0.00    -0.433 C  
HETATM   28  C   UNL     1     -11.988  12.871  64.035  1.00  0.00    -0.521 C  
HETATM   29  C   UNL     1     -11.446  11.993  65.147  1.00  0.00    -0.344 C  
HETATM   30  C   UNL     1     -11.990  12.376  66.517  1.00  0.00    -0.252 C  
ENDBRANCH  20  25
ENDBRANCH  18  19
BRANCH  18  31
HETATM   31  C   UNL     1      -8.720  15.929  66.564  1.00  0.00    -0.350 C  
HETATM   32  C   UNL     1      -7.293  17.330  68.193  1.00  0.00    -0.199 C  
HETATM   33  C   UNL     1      -7.441  16.762  66.780  1.00  0.00    -0.279 C  
HETATM   34  C   UNL     1      -7.449  17.937  65.795  1.00  0.00    -0.105 C  
ENDBRANCH  18  31
ENDBRANCH  16  18
ENDBRANCH  13  14
ENDBRANCH  11  13
ENDBRANCH   3   4
ENDBRANCH   2   3
TORSDOF 8
ENDMDL
MODEL       78
REMARK 921   NORMALIZED FREE ENERGY PREDICTED BY IDOCK:   -5.88 KCAL/MOL
REMARK 922        TOTAL FREE ENERGY PREDICTED BY IDOCK:  -11.02 KCAL/MOL
REMARK 923 INTER-LIGAND FREE ENERGY PREDICTED BY IDOCK:   -8.66 KCAL/MOL
REMARK 924 INTRA-LIGAND FREE ENERGY PREDICTED BY IDOCK:   -2.36 KCAL/MOL
REMARK 927      BINDING AFFINITY PREDICTED BY RF-SCORE:    0.00 PKD
ROOT
HETATM    1  C   UNL     1     -11.301  16.314  68.878  1.00  0.00    -0.317 C  
HETATM    2  C   UNL     1      -9.968  15.668  68.576  1.00  0.00    -0.211 C  
ENDROOT
BRANCH   2   3
HETATM    3  O   UNL     1      -9.813  15.547  67.147  1.00  0.00    -0.231 OA 
BRANCH   3   4
HETATM    4  C   UNL     1     -10.535  14.528  66.578  1.00  0.00    -0.285 A  
HETATM    5  C   UNL     1     -11.297  14.792  65.429  1.00  0.00    -0.356 A  
HETATM    6  C   UNL     1     -12.090  13.765  64.886  1.00  0.00    -0.428 A  
HETATM    7  C   UNL     1     -11.359  16.119  64.731  1.00  0.00    -0.249 C  
HETATM    8  C   UNL     1     -12.125  12.500  65.468  1.00  0.00    -0.481 A  
HETATM    9  O   UNL     1     -12.108  16.332  63.786  1.00  0.00    -0.959 OA 
HETATM   10  O   UNL     1     -10.513  17.053  65.198  1.00  0.00    -0.667 OA 
HETATM   11  C   UNL     1     -11.347  12.224  66.597  1.00  0.00    -0.398 A  
HETATM   12  C   UNL     1     -10.528  13.231  67.117  1.00  0.00    -0.248 A  
BRANCH  11  13
HETATM   13  C   UNL     1     -11.380  10.868  67.253  1.00  0.00    -0.230 C  
BRANCH  13  14
HETATM   14  C   UNL     1     -10.262   9.952  66.793  1.00  0.00    -0.236 C  
HETATM   15  O   UNL     1      -9.780  10.081  65.669  1.00  0.00    -0.230 OA 
HETATM   16  N   UNL     1      -9.834   9.011  67.715  1.00  0.00    -0.160 N  
HETATM   17  H   UNL     1     -10.319   8.930  68.608  1.00  0.00     0.000 HD 
BRANCH  16  18
HETATM   18  C   UNL     1      -8.691   8.125  67.431  1.00  0.00    -0.124 C  
BRANCH  18  19
HETATM   19  C   UNL     1      -8.871   6.642  67.802  1.00  0.00    -0.114 A  
HETATM   20  C   UNL     1      -9.517   6.190  69.002  1.00  0.00    -0.127 A  
HETATM   21  C   UNL     1      -9.720   4.786  69.110  1.00  0.00    -0.258 A  
HETATM   22  C   UNL     1      -8.515   5.680  66.813  1.00  0.00    -0.111 A  
HETATM   23  C   UNL     1      -9.371   3.868  68.119  1.00  0.00    -0.223 A  
HETATM   24  C   UNL     1      -8.763   4.315  66.966  1.00  0.00    -0.110 A  
BRANCH  20  25
HETATM   25  N   UNL     1      -9.957   6.971  70.077  1.00  0.00    -0.181 NA 
HETATM   26  C   UNL     1      -8.985   7.548  71.033  1.00  0.00    -0.147 C  
HETATM   27  C   UNL     1      -9.324   9.024  71.272  1.00  0.00    -0.324 C  
HETATM   28  C   UNL     1     -10.742   9.173  71.812  1.00  0.00    -0.405 C  
HETATM   29  C   UNL     1     -11.732   8.496  70.882  1.00  0.00    -0.274 C  
HETATM   30  C   UNL     1     -11.339   7.063  70.548  1.00  0.00    -0.312 C  
ENDBRANCH  20  25
ENDBRANCH  18  19
BRANCH  18  31
HETATM   31  C   UNL     1      -7.384   8.638  68.067  1.00  0.00    -0.092 C  
HETATM   32  C   UNL     1      -6.181   9.352  65.899  1.00  0.00    -0.063 C  
HETATM   33  C   UNL     1      -6.643   9.754  67.301  1.00  0.00    -0.070 C  
HETATM   34  C   UNL     1      -5.408  10.165  68.109  1.00  0.00    -0.035 C  
ENDBRANCH  18  31
ENDBRANCH  16  18
ENDBRANCH  13  14
ENDBRANCH  11  13
ENDBRANCH   3   4
ENDBRANCH   2   3
TORSDOF 8
ENDMDL
MODEL       79
REMARK 921   NORMALIZED FREE ENERGY PREDICTED BY IDOCK:   -5.88 KCAL/MOL
REMARK 922        TOTAL FREE ENERGY PREDICTED BY IDOCK:  -11.02 KCAL/MOL
REMARK 923 INTER-LIGAND FREE ENERGY PREDICTED BY IDOCK:   -8.59 KCAL/MOL
REMARK 924 INTRA-LIGAND FREE ENERGY PREDICTED BY IDOCK:   -2.43 KCAL/MOL
REMARK 927      BINDING AFFINITY PREDICTED BY RF-SCORE:    0.00 PKD
ROOT
HETATM    1  C   UNL     1     -11.755  12.812  64.178  1.00  0.00    -0.465 C  
HETATM    2  C   UNL     1     -12.103  13.587  65.428  1.00  0.00    -0.415 C  
ENDROOT
BRANCH   2   3
HETATM    3  O   UNL     1     -11.012  13.486  66.367  1.00  0.00    -0.291 OA 
BRANCH   3   4
HETATM    4  C   UNL     1     -11.393  13.233  67.661  1.00  0.00    -0.296 A  
HETATM    5  C   UNL     1     -11.394  14.287  68.588  1.00  0.00    -0.302 A  
HETATM    6  C   UNL     1     -11.718  14.014  69.930  1.00  0.00    -0.368 A  
HETATM    7  C   UNL     1     -11.043  15.710  68.266  1.00  0.00    -0.336 C  
HETATM    8  C   UNL     1     -12.038  12.722  70.343  1.00  0.00    -0.382 A  
HETATM    9  O   UNL     1     -10.967  16.580  69.125  1.00  0.00    -0.312 OA 
HETATM   10  O   UNL     1     -10.844  15.970  66.963  1.00  0.00    -0.309 OA 
HETATM   11  C   UNL     1     -12.064  11.675  69.418  1.00  0.00    -0.328 A  
HETATM   12  C   UNL     1     -11.780  11.949  68.077  1.00  0.00    -0.382 A  
BRANCH  11  13
HETATM   13  C   UNL     1     -12.392  10.267  69.844  1.00  0.00    -0.090 C  
BRANCH  13  14
HETATM   14  C   UNL     1     -11.169   9.381  69.983  1.00  0.00    -0.190 C  
HETATM   15  O   UNL     1     -10.118   9.843  70.422  1.00  0.00    -0.267 OA 
HETATM   16  N   UNL     1     -11.336   8.058  69.608  1.00  0.00    -0.441 N  
HETATM   17  H   UNL     1     -12.223   7.762  69.202  1.00  0.00     0.000 HD 
BRANCH  16  18
HETATM   18  C   UNL     1     -10.256   7.070  69.784  1.00  0.00    -0.201 C  
BRANCH  18  19
HETATM   19  C   UNL     1      -9.791   6.336  68.514  1.00  0.00    -0.152 A  
HETATM   20  C   UNL     1      -9.231   6.995  67.368  1.00  0.00    -0.126 A  
HETATM   21  C   UNL     1      -8.726   6.146  66.345  1.00  0.00    -0.138 A  
HETATM   22  C   UNL     1      -9.773   4.912  68.560  1.00  0.00    -0.218 A  
HETATM   23  C   UNL     1      -8.711   4.753  66.422  1.00  0.00    -0.112 A  
HETATM   24  C   UNL     1      -9.239   4.132  67.534  1.00  0.00    -0.184 A  
BRANCH  20  25
HETATM   25  N   UNL     1      -9.139   8.373  67.140  1.00  0.00    -0.136 NA 
HETATM   26  C   UNL     1      -8.117   9.184  67.839  1.00  0.00    -0.105 C  
HETATM   27  C   UNL     1      -7.419  10.101  66.828  1.00  0.00    -0.104 C  
HETATM   28  C   UNL     1      -8.427  11.012  66.137  1.00  0.00    -0.168 C  
HETATM   29  C   UNL     1      -9.531  10.187  65.503  1.00  0.00    -0.286 C  
HETATM   30  C   UNL     1     -10.152   9.191  66.473  1.00  0.00    -0.287 C  
ENDBRANCH  20  25
ENDBRANCH  18  19
BRANCH  18  31
HETATM   31  C   UNL     1     -10.595   6.024  70.864  1.00  0.00    -0.310 C  
HETATM   32  C   UNL     1      -9.930   7.410  72.936  1.00  0.00    -0.281 C  
HETATM   33  C   UNL     1     -11.010   6.574  72.243  1.00  0.00    -0.281 C  
HETATM   34  C   UNL     1     -11.355   5.394  73.158  1.00  0.00    -0.325 C  
ENDBRANCH  18  31
ENDBRANCH  16  18
ENDBRANCH  13  14
ENDBRANCH  11  13
ENDBRANCH   3   4
ENDBRANCH   2   3
TORSDOF 8
ENDMDL
MODEL       80
REMARK 921   NORMALIZED FREE ENERGY PREDICTED BY IDOCK:   -5.87 KCAL/MOL
REMARK 922        TOTAL FREE ENERGY PREDICTED BY IDOCK:  -11.01 KCAL/MOL
REMARK 923 INTER-LIGAND FREE ENERGY PREDICTED BY IDOCK:   -9.18 KCAL/MOL
REMARK 924 INTRA-LIGAND FREE ENERGY PREDICTED BY IDOCK:   -1.83 KCAL/MOL
REMARK 927      BINDING AFFINITY PREDICTED BY RF-SCORE:    0.00 PKD
ROOT
HETATM    1  C   UNL     1     -12.228  15.712  64.118  1.00  0.00     0.048 C  
HETATM    2  C   UNL     1     -10.864  15.682  64.769  1.00  0.00    -0.355 C  
ENDROOT
BRANCH   2   3
HETATM    3  O   UNL     1     -10.532  17.007  65.233  1.00  0.00    -0.649 OA 
BRANCH   3   4
HETATM    4  C   UNL     1      -9.948  17.048  66.475  1.00  0.00    -0.310 A  
HETATM    5  C   UNL     1      -9.795  18.289  67.114  1.00  0.00    -0.329 A  
HETATM    6  C   UNL     1      -9.135  18.340  68.355  1.00  0.00    -0.331 A  
HETATM    7  C   UNL     1     -10.264  19.601  66.557  1.00  0.00    -0.480 C  
HETATM    8  C   UNL     1      -8.639  17.183  68.953  1.00  0.00    -0.190 A  
HETATM    9  O   UNL     1     -10.028  20.671  67.104  1.00  0.00    -0.452 OA 
HETATM   10  O   UNL     1     -10.986  19.519  65.427  1.00  0.00    -0.447 OA 
HETATM   11  C   UNL     1      -8.813  15.942  68.333  1.00  0.00    -0.184 A  
HETATM   12  C   UNL     1      -9.503  15.883  67.118  1.00  0.00    -0.221 A  
BRANCH  11  13
HETATM   13  C   UNL     1      -8.273  14.679  68.953  1.00  0.00    -0.145 C  
BRANCH  13  14
HETATM   14  C   UNL     1      -8.592  13.432  68.150  1.00  0.00    -0.174 C  
HETATM   15  O   UNL     1      -7.862  13.091  67.221  1.00  0.00    -0.171 OA 
HETATM   16  N   UNL     1      -9.716  12.729  68.549  1.00  0.00    -0.370 N  
HETATM   17  H   UNL     1     -10.302  13.104  69.295  1.00  0.00     0.000 HD 
BRANCH  16  18
HETATM   18  C   UNL     1     -10.083  11.448  67.917  1.00  0.00    -0.183 C  
BRANCH  18  19
HETATM   19  C   UNL     1     -10.481  11.511  66.432  1.00  0.00    -0.292 A  
HETATM   20  C   UNL     1      -9.935  10.651  65.420  1.00  0.00    -0.281 A  
HETATM   21  C   UNL     1     -10.524  10.755  64.129  1.00  0.00    -0.309 A  
HETATM   22  C   UNL     1     -11.571  12.364  66.090  1.00  0.00    -0.452 A  
HETATM   23  C   UNL     1     -11.598  11.592  63.826  1.00  0.00    -0.430 A  
HETATM   24  C   UNL     1     -12.123  12.403  64.809  1.00  0.00    -0.483 A  
BRANCH  20  25
HETATM   25  N   UNL     1      -8.884   9.737  65.558  1.00  0.00    -0.153 NA 
HETATM   26  C   UNL     1      -7.535  10.059  65.042  1.00  0.00    -0.139 C  
HETATM   27  C   UNL     1      -6.489   9.717  66.110  1.00  0.00    -0.076 C  
HETATM   28  C   UNL     1      -6.566   8.242  66.490  1.00  0.00    -0.056 C  
HETATM   29  C   UNL     1      -7.975   7.886  66.926  1.00  0.00    -0.108 C  
HETATM   30  C   UNL     1      -9.031   8.327  65.921  1.00  0.00    -0.163 C  
ENDBRANCH  20  25
ENDBRANCH  18  19
BRANCH  18  31
HETATM   31  C   UNL     1     -11.192  10.712  68.695  1.00  0.00    -0.337 C  
HETATM   32  C   UNL     1      -9.680   9.339  70.271  1.00  0.00    -0.274 C  
HETATM   33  C   UNL     1     -10.857  10.308  70.146  1.00  0.00    -0.362 C  
HETATM   34  C   UNL     1     -12.090   9.642  70.766  1.00  0.00    -0.328 C  
ENDBRANCH  18  31
ENDBRANCH  16  18
ENDBRANCH  13  14
ENDBRANCH  11  13
ENDBRANCH   3   4
ENDBRANCH   2   3
TORSDOF 8
ENDMDL
MODEL       81
REMARK 921   NORMALIZED FREE ENERGY PREDICTED BY IDOCK:   -5.86 KCAL/MOL
REMARK 922        TOTAL FREE ENERGY PREDICTED BY IDOCK:  -11.00 KCAL/MOL
REMARK 923 INTER-LIGAND FREE ENERGY PREDICTED BY IDOCK:   -8.81 KCAL/MOL
REMARK 924 INTRA-LIGAND FREE ENERGY PREDICTED BY IDOCK:   -2.19 KCAL/MOL
REMARK 927      BINDING AFFINITY PREDICTED BY RF-SCORE:    0.00 PKD
ROOT
HETATM    1  C   UNL     1     -11.432  15.688  69.534  1.00  0.00    -0.349 C  
HETATM    2  C   UNL     1     -10.980  15.754  68.093  1.00  0.00    -0.330 C  
ENDROOT
BRANCH   2   3
HETATM    3  O   UNL     1     -11.712  14.778  67.323  1.00  0.00    -0.379 OA 
BRANCH   3   4
HETATM    4  C   UNL     1     -10.992  13.659  66.985  1.00  0.00    -0.289 A  
HETATM    5  C   UNL     1     -11.473  12.822  65.966  1.00  0.00    -0.396 A  
HETATM    6  C   UNL     1     -10.771  11.640  65.666  1.00  0.00    -0.330 A  
HETATM    7  C   UNL     1     -12.719  13.075  65.169  1.00  0.00    -0.397 C  
HETATM    8  C   UNL     1      -9.614  11.296  66.361  1.00  0.00    -0.223 A  
HETATM    9  O   UNL     1     -13.153  12.272  64.352  1.00  0.00    -0.780 OA 
HETATM   10  O   UNL     1     -13.312  14.259  65.393  1.00  0.00    -0.649 OA 
HETATM   11  C   UNL     1      -9.116  12.140  67.358  1.00  0.00    -0.181 A  
HETATM   12  C   UNL     1      -9.789  13.335  67.632  1.00  0.00    -0.230 A  
BRANCH  11  13
HETATM   13  C   UNL     1      -7.874  11.782  68.134  1.00  0.00    -0.135 C  
BRANCH  13  14
HETATM   14  C   UNL     1      -7.889  10.363  68.668  1.00  0.00    -0.108 C  
HETATM   15  O   UNL     1      -7.230   9.486  68.113  1.00  0.00    -0.079 OA 
HETATM   16  N   UNL     1      -8.658  10.153  69.801  1.00  0.00    -0.328 N  
HETATM   17  H   UNL     1      -9.218  10.918  70.173  1.00  0.00     0.000 HD 
BRANCH  16  18
HETATM   18  C   UNL     1      -8.682   8.844  70.478  1.00  0.00    -0.186 C  
BRANCH  18  19
HETATM   19  C   UNL     1     -10.072   8.279  70.819  1.00  0.00    -0.218 A  
HETATM   20  C   UNL     1     -10.749   7.289  70.029  1.00  0.00    -0.245 A  
HETATM   21  C   UNL     1     -11.962   6.780  70.572  1.00  0.00    -0.385 A  
HETATM   22  C   UNL     1     -10.631   8.649  72.077  1.00  0.00    -0.421 A  
HETATM   23  C   UNL     1     -12.479   7.154  71.813  1.00  0.00    -0.385 A  
HETATM   24  C   UNL     1     -11.813   8.094  72.568  1.00  0.00    -0.438 A  
BRANCH  20  25
HETATM   25  N   UNL     1     -10.359   6.781  68.784  1.00  0.00    -0.185 NA 
HETATM   26  C   UNL     1     -10.815   7.427  67.532  1.00  0.00    -0.187 C  
HETATM   27  C   UNL     1      -9.621   7.597  66.586  1.00  0.00    -0.271 C  
HETATM   28  C   UNL     1      -8.980   6.249  66.276  1.00  0.00    -0.164 C  
HETATM   29  C   UNL     1      -8.601   5.541  67.563  1.00  0.00    -0.108 C  
HETATM   30  C   UNL     1      -9.752   5.470  68.557  1.00  0.00    -0.134 C  
ENDBRANCH  20  25
ENDBRANCH  18  19
BRANCH  18  31
HETATM   31  C   UNL     1      -7.818   8.833  71.755  1.00  0.00    -0.097 C  
HETATM   32  C   UNL     1      -7.308   6.305  71.828  1.00  0.00    -0.093 C  
HETATM   33  C   UNL     1      -6.746   7.728  71.845  1.00  0.00    -0.056 C  
HETATM   34  C   UNL     1      -5.961   7.912  73.149  1.00  0.00    -0.057 C  
ENDBRANCH  18  31
ENDBRANCH  16  18
ENDBRANCH  13  14
ENDBRANCH  11  13
ENDBRANCH   3   4
ENDBRANCH   2   3
TORSDOF 8
ENDMDL
MODEL       82
REMARK 921   NORMALIZED FREE ENERGY PREDICTED BY IDOCK:   -5.85 KCAL/MOL
REMARK 922        TOTAL FREE ENERGY PREDICTED BY IDOCK:  -10.99 KCAL/MOL
REMARK 923 INTER-LIGAND FREE ENERGY PREDICTED BY IDOCK:   -9.28 KCAL/MOL
REMARK 924 INTRA-LIGAND FREE ENERGY PREDICTED BY IDOCK:   -1.71 KCAL/MOL
REMARK 927      BINDING AFFINITY PREDICTED BY RF-SCORE:    0.00 PKD
ROOT
HETATM    1  C   UNL     1     -12.228  12.090  63.339  1.00  0.00    -0.627 C  
HETATM    2  C   UNL     1     -12.481  12.533  64.762  1.00  0.00    -0.457 C  
ENDROOT
BRANCH   2   3
HETATM    3  O   UNL     1     -12.335  13.966  64.844  1.00  0.00    -0.408 OA 
BRANCH   3   4
HETATM    4  C   UNL     1     -12.009  14.437  66.091  1.00  0.00    -0.369 A  
HETATM    5  C   UNL     1     -11.424  15.708  66.206  1.00  0.00     0.189 A  
HETATM    6  C   UNL     1     -11.027  16.163  67.478  1.00  0.00    -0.238 A  
HETATM    7  C   UNL     1     -11.156  16.634  65.056  1.00  0.00    -0.115 C  
HETATM    8  C   UNL     1     -11.209  15.374  68.611  1.00  0.00    -0.312 A  
HETATM    9  O   UNL     1     -10.559  17.695  65.190  1.00  0.00    -0.636 OA 
HETATM   10  O   UNL     1     -11.640  16.229  63.870  1.00  0.00    -0.987 OA 
HETATM   11  C   UNL     1     -11.815  14.119  68.504  1.00  0.00    -0.390 A  
HETATM   12  C   UNL     1     -12.246  13.680  67.249  1.00  0.00    -0.317 A  
BRANCH  11  13
HETATM   13  C   UNL     1     -12.009  13.242  69.715  1.00  0.00    -0.391 C  
BRANCH  13  14
HETATM   14  C   UNL     1     -11.704  11.780  69.451  1.00  0.00    -0.341 C  
HETATM   15  O   UNL     1     -12.617  10.992  69.209  1.00  0.00    -0.361 OA 
HETATM   16  N   UNL     1     -10.366  11.426  69.485  1.00  0.00    -0.438 N  
HETATM   17  H   UNL     1      -9.671  12.125  69.746  1.00  0.00     0.000 HD 
BRANCH  16  18
HETATM   18  C   UNL     1      -9.926  10.059  69.151  1.00  0.00    -0.204 C  
BRANCH  18  19
HETATM   19  C   UNL     1      -8.970   9.388  70.153  1.00  0.00    -0.256 A  
HETATM   20  C   UNL     1      -7.551   9.609  70.177  1.00  0.00    -0.158 A  
HETATM   21  C   UNL     1      -6.846   9.017  71.261  1.00  0.00    -0.088 A  
HETATM   22  C   UNL     1      -9.563   8.636  71.208  1.00  0.00    -0.292 A  
HETATM   23  C   UNL     1      -7.456   8.294  72.287  1.00  0.00    -0.149 A  
HETATM   24  C   UNL     1      -8.820   8.100  72.260  1.00  0.00    -0.248 A  
BRANCH  20  25
HETATM   25  N   UNL     1      -6.787  10.328  69.251  1.00  0.00    -0.060 NA 
HETATM   26  C   UNL     1      -5.751   9.648  68.442  1.00  0.00    -0.040 C  
HETATM   27  C   UNL     1      -5.890  10.075  66.976  1.00  0.00    -0.051 C  
HETATM   28  C   UNL     1      -5.752  11.587  66.838  1.00  0.00    -0.131 C  
HETATM   29  C   UNL     1      -6.749  12.289  67.742  1.00  0.00    -0.107 C  
HETATM   30  C   UNL     1      -6.695  11.786  69.178  1.00  0.00    -0.110 C  
ENDBRANCH  20  25
ENDBRANCH  18  19
BRANCH  18  31
HETATM   31  C   UNL     1      -9.304   9.976  67.743  1.00  0.00    -0.154 C  
HETATM   32  C   UNL     1     -10.486   7.824  66.950  1.00  0.00    -0.388 C  
HETATM   33  C   UNL     1     -10.158   9.290  66.657  1.00  0.00    -0.341 C  
HETATM   34  C   UNL     1      -9.401   9.351  65.327  1.00  0.00    -0.303 C  
ENDBRANCH  18  31
ENDBRANCH  16  18
ENDBRANCH  13  14
ENDBRANCH  11  13
ENDBRANCH   3   4
ENDBRANCH   2   3
TORSDOF 8
ENDMDL
MODEL       83
REMARK 921   NORMALIZED FREE ENERGY PREDICTED BY IDOCK:   -5.85 KCAL/MOL
REMARK 922        TOTAL FREE ENERGY PREDICTED BY IDOCK:  -10.99 KCAL/MOL
REMARK 923 INTER-LIGAND FREE ENERGY PREDICTED BY IDOCK:   -8.63 KCAL/MOL
REMARK 924 INTRA-LIGAND FREE ENERGY PREDICTED BY IDOCK:   -2.36 KCAL/MOL
REMARK 927      BINDING AFFINITY PREDICTED BY RF-SCORE:    0.00 PKD
ROOT
HETATM    1  C   UNL     1     -12.427  12.918  65.299  1.00  0.00    -0.552 C  
HETATM    2  C   UNL     1     -11.476  12.306  66.303  1.00  0.00    -0.380 C  
ENDROOT
BRANCH   2   3
HETATM    3  O   UNL     1     -11.144  13.291  67.302  1.00  0.00    -0.267 OA 
BRANCH   3   4
HETATM    4  C   UNL     1     -11.613  13.010  68.561  1.00  0.00    -0.328 A  
HETATM    5  C   UNL     1     -11.674  14.042  69.511  1.00  0.00    -0.367 A  
HETATM    6  C   UNL     1     -12.090  13.740  70.820  1.00  0.00    -0.395 A  
HETATM    7  C   UNL     1     -11.295  15.470  69.247  1.00  0.00    -0.325 C  
HETATM    8  C   UNL     1     -12.442  12.441  71.180  1.00  0.00    -0.323 A  
HETATM    9  O   UNL     1     -11.275  16.320  70.129  1.00  0.00    -0.358 OA 
HETATM   10  O   UNL     1     -11.007  15.760  67.967  1.00  0.00    -0.307 OA 
HETATM   11  C   UNL     1     -12.409  11.415  70.230  1.00  0.00    -0.379 A  
HETATM   12  C   UNL     1     -12.033  11.719  68.918  1.00  0.00    -0.332 A  
BRANCH  11  13
HETATM   13  C   UNL     1     -12.772  10.000  70.599  1.00  0.00    -0.282 C  
BRANCH  13  14
HETATM   14  C   UNL     1     -11.565   9.106  70.807  1.00  0.00    -0.276 C  
HETATM   15  O   UNL     1     -10.721   9.392  71.655  1.00  0.00    -0.356 OA 
HETATM   16  N   UNL     1     -11.505   7.976  70.009  1.00  0.00    -0.469 N  
HETATM   17  H   UNL     1     -12.215   7.834  69.291  1.00  0.00     0.000 HD 
BRANCH  16  18
HETATM   18  C   UNL     1     -10.437   6.974  70.176  1.00  0.00    -0.214 C  
BRANCH  18  19
HETATM   19  C   UNL     1      -9.849   6.382  68.883  1.00  0.00    -0.152 A  
HETATM   20  C   UNL     1      -8.796   7.000  68.126  1.00  0.00    -0.129 A  
HETATM   21  C   UNL     1      -8.281   6.241  67.040  1.00  0.00    -0.109 A  
HETATM   22  C   UNL     1     -10.271   5.070  68.522  1.00  0.00    -0.143 A  
HETATM   23  C   UNL     1      -8.708   4.952  66.715  1.00  0.00    -0.107 A  
HETATM   24  C   UNL     1      -9.709   4.365  67.458  1.00  0.00    -0.211 A  
BRANCH  20  25
HETATM   25  N   UNL     1      -8.232   8.265  68.330  1.00  0.00    -0.127 NA 
HETATM   26  C   UNL     1      -8.443   9.349  67.344  1.00  0.00    -0.125 C  
HETATM   27  C   UNL     1      -8.832  10.636  68.082  1.00  0.00    -0.134 C  
HETATM   28  C   UNL     1      -7.749  11.037  69.078  1.00  0.00    -0.132 C  
HETATM   29  C   UNL     1      -7.461   9.891  70.029  1.00  0.00    -0.173 C  
HETATM   30  C   UNL     1      -7.187   8.580  69.304  1.00  0.00    -0.063 C  
ENDBRANCH  20  25
ENDBRANCH  18  19
BRANCH  18  31
HETATM   31  C   UNL     1     -10.864   5.816  71.100  1.00  0.00    -0.316 C  
HETATM   32  C   UNL     1      -9.070   6.127  72.928  1.00  0.00    -0.131 C  
HETATM   33  C   UNL     1     -10.558   5.991  72.602  1.00  0.00    -0.251 C  
HETATM   34  C   UNL     1     -11.100   4.772  73.357  1.00  0.00    -0.422 C  
ENDBRANCH  18  31
ENDBRANCH  16  18
ENDBRANCH  13  14
ENDBRANCH  11  13
ENDBRANCH   3   4
ENDBRANCH   2   3
TORSDOF 8
ENDMDL
MODEL       84
REMARK 921   NORMALIZED FREE ENERGY PREDICTED BY IDOCK:   -5.85 KCAL/MOL
REMARK 922        TOTAL FREE ENERGY PREDICTED BY IDOCK:  -10.98 KCAL/MOL
REMARK 923 INTER-LIGAND FREE ENERGY PREDICTED BY IDOCK:   -8.66 KCAL/MOL
REMARK 924 INTRA-LIGAND FREE ENERGY PREDICTED BY IDOCK:   -2.33 KCAL/MOL
REMARK 927      BINDING AFFINITY PREDICTED BY RF-SCORE:    0.00 PKD
ROOT
HETATM    1  C   UNL     1     -12.281  14.806  64.422  1.00  0.00    -0.447 C  
HETATM    2  C   UNL     1     -12.577  13.896  65.592  1.00  0.00    -0.517 C  
ENDROOT
BRANCH   2   3
HETATM    3  O   UNL     1     -11.950  14.430  66.777  1.00  0.00    -0.411 OA 
BRANCH   3   4
HETATM    4  C   UNL     1     -10.662  14.003  66.984  1.00  0.00    -0.284 A  
HETATM    5  C   UNL     1      -9.700  14.930  67.417  1.00  0.00    -0.217 A  
HETATM    6  C   UNL     1      -8.365  14.508  67.564  1.00  0.00    -0.201 A  
HETATM    7  C   UNL     1      -9.977  16.374  67.717  1.00  0.00    -0.248 C  
HETATM    8  C   UNL     1      -7.993  13.195  67.289  1.00  0.00    -0.140 A  
HETATM    9  O   UNL     1      -9.091  17.169  68.003  1.00  0.00    -0.229 OA 
HETATM   10  O   UNL     1     -11.272  16.728  67.678  1.00  0.00    -0.159 OA 
HETATM   11  C   UNL     1      -8.952  12.262  66.883  1.00  0.00    -0.207 A  
HETATM   12  C   UNL     1     -10.286  12.667  66.774  1.00  0.00    -0.246 A  
BRANCH  11  13
HETATM   13  C   UNL     1      -8.571  10.839  66.567  1.00  0.00    -0.150 C  
BRANCH  13  14
HETATM   14  C   UNL     1      -9.168   9.829  67.528  1.00  0.00    -0.130 C  
HETATM   15  O   UNL     1      -9.543   8.732  67.118  1.00  0.00    -0.156 OA 
HETATM   16  N   UNL     1      -9.234  10.223  68.854  1.00  0.00    -0.165 N  
HETATM   17  H   UNL     1      -8.952  11.170  69.109  1.00  0.00     0.000 HD 
BRANCH  16  18
HETATM   18  C   UNL     1      -9.702   9.302  69.905  1.00  0.00    -0.201 C  
BRANCH  18  19
HETATM   19  C   UNL     1     -11.028   9.671  70.593  1.00  0.00    -0.386 A  
HETATM   20  C   UNL     1     -11.641   8.882  71.624  1.00  0.00    -0.338 A  
HETATM   21  C   UNL     1     -12.789   9.449  72.245  1.00  0.00    -0.452 A  
HETATM   22  C   UNL     1     -11.578  10.951  70.294  1.00  0.00    -0.426 A  
HETATM   23  C   UNL     1     -13.299  10.712  71.937  1.00  0.00    -0.454 A  
HETATM   24  C   UNL     1     -12.693  11.465  70.956  1.00  0.00    -0.447 A  
BRANCH  20  25
HETATM   25  N   UNL     1     -11.247   7.617  72.076  1.00  0.00    -0.259 NA 
HETATM   26  C   UNL     1     -11.684   6.395  71.365  1.00  0.00    -0.306 C  
HETATM   27  C   UNL     1     -10.481   5.467  71.164  1.00  0.00    -0.295 C  
HETATM   28  C   UNL     1      -9.853   5.097  72.503  1.00  0.00    -0.197 C  
HETATM   29  C   UNL     1      -9.493   6.351  73.277  1.00  0.00    -0.148 C  
HETATM   30  C   UNL     1     -10.653   7.331  73.382  1.00  0.00    -0.389 C  
ENDBRANCH  20  25
ENDBRANCH  18  19
BRANCH  18  31
HETATM   31  C   UNL     1      -8.632   9.063  70.989  1.00  0.00    -0.264 C  
HETATM   32  C   UNL     1      -7.373   7.128  69.839  1.00  0.00    -0.084 C  
HETATM   33  C   UNL     1      -7.280   8.503  70.504  1.00  0.00    -0.045 C  
HETATM   34  C   UNL     1      -6.338   8.385  71.707  1.00  0.00    -0.061 C  
ENDBRANCH  18  31
ENDBRANCH  16  18
ENDBRANCH  13  14
ENDBRANCH  11  13
ENDBRANCH   3   4
ENDBRANCH   2   3
TORSDOF 8
ENDMDL
MODEL       85
REMARK 921   NORMALIZED FREE ENERGY PREDICTED BY IDOCK:   -5.85 KCAL/MOL
REMARK 922        TOTAL FREE ENERGY PREDICTED BY IDOCK:  -10.98 KCAL/MOL
REMARK 923 INTER-LIGAND FREE ENERGY PREDICTED BY IDOCK:   -9.57 KCAL/MOL
REMARK 924 INTRA-LIGAND FREE ENERGY PREDICTED BY IDOCK:   -1.41 KCAL/MOL
REMARK 927      BINDING AFFINITY PREDICTED BY RF-SCORE:    0.00 PKD
ROOT
HETATM    1  C   UNL     1     -12.444  15.466  70.264  1.00  0.00    -0.413 C  
HETATM    2  C   UNL     1     -11.768  15.824  68.960  1.00  0.00    -0.396 C  
ENDROOT
BRANCH   2   3
HETATM    3  O   UNL     1     -10.837  16.902  69.190  1.00  0.00    -0.312 OA 
BRANCH   3   4
HETATM    4  C   UNL     1      -9.521  16.578  68.972  1.00  0.00    -0.249 A  
HETATM    5  C   UNL     1      -8.619  17.594  68.618  1.00  0.00    -0.264 A  
HETATM    6  C   UNL     1      -7.286  17.251  68.328  1.00  0.00    -0.211 A  
HETATM    7  C   UNL     1      -8.974  19.047  68.493  1.00  0.00    -0.355 C  
HETATM    8  C   UNL     1      -6.854  15.929  68.390  1.00  0.00    -0.116 A  
HETATM    9  O   UNL     1      -8.179  19.887  68.092  1.00  0.00    -0.302 OA 
HETATM   10  O   UNL     1     -10.221  19.367  68.880  1.00  0.00    -0.410 OA 
HETATM   11  C   UNL     1      -7.742  14.917  68.769  1.00  0.00    -0.139 A  
HETATM   12  C   UNL     1      -9.058  15.258  69.095  1.00  0.00    -0.236 A  
BRANCH  11  13
HETATM   13  C   UNL     1      -7.302  13.476  68.829  1.00  0.00    -0.086 C  
BRANCH  13  14
HETATM   14  C   UNL     1      -8.189  12.544  68.028  1.00  0.00    -0.166 C  
HETATM   15  O   UNL     1      -7.717  11.882  67.105  1.00  0.00    -0.151 OA 
HETATM   16  N   UNL     1      -9.516  12.486  68.421  1.00  0.00    -0.320 N  
HETATM   17  H   UNL     1      -9.845  13.105  69.162  1.00  0.00     0.000 HD 
BRANCH  16  18
HETATM   18  C   UNL     1     -10.462  11.548  67.790  1.00  0.00    -0.188 C  
BRANCH  18  19
HETATM   19  C   UNL     1     -10.980  11.940  66.394  1.00  0.00    -0.337 A  
HETATM   20  C   UNL     1     -10.657  11.225  65.192  1.00  0.00    -0.280 A  
HETATM   21  C   UNL     1     -11.340  11.642  64.016  1.00  0.00    -0.428 A  
HETATM   22  C   UNL     1     -11.962  12.971  66.334  1.00  0.00    -0.466 A  
HETATM   23  C   UNL     1     -12.306  12.650  63.989  1.00  0.00    -0.528 A  
HETATM   24  C   UNL     1     -12.617  13.319  65.153  1.00  0.00    -0.512 A  
BRANCH  20  25
HETATM   25  N   UNL     1      -9.741  10.177  65.045  1.00  0.00    -0.299 NA 
HETATM   26  C   UNL     1      -8.993  10.004  63.779  1.00  0.00    -0.247 C  
HETATM   27  C   UNL     1      -7.512   9.768  64.094  1.00  0.00    -0.135 C  
HETATM   28  C   UNL     1      -7.335   8.539  64.979  1.00  0.00    -0.086 C  
HETATM   29  C   UNL     1      -8.179   8.670  66.233  1.00  0.00    -0.116 C  
HETATM   30  C   UNL     1      -9.630   9.019  65.931  1.00  0.00    -0.247 C  
ENDBRANCH  20  25
ENDBRANCH  18  19
BRANCH  18  31
HETATM   31  C   UNL     1     -11.670  11.242  68.697  1.00  0.00    -0.391 C  
HETATM   32  C   UNL     1     -10.510   9.587  70.301  1.00  0.00    -0.319 C  
HETATM   33  C   UNL     1     -11.349  10.858  70.156  1.00  0.00    -0.367 C  
HETATM   34  C   UNL     1     -12.667  10.644  70.908  1.00  0.00    -0.498 C  
ENDBRANCH  18  31
ENDBRANCH  16  18
ENDBRANCH  13  14
ENDBRANCH  11  13
ENDBRANCH   3   4
ENDBRANCH   2   3
TORSDOF 8
ENDMDL
MODEL       86
REMARK 921   NORMALIZED FREE ENERGY PREDICTED BY IDOCK:   -5.85 KCAL/MOL
REMARK 922        TOTAL FREE ENERGY PREDICTED BY IDOCK:  -10.98 KCAL/MOL
REMARK 923 INTER-LIGAND FREE ENERGY PREDICTED BY IDOCK:   -9.58 KCAL/MOL
REMARK 924 INTRA-LIGAND FREE ENERGY PREDICTED BY IDOCK:   -1.40 KCAL/MOL
REMARK 927      BINDING AFFINITY PREDICTED BY RF-SCORE:    0.00 PKD
ROOT
HETATM    1  C   UNL     1      -9.900  11.300  63.241  1.00  0.00    -0.418 C  
HETATM    2  C   UNL     1     -10.178  10.721  64.610  1.00  0.00    -0.350 C  
ENDROOT
BRANCH   2   3
HETATM    3  O   UNL     1      -9.291   9.607  64.841  1.00  0.00    -0.247 OA 
BRANCH   3   4
HETATM    4  C   UNL     1      -9.202   9.209  66.152  1.00  0.00    -0.205 A  
HETATM    5  C   UNL     1      -8.594   7.980  66.450  1.00  0.00    -0.155 A  
HETATM    6  C   UNL     1      -8.563   7.541  67.787  1.00  0.00    -0.120 A  
HETATM    7  C   UNL     1      -7.984   7.058  65.435  1.00  0.00    -0.129 C  
HETATM    8  C   UNL     1      -9.121   8.307  68.807  1.00  0.00    -0.144 A  
HETATM    9  O   UNL     1      -7.547   5.952  65.727  1.00  0.00    -0.083 OA 
HETATM   10  O   UNL     1      -7.926   7.543  64.183  1.00  0.00    -0.133 OA 
HETATM   11  C   UNL     1      -9.703   9.546  68.519  1.00  0.00    -0.162 A  
HETATM   12  C   UNL     1      -9.701  10.003  67.197  1.00  0.00    -0.217 A  
BRANCH  11  13
HETATM   13  C   UNL     1     -10.326  10.386  69.604  1.00  0.00    -0.261 C  
BRANCH  13  14
HETATM   14  C   UNL     1     -11.352  11.373  69.084  1.00  0.00    -0.288 C  
HETATM   15  O   UNL     1     -12.456  10.979  68.712  1.00  0.00    -0.468 OA 
HETATM   16  N   UNL     1     -10.965  12.703  69.083  1.00  0.00    -0.414 N  
HETATM   17  H   UNL     1     -10.014  12.947  69.357  1.00  0.00     0.000 HD 
BRANCH  16  18
HETATM   18  C   UNL     1     -11.902  13.773  68.694  1.00  0.00    -0.374 C  
BRANCH  18  19
HETATM   19  C   UNL     1     -11.749  14.326  67.266  1.00  0.00    -0.422 A  
HETATM   20  C   UNL     1     -10.692  15.207  66.858  1.00  0.00    -0.308 A  
HETATM   21  C   UNL     1     -10.627  15.502  65.467  1.00  0.00    -0.413 A  
HETATM   22  C   UNL     1     -12.620  13.795  66.271  1.00  0.00    -0.372 A  
HETATM   23  C   UNL     1     -11.488  14.958  64.513  1.00  0.00    -0.328 A  
HETATM   24  C   UNL     1     -12.491  14.102  64.916  1.00  0.00    -0.419 A  
BRANCH  20  25
HETATM   25  N   UNL     1      -9.729  15.816  67.672  1.00  0.00    -0.222 NA 
HETATM   26  C   UNL     1      -8.562  15.047  68.159  1.00  0.00    -0.156 C  
HETATM   27  C   UNL     1      -7.288  15.873  67.949  1.00  0.00    -0.148 C  
HETATM   28  C   UNL     1      -7.380  17.206  68.683  1.00  0.00    -0.238 C  
HETATM   29  C   UNL     1      -8.629  17.954  68.257  1.00  0.00    -0.277 C  
HETATM   30  C   UNL     1      -9.887  17.100  68.354  1.00  0.00    -0.296 C  
ENDBRANCH  20  25
ENDBRANCH  18  19
BRANCH  18  31
HETATM   31  C   UNL     1     -11.880  14.954  69.686  1.00  0.00    -0.356 C  
HETATM   32  C   UNL     1     -13.190  13.838  71.608  1.00  0.00    -0.450 C  
HETATM   33  C   UNL     1     -11.926  14.589  71.184  1.00  0.00    -0.401 C  
HETATM   34  C   UNL     1     -11.844  15.881  72.005  1.00  0.00    -0.609 C  
ENDBRANCH  18  31
ENDBRANCH  16  18
ENDBRANCH  13  14
ENDBRANCH  11  13
ENDBRANCH   3   4
ENDBRANCH   2   3
TORSDOF 8
ENDMDL
MODEL       87
REMARK 921   NORMALIZED FREE ENERGY PREDICTED BY IDOCK:   -5.83 KCAL/MOL
REMARK 922        TOTAL FREE ENERGY PREDICTED BY IDOCK:  -10.95 KCAL/MOL
REMARK 923 INTER-LIGAND FREE ENERGY PREDICTED BY IDOCK:   -9.16 KCAL/MOL
REMARK 924 INTRA-LIGAND FREE ENERGY PREDICTED BY IDOCK:   -1.80 KCAL/MOL
REMARK 927      BINDING AFFINITY PREDICTED BY RF-SCORE:    0.00 PKD
ROOT
HETATM    1  C   UNL     1     -12.552  12.061  63.557  1.00  0.00    -0.625 C  
HETATM    2  C   UNL     1     -11.060  12.303  63.587  1.00  0.00    -0.469 C  
ENDROOT
BRANCH   2   3
HETATM    3  O   UNL     1     -10.692  12.826  64.880  1.00  0.00    -0.283 OA 
BRANCH   3   4
HETATM    4  C   UNL     1     -10.757  11.915  65.905  1.00  0.00    -0.284 A  
HETATM    5  C   UNL     1     -11.309  12.312  67.133  1.00  0.00    -0.398 A  
HETATM    6  C   UNL     1     -11.314  11.400  68.205  1.00  0.00    -0.374 A  
HETATM    7  C   UNL     1     -11.883  13.670  67.414  1.00  0.00    -0.393 C  
HETATM    8  C   UNL     1     -10.785  10.119  68.060  1.00  0.00    -0.305 A  
HETATM    9  O   UNL     1     -12.270  14.004  68.527  1.00  0.00    -0.333 OA 
HETATM   10  O   UNL     1     -11.969  14.487  66.351  1.00  0.00    -0.392 OA 
HETATM   11  C   UNL     1     -10.259   9.711  66.830  1.00  0.00    -0.308 A  
HETATM   12  C   UNL     1     -10.288  10.601  65.752  1.00  0.00    -0.287 A  
BRANCH  11  13
HETATM   13  C   UNL     1      -9.669   8.335  66.653  1.00  0.00    -0.321 C  
BRANCH  13  14
HETATM   14  C   UNL     1      -9.961   7.403  67.813  1.00  0.00    -0.167 C  
HETATM   15  O   UNL     1     -11.016   6.772  67.849  1.00  0.00    -0.252 OA 
HETATM   16  N   UNL     1      -8.973   7.311  68.779  1.00  0.00    -0.130 N  
HETATM   17  H   UNL     1      -8.148   7.907  68.707  1.00  0.00     0.000 HD 
BRANCH  16  18
HETATM   18  C   UNL     1      -9.088   6.369  69.907  1.00  0.00    -0.142 C  
BRANCH  18  19
HETATM   19  C   UNL     1      -8.921   6.969  71.314  1.00  0.00    -0.137 A  
HETATM   20  C   UNL     1      -9.986   7.590  72.051  1.00  0.00    -0.175 A  
HETATM   21  C   UNL     1      -9.685   7.959  73.391  1.00  0.00    -0.318 A  
HETATM   22  C   UNL     1      -7.677   6.741  71.971  1.00  0.00    -0.095 A  
HETATM   23  C   UNL     1      -8.459   7.713  74.012  1.00  0.00    -0.285 A  
HETATM   24  C   UNL     1      -7.450   7.104  73.299  1.00  0.00    -0.080 A  
BRANCH  20  25
HETATM   25  N   UNL     1     -11.277   7.884  71.596  1.00  0.00    -0.245 NA 
HETATM   26  C   UNL     1     -12.137   6.817  71.037  1.00  0.00    -0.372 C  
HETATM   27  C   UNL     1     -13.537   6.920  71.653  1.00  0.00    -0.275 C  
HETATM   28  C   UNL     1     -14.151   8.288  71.373  1.00  0.00    -0.382 C  
HETATM   29  C   UNL     1     -13.225   9.387  71.858  1.00  0.00    -0.507 C  
HETATM   30  C   UNL     1     -11.801   9.225  71.342  1.00  0.00    -0.358 C  
ENDBRANCH  20  25
ENDBRANCH  18  19
BRANCH  18  31
HETATM   31  C   UNL     1      -8.131   5.170  69.764  1.00  0.00    -0.082 C  
HETATM   32  C   UNL     1      -9.667   3.356  70.767  1.00  0.00    -0.190 C  
HETATM   33  C   UNL     1      -8.789   3.786  69.590  1.00  0.00    -0.148 C  
HETATM   34  C   UNL     1      -7.686   2.737  69.413  1.00  0.00    -0.045 C  
ENDBRANCH  18  31
ENDBRANCH  16  18
ENDBRANCH  13  14
ENDBRANCH  11  13
ENDBRANCH   3   4
ENDBRANCH   2   3
TORSDOF 8
ENDMDL
MODEL       88
REMARK 921   NORMALIZED FREE ENERGY PREDICTED BY IDOCK:   -5.80 KCAL/MOL
REMARK 922        TOTAL FREE ENERGY PREDICTED BY IDOCK:  -10.90 KCAL/MOL
REMARK 923 INTER-LIGAND FREE ENERGY PREDICTED BY IDOCK:   -8.94 KCAL/MOL
REMARK 924 INTRA-LIGAND FREE ENERGY PREDICTED BY IDOCK:   -1.96 KCAL/MOL
REMARK 927      BINDING AFFINITY PREDICTED BY RF-SCORE:    0.00 PKD
ROOT
HETATM    1  C   UNL     1      -9.651   2.784  70.638  1.00  0.00    -0.174 C  
HETATM    2  C   UNL     1      -9.804   4.250  70.301  1.00  0.00    -0.193 C  
ENDROOT
BRANCH   2   3
HETATM    3  O   UNL     1      -9.903   4.398  68.870  1.00  0.00    -0.160 OA 
BRANCH   3   4
HETATM    4  C   UNL     1     -10.113   5.686  68.441  1.00  0.00    -0.173 A  
HETATM    5  C   UNL     1      -9.770   6.029  67.124  1.00  0.00    -0.148 A  
HETATM    6  C   UNL     1      -9.921   7.364  66.706  1.00  0.00    -0.300 A  
HETATM    7  C   UNL     1      -9.215   5.074  66.108  1.00  0.00    -0.149 C  
HETATM    8  C   UNL     1     -10.406   8.338  67.576  1.00  0.00    -0.333 A  
HETATM    9  O   UNL     1      -8.842   5.435  64.999  1.00  0.00    -0.150 OA 
HETATM   10  O   UNL     1      -9.181   3.786  66.491  1.00  0.00    -0.145 OA 
HETATM   11  C   UNL     1     -10.775   7.995  68.880  1.00  0.00    -0.091 A  
HETATM   12  C   UNL     1     -10.662   6.662  69.287  1.00  0.00    -0.307 A  
BRANCH  11  13
HETATM   13  C   UNL     1     -11.288   9.034  69.843  1.00  0.00    -0.016 C  
BRANCH  13  14
HETATM   14  C   UNL     1     -10.790  10.434  69.538  1.00  0.00    -0.255 C  
HETATM   15  O   UNL     1      -9.595  10.701  69.641  1.00  0.00    -0.115 OA 
HETATM   16  N   UNL     1     -11.753  11.341  69.128  1.00  0.00    -0.312 N  
HETATM   17  H   UNL     1     -12.733  11.059  69.118  1.00  0.00     0.000 HD 
BRANCH  16  18
HETATM   18  C   UNL     1     -11.390  12.706  68.707  1.00  0.00    -0.289 C  
BRANCH  18  19
HETATM   19  C   UNL     1     -11.566  13.814  69.761  1.00  0.00    -0.324 A  
HETATM   20  C   UNL     1     -11.067  15.152  69.607  1.00  0.00    -0.270 A  
HETATM   21  C   UNL     1     -11.447  16.079  70.617  1.00  0.00    -0.427 A  
HETATM   22  C   UNL     1     -12.412  13.523  70.870  1.00  0.00    -0.448 A  
HETATM   23  C   UNL     1     -12.287  15.768  71.687  1.00  0.00    -0.521 A  
HETATM   24  C   UNL     1     -12.770  14.484  71.816  1.00  0.00    -0.415 A  
BRANCH  20  25
HETATM   25  N   UNL     1     -10.243  15.640  68.587  1.00  0.00    -0.208 NA 
HETATM   26  C   UNL     1      -8.785  15.382  68.610  1.00  0.00    -0.191 C  
HETATM   27  C   UNL     1      -8.332  14.910  67.224  1.00  0.00    -0.233 C  
HETATM   28  C   UNL     1      -8.662  15.954  66.162  1.00  0.00    -0.328 C  
HETATM   29  C   UNL     1     -10.140  16.293  66.202  1.00  0.00    -0.362 C  
HETATM   30  C   UNL     1     -10.624  16.651  67.601  1.00  0.00    -0.321 C  
ENDBRANCH  20  25
ENDBRANCH  18  19
BRANCH  18  31
HETATM   31  C   UNL     1     -12.119  13.131  67.417  1.00  0.00    -0.316 C  
HETATM   32  C   UNL     1     -10.311  12.413  65.723  1.00  0.00    -0.289 C  
HETATM   33  C   UNL     1     -11.780  12.330  66.144  1.00  0.00    -0.440 C  
HETATM   34  C   UNL     1     -12.636  12.860  64.989  1.00  0.00    -0.538 C  
ENDBRANCH  18  31
ENDBRANCH  16  18
ENDBRANCH  13  14
ENDBRANCH  11  13
ENDBRANCH   3   4
ENDBRANCH   2   3
TORSDOF 8
ENDMDL
MODEL       89
REMARK 921   NORMALIZED FREE ENERGY PREDICTED BY IDOCK:   -5.79 KCAL/MOL
REMARK 922        TOTAL FREE ENERGY PREDICTED BY IDOCK:  -10.90 KCAL/MOL
REMARK 923 INTER-LIGAND FREE ENERGY PREDICTED BY IDOCK:   -9.91 KCAL/MOL
REMARK 924 INTRA-LIGAND FREE ENERGY PREDICTED BY IDOCK:   -0.99 KCAL/MOL
REMARK 927      BINDING AFFINITY PREDICTED BY RF-SCORE:    0.00 PKD
ROOT
HETATM    1  C   UNL     1     -10.671   9.822  67.539  1.00  0.00    -0.327 C  
HETATM    2  C   UNL     1     -11.504  10.806  68.329  1.00  0.00    -0.280 C  
ENDROOT
BRANCH   2   3
HETATM    3  O   UNL     1     -11.517  10.409  69.716  1.00  0.00    -0.251 OA 
BRANCH   3   4
HETATM    4  C   UNL     1     -12.140  11.295  70.559  1.00  0.00    -0.387 A  
HETATM    5  C   UNL     1     -13.061  10.807  71.499  1.00  0.00    -0.517 A  
HETATM    6  C   UNL     1     -13.750  11.722  72.316  1.00  0.00     0.079 A  
HETATM    7  C   UNL     1     -13.402   9.358  71.690  1.00  0.00    -0.404 C  
HETATM    8  C   UNL     1     -13.527  13.092  72.206  1.00  0.00    -0.665 A  
HETATM    9  O   UNL     1     -14.280   8.984  72.457  1.00  0.00    -0.537 OA 
HETATM   10  O   UNL     1     -12.657   8.495  70.979  1.00  0.00    -0.197 OA 
HETATM   11  C   UNL     1     -12.590  13.581  71.290  1.00  0.00    -0.427 A  
HETATM   12  C   UNL     1     -11.876  12.673  70.504  1.00  0.00    -0.140 A  
BRANCH  11  13
HETATM   13  C   UNL     1     -12.343  15.060  71.143  1.00  0.00    -0.391 C  
BRANCH  13  14
HETATM   14  C   UNL     1     -11.561  15.417  69.893  1.00  0.00    -0.323 C  
HETATM   15  O   UNL     1     -12.075  16.115  69.021  1.00  0.00    -0.228 OA 
HETATM   16  N   UNL     1     -10.268  14.927  69.830  1.00  0.00    -0.436 N  
HETATM   17  H   UNL     1      -9.930  14.310  70.568  1.00  0.00     0.000 HD 
BRANCH  16  18
HETATM   18  C   UNL     1      -9.368  15.279  68.716  1.00  0.00    -0.210 C  
BRANCH  18  19
HETATM   19  C   UNL     1      -9.969  15.193  67.302  1.00  0.00    -0.230 A  
HETATM   20  C   UNL     1      -9.963  16.280  66.362  1.00  0.00    -0.300 A  
HETATM   21  C   UNL     1     -10.434  15.975  65.055  1.00  0.00    -0.250 A  
HETATM   22  C   UNL     1     -10.404  13.910  66.860  1.00  0.00    -0.266 A  
HETATM   23  C   UNL     1     -10.844  14.705  64.648  1.00  0.00    -0.332 A  
HETATM   24  C   UNL     1     -10.831  13.667  65.555  1.00  0.00    -0.295 A  
BRANCH  20  25
HETATM   25  N   UNL     1      -9.561  17.600  66.592  1.00  0.00    -0.284 NA 
HETATM   26  C   UNL     1      -8.141  17.917  66.863  1.00  0.00    -0.229 C  
HETATM   27  C   UNL     1      -7.716  19.116  66.007  1.00  0.00    -0.267 C  
HETATM   28  C   UNL     1      -8.590  20.330  66.305  1.00  0.00    -0.186 C  
HETATM   29  C   UNL     1     -10.054  19.979  66.122  1.00  0.00    -0.588 C  
HETATM   30  C   UNL     1     -10.457  18.721  66.879  1.00  0.00    -0.414 C  
ENDBRANCH  20  25
ENDBRANCH  18  19
BRANCH  18  31
HETATM   31  C   UNL     1      -8.058  14.468  68.747  1.00  0.00    -0.146 C  
HETATM   32  C   UNL     1      -6.497  16.329  69.617  1.00  0.00    -0.190 C  
HETATM   33  C   UNL     1      -7.011  14.899  69.794  1.00  0.00    -0.175 C  
HETATM   34  C   UNL     1      -5.811  13.949  69.707  1.00  0.00    -0.117 C  
ENDBRANCH  18  31
ENDBRANCH  16  18
ENDBRANCH  13  14
ENDBRANCH  11  13
ENDBRANCH   3   4
ENDBRANCH   2   3
TORSDOF 8
ENDMDL
MODEL       90
REMARK 921   NORMALIZED FREE ENERGY PREDICTED BY IDOCK:   -5.78 KCAL/MOL
REMARK 922        TOTAL FREE ENERGY PREDICTED BY IDOCK:  -10.88 KCAL/MOL
REMARK 923 INTER-LIGAND FREE ENERGY PREDICTED BY IDOCK:   -7.92 KCAL/MOL
REMARK 924 INTRA-LIGAND FREE ENERGY PREDICTED BY IDOCK:   -2.96 KCAL/MOL
REMARK 927      BINDING AFFINITY PREDICTED BY RF-SCORE:    0.00 PKD
ROOT
HETATM    1  C   UNL     1      -9.505  10.854  62.956  1.00  0.00    -0.369 C  
HETATM    2  C   UNL     1      -9.423  10.498  64.423  1.00  0.00    -0.281 C  
ENDROOT
BRANCH   2   3
HETATM    3  O   UNL     1      -8.223   9.733  64.657  1.00  0.00    -0.133 OA 
BRANCH   3   4
HETATM    4  C   UNL     1      -7.756   9.781  65.947  1.00  0.00    -0.105 A  
HETATM    5  C   UNL     1      -7.591   8.582  66.657  1.00  0.00    -0.082 A  
HETATM    6  C   UNL     1      -7.177   8.636  68.001  1.00  0.00    -0.087 A  
HETATM    7  C   UNL     1      -7.852   7.214  66.097  1.00  0.00    -0.105 C  
HETATM    8  C   UNL     1      -6.930   9.855  68.627  1.00  0.00    -0.062 A  
HETATM    9  O   UNL     1      -7.784   6.199  66.779  1.00  0.00    -0.100 OA 
HETATM   10  O   UNL     1      -8.139   7.177  64.785  1.00  0.00    -0.125 OA 
HETATM   11  C   UNL     1      -7.066  11.051  67.916  1.00  0.00    -0.081 A  
HETATM   12  C   UNL     1      -7.439  10.999  66.570  1.00  0.00    -0.145 A  
BRANCH  11  13
HETATM   13  C   UNL     1      -6.818  12.383  68.577  1.00  0.00    -0.082 C  
BRANCH  13  14
HETATM   14  C   UNL     1      -7.870  13.423  68.244  1.00  0.00    -0.143 C  
HETATM   15  O   UNL     1      -7.565  14.430  67.608  1.00  0.00    -0.148 OA 
HETATM   16  N   UNL     1      -9.155  13.144  68.681  1.00  0.00    -0.387 N  
HETATM   17  H   UNL     1      -9.320  12.313  69.249  1.00  0.00     0.000 HD 
BRANCH  16  18
HETATM   18  C   UNL     1     -10.288  14.023  68.341  1.00  0.00    -0.251 C  
BRANCH  18  19
HETATM   19  C   UNL     1     -11.406  14.130  69.393  1.00  0.00    -0.318 A  
HETATM   20  C   UNL     1     -11.979  13.000  70.069  1.00  0.00    -0.312 A  
HETATM   21  C   UNL     1     -12.900  13.299  71.112  1.00  0.00    -0.363 A  
HETATM   22  C   UNL     1     -11.766  15.440  69.824  1.00  0.00    -0.352 A  
HETATM   23  C   UNL     1     -13.226  14.593  71.520  1.00  0.00    -0.428 A  
HETATM   24  C   UNL     1     -12.658  15.669  70.872  1.00  0.00    -0.503 A  
BRANCH  20  25
HETATM   25  N   UNL     1     -11.744  11.645  69.811  1.00  0.00    -0.331 NA 
HETATM   26  C   UNL     1     -12.016  11.077  68.471  1.00  0.00    -0.135 C  
HETATM   27  C   UNL     1     -10.825  10.218  68.033  1.00  0.00    -0.325 C  
HETATM   28  C   UNL     1     -10.568   9.098  69.034  1.00  0.00    -0.219 C  
HETATM   29  C   UNL     1     -10.386   9.670  70.427  1.00  0.00    -0.350 C  
HETATM   30  C   UNL     1     -11.510  10.617  70.825  1.00  0.00    -0.214 C  
ENDBRANCH  20  25
ENDBRANCH  18  19
BRANCH  18  31
HETATM   31  C   UNL     1     -10.920  13.660  66.983  1.00  0.00    -0.298 C  
HETATM   32  C   UNL     1     -10.628  15.945  65.822  1.00  0.00    -0.368 C  
HETATM   33  C   UNL     1     -10.396  14.434  65.756  1.00  0.00    -0.340 C  
HETATM   34  C   UNL     1     -11.100  13.900  64.503  1.00  0.00    -0.374 C  
ENDBRANCH  18  31
ENDBRANCH  16  18
ENDBRANCH  13  14
ENDBRANCH  11  13
ENDBRANCH   3   4
ENDBRANCH   2   3
TORSDOF 8
ENDMDL
MODEL       91
REMARK 921   NORMALIZED FREE ENERGY PREDICTED BY IDOCK:   -5.75 KCAL/MOL
REMARK 922        TOTAL FREE ENERGY PREDICTED BY IDOCK:  -10.84 KCAL/MOL
REMARK 923 INTER-LIGAND FREE ENERGY PREDICTED BY IDOCK:   -8.83 KCAL/MOL
REMARK 924 INTRA-LIGAND FREE ENERGY PREDICTED BY IDOCK:   -2.01 KCAL/MOL
REMARK 927      BINDING AFFINITY PREDICTED BY RF-SCORE:    0.00 PKD
ROOT
HETATM    1  C   UNL     1     -10.183  16.939  68.621  1.00  0.00    -0.301 C  
HETATM    2  C   UNL     1     -11.317  16.017  68.234  1.00  0.00    -0.326 C  
ENDROOT
BRANCH   2   3
HETATM    3  O   UNL     1     -11.955  15.524  69.430  1.00  0.00    -0.345 OA 
BRANCH   3   4
HETATM    4  C   UNL     1     -11.959  14.157  69.555  1.00  0.00    -0.340 A  
HETATM    5  C   UNL     1     -12.515  13.581  70.708  1.00  0.00    -0.428 A  
HETATM    6  C   UNL     1     -12.457  12.184  70.868  1.00  0.00    -0.374 A  
HETATM    7  C   UNL     1     -13.156  14.351  71.825  1.00  0.00    -0.354 C  
HETATM    8  C   UNL     1     -11.863  11.375  69.902  1.00  0.00    -0.435 A  
HETATM    9  O   UNL     1     -13.545  13.816  72.856  1.00  0.00    -0.681 OA 
HETATM   10  O   UNL     1     -13.299  15.669  71.604  1.00  0.00    -0.485 OA 
HETATM   11  C   UNL     1     -11.332  11.942  68.740  1.00  0.00    -0.330 A  
HETATM   12  C   UNL     1     -11.422  13.326  68.559  1.00  0.00    -0.347 A  
BRANCH  11  13
HETATM   13  C   UNL     1     -10.671  11.088  67.688  1.00  0.00    -0.281 C  
BRANCH  13  14
HETATM   14  C   UNL     1     -10.169   9.761  68.221  1.00  0.00    -0.183 C  
HETATM   15  O   UNL     1     -10.765   8.720  67.951  1.00  0.00    -0.203 OA 
HETATM   16  N   UNL     1      -9.018   9.815  68.989  1.00  0.00    -0.145 N  
HETATM   17  H   UNL     1      -8.609  10.722  69.214  1.00  0.00     0.000 HD 
BRANCH  16  18
HETATM   18  C   UNL     1      -8.370   8.588  69.487  1.00  0.00    -0.118 C  
BRANCH  18  19
HETATM   19  C   UNL     1      -7.948   8.593  70.967  1.00  0.00    -0.153 A  
HETATM   20  C   UNL     1      -8.740   8.033  72.026  1.00  0.00    -0.147 A  
HETATM   21  C   UNL     1      -8.129   7.999  73.310  1.00  0.00    -0.240 A  
HETATM   22  C   UNL     1      -6.626   9.036  71.262  1.00  0.00    -0.086 A  
HETATM   23  C   UNL     1      -6.827   8.431  73.568  1.00  0.00    -0.127 A  
HETATM   24  C   UNL     1      -6.072   8.953  72.540  1.00  0.00    -0.035 A  
BRANCH  20  25
HETATM   25  N   UNL     1     -10.044   7.531  71.940  1.00  0.00    -0.171 NA 
HETATM   26  C   UNL     1     -11.072   7.936  72.924  1.00  0.00    -0.379 C  
HETATM   27  C   UNL     1     -12.362   8.310  72.185  1.00  0.00    -0.410 C  
HETATM   28  C   UNL     1     -12.868   7.137  71.352  1.00  0.00    -0.431 C  
HETATM   29  C   UNL     1     -11.781   6.656  70.410  1.00  0.00    -0.446 C  
HETATM   30  C   UNL     1     -10.460   6.393  71.121  1.00  0.00    -0.221 C  
ENDBRANCH  20  25
ENDBRANCH  18  19
BRANCH  18  31
HETATM   31  C   UNL     1      -7.155   8.182  68.629  1.00  0.00    -0.072 C  
HETATM   32  C   UNL     1      -7.973   5.838  67.927  1.00  0.00    -0.098 C  
HETATM   33  C   UNL     1      -7.432   7.196  67.476  1.00  0.00    -0.101 C  
HETATM   34  C   UNL     1      -6.125   6.956  66.712  1.00  0.00    -0.037 C  
ENDBRANCH  18  31
ENDBRANCH  16  18
ENDBRANCH  13  14
ENDBRANCH  11  13
ENDBRANCH   3   4
ENDBRANCH   2   3
TORSDOF 8
ENDMDL
MODEL       92
REMARK 921   NORMALIZED FREE ENERGY PREDICTED BY IDOCK:   -5.74 KCAL/MOL
REMARK 922        TOTAL FREE ENERGY PREDICTED BY IDOCK:  -10.81 KCAL/MOL
REMARK 923 INTER-LIGAND FREE ENERGY PREDICTED BY IDOCK:   -9.33 KCAL/MOL
REMARK 924 INTRA-LIGAND FREE ENERGY PREDICTED BY IDOCK:   -1.49 KCAL/MOL
REMARK 927      BINDING AFFINITY PREDICTED BY RF-SCORE:    0.00 PKD
ROOT
HETATM    1  C   UNL     1      -9.472  10.113  64.330  1.00  0.00    -0.366 C  
HETATM    2  C   UNL     1     -10.071  10.559  65.645  1.00  0.00    -0.268 C  
ENDROOT
BRANCH   2   3
HETATM    3  O   UNL     1     -10.497   9.398  66.388  1.00  0.00    -0.204 OA 
BRANCH   3   4
HETATM    4  C   UNL     1     -10.479   9.554  67.752  1.00  0.00    -0.254 A  
HETATM    5  C   UNL     1      -9.763   8.634  68.533  1.00  0.00    -0.174 A  
HETATM    6  C   UNL     1      -9.801   8.754  69.934  1.00  0.00    -0.189 A  
HETATM    7  C   UNL     1      -8.962   7.489  67.986  1.00  0.00    -0.129 C  
HETATM    8  C   UNL     1     -10.533   9.768  70.548  1.00  0.00    -0.366 A  
HETATM    9  O   UNL     1      -8.428   6.655  68.707  1.00  0.00    -0.122 OA 
HETATM   10  O   UNL     1      -8.848   7.457  66.648  1.00  0.00    -0.130 OA 
HETATM   11  C   UNL     1     -11.226  10.703  69.773  1.00  0.00    -0.363 A  
HETATM   12  C   UNL     1     -11.159  10.610  68.380  1.00  0.00    -0.328 A  
BRANCH  11  13
HETATM   13  C   UNL     1     -12.037  11.800  70.415  1.00  0.00    -0.440 C  
BRANCH  13  14
HETATM   14  C   UNL     1     -11.823  13.157  69.774  1.00  0.00    -0.316 C  
HETATM   15  O   UNL     1     -12.696  14.020  69.849  1.00  0.00    -0.241 OA 
HETATM   16  N   UNL     1     -10.605  13.342  69.143  1.00  0.00    -0.436 N  
HETATM   17  H   UNL     1      -9.953  12.561  69.077  1.00  0.00     0.000 HD 
BRANCH  16  18
HETATM   18  C   UNL     1     -10.231  14.646  68.564  1.00  0.00    -0.240 C  
BRANCH  18  19
HETATM   19  C   UNL     1     -10.718  14.919  67.130  1.00  0.00    -0.296 A  
HETATM   20  C   UNL     1     -10.534  16.169  66.448  1.00  0.00    -0.301 A  
HETATM   21  C   UNL     1     -10.920  16.195  65.079  1.00  0.00    -0.357 A  
HETATM   22  C   UNL     1     -11.230  13.809  66.398  1.00  0.00    -0.321 A  
HETATM   23  C   UNL     1     -11.409  15.087  64.384  1.00  0.00    -0.207 A  
HETATM   24  C   UNL     1     -11.567  13.889  65.047  1.00  0.00    -0.350 A  
BRANCH  20  25
HETATM   25  N   UNL     1     -10.033  17.363  66.979  1.00  0.00    -0.284 NA 
HETATM   26  C   UNL     1      -8.661  17.814  66.654  1.00  0.00    -0.261 C  
HETATM   27  C   UNL     1      -8.692  19.299  66.276  1.00  0.00    -0.333 C  
HETATM   28  C   UNL     1      -9.260  20.136  67.417  1.00  0.00    -0.495 C  
HETATM   29  C   UNL     1     -10.627  19.614  67.819  1.00  0.00    -0.530 C  
HETATM   30  C   UNL     1     -10.629  18.114  68.084  1.00  0.00    -0.302 C  
ENDBRANCH  20  25
ENDBRANCH  18  19
BRANCH  18  31
HETATM   31  C   UNL     1      -8.712  14.896  68.627  1.00  0.00    -0.177 C  
HETATM   32  C   UNL     1      -7.932  12.666  67.591  1.00  0.00    -0.169 C  
HETATM   33  C   UNL     1      -7.858  14.194  67.552  1.00  0.00    -0.207 C  
HETATM   34  C   UNL     1      -6.393  14.603  67.745  1.00  0.00    -0.170 C  
ENDBRANCH  18  31
ENDBRANCH  16  18
ENDBRANCH  13  14
ENDBRANCH  11  13
ENDBRANCH   3   4
ENDBRANCH   2   3
TORSDOF 8
ENDMDL
MODEL       93
REMARK 921   NORMALIZED FREE ENERGY PREDICTED BY IDOCK:   -5.73 KCAL/MOL
REMARK 922        TOTAL FREE ENERGY PREDICTED BY IDOCK:  -10.81 KCAL/MOL
REMARK 923 INTER-LIGAND FREE ENERGY PREDICTED BY IDOCK:   -8.97 KCAL/MOL
REMARK 924 INTRA-LIGAND FREE ENERGY PREDICTED BY IDOCK:   -1.84 KCAL/MOL
REMARK 927      BINDING AFFINITY PREDICTED BY RF-SCORE:    0.00 PKD
ROOT
HETATM    1  C   UNL     1     -13.021  10.392  70.831  1.00  0.00    -0.475 C  
HETATM    2  C   UNL     1     -12.092  10.882  69.743  1.00  0.00    -0.338 C  
ENDROOT
BRANCH   2   3
HETATM    3  O   UNL     1     -11.286   9.779  69.279  1.00  0.00    -0.190 OA 
BRANCH   3   4
HETATM    4  C   UNL     1     -10.877   9.880  67.972  1.00  0.00    -0.243 A  
HETATM    5  C   UNL     1     -10.329   8.752  67.341  1.00  0.00    -0.349 A  
HETATM    6  C   UNL     1      -9.848   8.874  66.024  1.00  0.00    -0.277 A  
HETATM    7  C   UNL     1     -10.186   7.401  67.979  1.00  0.00    -0.191 C  
HETATM    8  C   UNL     1      -9.911  10.089  65.347  1.00  0.00    -0.384 A  
HETATM    9  O   UNL     1      -9.618   6.468  67.424  1.00  0.00    -0.121 OA 
HETATM   10  O   UNL     1     -10.749   7.277  69.192  1.00  0.00    -0.221 OA 
HETATM   11  C   UNL     1     -10.480  11.208  65.961  1.00  0.00    -0.312 A  
HETATM   12  C   UNL     1     -10.994  11.082  67.255  1.00  0.00    -0.356 A  
BRANCH  11  13
HETATM   13  C   UNL     1     -10.545  12.537  65.253  1.00  0.00    -0.319 C  
BRANCH  13  14
HETATM   14  C   UNL     1     -10.580  13.721  66.200  1.00  0.00    -0.291 C  
HETATM   15  O   UNL     1     -11.487  14.548  66.123  1.00  0.00    -0.347 OA 
HETATM   16  N   UNL     1      -9.559  13.778  67.133  1.00  0.00    -0.236 N  
HETATM   17  H   UNL     1      -8.812  13.084  67.100  1.00  0.00     0.000 HD 
BRANCH  16  18
HETATM   18  C   UNL     1      -9.528  14.822  68.173  1.00  0.00    -0.208 C  
BRANCH  18  19
HETATM   19  C   UNL     1      -8.138  15.356  68.562  1.00  0.00    -0.142 A  
HETATM   20  C   UNL     1      -7.758  16.738  68.474  1.00  0.00    -0.223 A  
HETATM   21  C   UNL     1      -6.483  17.069  69.011  1.00  0.00    -0.202 A  
HETATM   22  C   UNL     1      -7.248  14.441  69.196  1.00  0.00    -0.118 A  
HETATM   23  C   UNL     1      -5.636  16.152  69.635  1.00  0.00    -0.140 A  
HETATM   24  C   UNL     1      -6.019  14.832  69.727  1.00  0.00    -0.123 A  
BRANCH  20  25
HETATM   25  N   UNL     1      -8.491  17.787  67.909  1.00  0.00    -0.240 NA 
HETATM   26  C   UNL     1      -8.823  17.782  66.467  1.00  0.00    -0.262 C  
HETATM   27  C   UNL     1     -10.304  18.133  66.286  1.00  0.00    -0.407 C  
HETATM   28  C   UNL     1     -10.614  19.499  66.889  1.00  0.00    -0.602 C  
HETATM   29  C   UNL     1     -10.185  19.539  68.344  1.00  0.00    -0.536 C  
HETATM   30  C   UNL     1      -8.747  19.080  68.545  1.00  0.00    -0.357 C  
ENDBRANCH  20  25
ENDBRANCH  18  19
BRANCH  18  31
HETATM   31  C   UNL     1     -10.268  14.389  69.455  1.00  0.00     0.004 C  
HETATM   32  C   UNL     1     -12.154  16.148  69.399  1.00  0.00     0.040 C  
HETATM   33  C   UNL     1     -11.784  14.666  69.496  1.00  0.00    -0.366 C  
HETATM   34  C   UNL     1     -12.346  14.122  70.814  1.00  0.00    -0.439 C  
ENDBRANCH  18  31
ENDBRANCH  16  18
ENDBRANCH  13  14
ENDBRANCH  11  13
ENDBRANCH   3   4
ENDBRANCH   2   3
TORSDOF 8
ENDMDL
MODEL       94
REMARK 921   NORMALIZED FREE ENERGY PREDICTED BY IDOCK:   -5.73 KCAL/MOL
REMARK 922        TOTAL FREE ENERGY PREDICTED BY IDOCK:  -10.80 KCAL/MOL
REMARK 923 INTER-LIGAND FREE ENERGY PREDICTED BY IDOCK:   -8.97 KCAL/MOL
REMARK 924 INTRA-LIGAND FREE ENERGY PREDICTED BY IDOCK:   -1.83 KCAL/MOL
REMARK 927      BINDING AFFINITY PREDICTED BY RF-SCORE:    0.00 PKD
ROOT
HETATM    1  C   UNL     1     -11.959   9.690  71.333  1.00  0.00    -0.480 C  
HETATM    2  C   UNL     1     -10.514   9.298  71.120  1.00  0.00    -0.331 C  
ENDROOT
BRANCH   2   3
HETATM    3  O   UNL     1     -10.439   7.876  70.888  1.00  0.00    -0.201 OA 
BRANCH   3   4
HETATM    4  C   UNL     1     -10.346   7.515  69.567  1.00  0.00    -0.216 A  
HETATM    5  C   UNL     1     -10.210   6.157  69.240  1.00  0.00    -0.251 A  
HETATM    6  C   UNL     1     -10.046   5.794  67.890  1.00  0.00    -0.197 A  
HETATM    7  C   UNL     1     -10.195   5.035  70.236  1.00  0.00    -0.258 C  
HETATM    8  C   UNL     1     -10.021   6.758  66.885  1.00  0.00    -0.252 A  
HETATM    9  O   UNL     1      -9.981   3.872  69.916  1.00  0.00    -0.151 OA 
HETATM   10  O   UNL     1     -10.462   5.391  71.504  1.00  0.00    -0.217 OA 
HETATM   11  C   UNL     1     -10.184   8.110  67.204  1.00  0.00    -0.366 A  
HETATM   12  C   UNL     1     -10.385   8.471  68.539  1.00  0.00    -0.230 A  
BRANCH  11  13
HETATM   13  C   UNL     1     -10.146   9.172  66.135  1.00  0.00    -0.278 C  
BRANCH  13  14
HETATM   14  C   UNL     1      -9.549  10.482  66.612  1.00  0.00    -0.172 C  
HETATM   15  O   UNL     1      -8.347  10.559  66.862  1.00  0.00    -0.123 OA 
HETATM   16  N   UNL     1     -10.431  11.544  66.717  1.00  0.00    -0.230 N  
HETATM   17  H   UNL     1     -11.423  11.389  66.543  1.00  0.00     0.000 HD 
BRANCH  16  18
HETATM   18  C   UNL     1      -9.963  12.896  67.075  1.00  0.00    -0.244 C  
BRANCH  18  19
HETATM   19  C   UNL     1     -10.560  13.506  68.356  1.00  0.00    -0.258 A  
HETATM   20  C   UNL     1     -10.251  14.824  68.834  1.00  0.00    -0.237 A  
HETATM   21  C   UNL     1     -11.004  15.274  69.953  1.00  0.00    -0.303 A  
HETATM   22  C   UNL     1     -11.597  12.771  69.000  1.00  0.00    -0.366 A  
HETATM   23  C   UNL     1     -12.022  14.536  70.558  1.00  0.00    -0.387 A  
HETATM   24  C   UNL     1     -12.319  13.277  70.081  1.00  0.00    -0.306 A  
BRANCH  20  25
HETATM   25  N   UNL     1      -9.287  15.707  68.332  1.00  0.00    -0.192 NA 
HETATM   26  C   UNL     1      -7.847  15.457  68.563  1.00  0.00    -0.134 C  
HETATM   27  C   UNL     1      -7.083  15.640  67.246  1.00  0.00    -0.242 C  
HETATM   28  C   UNL     1      -7.288  17.045  66.692  1.00  0.00    -0.296 C  
HETATM   29  C   UNL     1      -8.769  17.339  66.546  1.00  0.00    -0.293 C  
HETATM   30  C   UNL     1      -9.555  17.050  67.818  1.00  0.00    -0.244 C  
ENDBRANCH  20  25
ENDBRANCH  18  19
BRANCH  18  31
HETATM   31  C   UNL     1     -10.143  13.900  65.920  1.00  0.00    -0.331 C  
HETATM   32  C   UNL     1     -12.624  13.415  65.400  1.00  0.00    -0.528 C  
HETATM   33  C   UNL     1     -11.563  14.470  65.724  1.00  0.00    -0.347 C  
HETATM   34  C   UNL     1     -11.531  15.480  64.572  1.00  0.00    -0.311 C  
ENDBRANCH  18  31
ENDBRANCH  16  18
ENDBRANCH  13  14
ENDBRANCH  11  13
ENDBRANCH   3   4
ENDBRANCH   2   3
TORSDOF 8
ENDMDL
MODEL       95
REMARK 921   NORMALIZED FREE ENERGY PREDICTED BY IDOCK:   -5.72 KCAL/MOL
REMARK 922        TOTAL FREE ENERGY PREDICTED BY IDOCK:  -10.79 KCAL/MOL
REMARK 923 INTER-LIGAND FREE ENERGY PREDICTED BY IDOCK:   -8.94 KCAL/MOL
REMARK 924 INTRA-LIGAND FREE ENERGY PREDICTED BY IDOCK:   -1.86 KCAL/MOL
REMARK 927      BINDING AFFINITY PREDICTED BY RF-SCORE:    0.00 PKD
ROOT
HETATM    1  C   UNL     1     -11.352  13.508  66.227  1.00  0.00    -0.327 C  
HETATM    2  C   UNL     1     -11.494  12.499  67.344  1.00  0.00    -0.341 C  
ENDROOT
BRANCH   2   3
HETATM    3  O   UNL     1     -11.095  13.111  68.587  1.00  0.00    -0.245 OA 
BRANCH   3   4
HETATM    4  C   UNL     1     -11.813  12.701  69.683  1.00  0.00    -0.311 A  
HETATM    5  C   UNL     1     -12.403  13.669  70.511  1.00  0.00    -0.425 A  
HETATM    6  C   UNL     1     -13.081  13.251  71.672  1.00  0.00    -0.453 A  
HETATM    7  C   UNL     1     -12.346  15.149  70.272  1.00  0.00    -0.352 C  
HETATM    8  C   UNL     1     -13.175  11.902  72.002  1.00  0.00    -0.461 A  
HETATM    9  O   UNL     1     -12.795  15.963  71.069  1.00  0.00    -0.445 OA 
HETATM   10  O   UNL     1     -11.791  15.520  69.106  1.00  0.00    -0.347 OA 
HETATM   11  C   UNL     1     -12.612  10.932  71.166  1.00  0.00    -0.532 A  
HETATM   12  C   UNL     1     -11.971  11.341  69.992  1.00  0.00    -0.447 A  
BRANCH  11  13
HETATM   13  C   UNL     1     -12.688   9.467  71.510  1.00  0.00    -0.461 C  
BRANCH  13  14
HETATM   14  C   UNL     1     -11.585   8.643  70.873  1.00  0.00    -0.269 C  
HETATM   15  O   UNL     1     -11.818   7.505  70.471  1.00  0.00    -0.232 OA 
HETATM   16  N   UNL     1     -10.351   9.263  70.769  1.00  0.00    -0.258 N  
HETATM   17  H   UNL     1     -10.222  10.190  71.174  1.00  0.00     0.000 HD 
BRANCH  16  18
HETATM   18  C   UNL     1      -9.221   8.611  70.083  1.00  0.00    -0.159 C  
BRANCH  18  19
HETATM   19  C   UNL     1      -7.878   8.611  70.834  1.00  0.00    -0.129 A  
HETATM   20  C   UNL     1      -7.574   7.735  71.930  1.00  0.00    -0.086 A  
HETATM   21  C   UNL     1      -6.235   7.776  72.408  1.00  0.00    -0.045 A  
HETATM   22  C   UNL     1      -6.834   9.417  70.293  1.00  0.00    -0.080 A  
HETATM   23  C   UNL     1      -5.230   8.569  71.851  1.00  0.00    -0.037 A  
HETATM   24  C   UNL     1      -5.531   9.395  70.790  1.00  0.00    -0.039 A  
BRANCH  20  25
HETATM   25  N   UNL     1      -8.446   6.858  72.586  1.00  0.00    -0.116 NA 
HETATM   26  C   UNL     1      -9.075   7.244  73.869  1.00  0.00    -0.233 C  
HETATM   27  C   UNL     1     -10.572   6.919  73.818  1.00  0.00    -0.333 C  
HETATM   28  C   UNL     1     -10.794   5.434  73.552  1.00  0.00    -0.342 C  
HETATM   29  C   UNL     1     -10.069   5.014  72.288  1.00  0.00    -0.245 C  
HETATM   30  C   UNL     1      -8.605   5.437  72.282  1.00  0.00    -0.126 C  
ENDBRANCH  20  25
ENDBRANCH  18  19
BRANCH  18  31
HETATM   31  C   UNL     1      -8.996   9.175  68.666  1.00  0.00    -0.136 C  
HETATM   32  C   UNL     1     -10.509   7.531  67.375  1.00  0.00    -0.367 C  
HETATM   33  C   UNL     1     -10.154   8.992  67.665  1.00  0.00    -0.271 C  
HETATM   34  C   UNL     1      -9.767   9.657  66.340  1.00  0.00    -0.285 C  
ENDBRANCH  18  31
ENDBRANCH  16  18
ENDBRANCH  13  14
ENDBRANCH  11  13
ENDBRANCH   3   4
ENDBRANCH   2   3
TORSDOF 8
ENDMDL
MODEL       96
REMARK 921   NORMALIZED FREE ENERGY PREDICTED BY IDOCK:   -5.71 KCAL/MOL
REMARK 922        TOTAL FREE ENERGY PREDICTED BY IDOCK:  -10.77 KCAL/MOL
REMARK 923 INTER-LIGAND FREE ENERGY PREDICTED BY IDOCK:   -8.57 KCAL/MOL
REMARK 924 INTRA-LIGAND FREE ENERGY PREDICTED BY IDOCK:   -2.21 KCAL/MOL
REMARK 927      BINDING AFFINITY PREDICTED BY RF-SCORE:    0.00 PKD
ROOT
HETATM    1  C   UNL     1     -12.067  12.939  63.247  1.00  0.00    -0.520 C  
HETATM    2  C   UNL     1     -10.808  12.314  63.804  1.00  0.00    -0.442 C  
ENDROOT
BRANCH   2   3
HETATM    3  O   UNL     1     -10.583  12.812  65.139  1.00  0.00    -0.287 OA 
BRANCH   3   4
HETATM    4  C   UNL     1     -10.641  11.857  66.123  1.00  0.00    -0.258 A  
HETATM    5  C   UNL     1     -11.269  12.170  67.339  1.00  0.00    -0.362 A  
HETATM    6  C   UNL     1     -11.268  11.214  68.372  1.00  0.00    -0.325 A  
HETATM    7  C   UNL     1     -11.932  13.480  67.647  1.00  0.00    -0.336 C  
HETATM    8  C   UNL     1     -10.659   9.973  68.202  1.00  0.00    -0.268 A  
HETATM    9  O   UNL     1     -12.386  13.745  68.753  1.00  0.00    -0.284 OA 
HETATM   10  O   UNL     1     -12.018  14.335  66.614  1.00  0.00    -0.410 OA 
HETATM   11  C   UNL     1     -10.057   9.647  66.983  1.00  0.00    -0.275 A  
HETATM   12  C   UNL     1     -10.090  10.579  65.941  1.00  0.00    -0.323 A  
BRANCH  11  13
HETATM   13  C   UNL     1      -9.380   8.316  66.779  1.00  0.00    -0.232 C  
BRANCH  13  14
HETATM   14  C   UNL     1      -9.127   7.568  68.074  1.00  0.00    -0.131 C  
HETATM   15  O   UNL     1      -8.172   7.872  68.787  1.00  0.00    -0.124 OA 
HETATM   16  N   UNL     1     -10.035   6.569  68.383  1.00  0.00    -0.136 N  
HETATM   17  H   UNL     1     -10.771   6.339  67.715  1.00  0.00     0.000 HD 
BRANCH  16  18
HETATM   18  C   UNL     1      -9.961   5.832  69.657  1.00  0.00    -0.189 C  
BRANCH  18  19
HETATM   19  C   UNL     1      -9.578   4.344  69.562  1.00  0.00    -0.271 A  
HETATM   20  C   UNL     1      -9.434   3.481  70.700  1.00  0.00    -0.173 A  
HETATM   21  C   UNL     1      -9.218   2.104  70.415  1.00  0.00    -0.186 A  
HETATM   22  C   UNL     1      -9.528   3.771  68.258  1.00  0.00    -0.215 A  
HETATM   23  C   UNL     1      -9.184   1.569  69.127  1.00  0.00    -0.176 A  
HETATM   24  C   UNL     1      -9.338   2.406  68.042  1.00  0.00    -0.253 A  
BRANCH  20  25
HETATM   25  N   UNL     1      -9.470   3.842  72.052  1.00  0.00    -0.128 NA 
HETATM   26  C   UNL     1      -8.261   4.375  72.720  1.00  0.00    -0.098 C  
HETATM   27  C   UNL     1      -8.637   5.622  73.529  1.00  0.00    -0.114 C  
HETATM   28  C   UNL     1      -9.705   5.292  74.566  1.00  0.00    -0.193 C  
HETATM   29  C   UNL     1     -10.908   4.655  73.895  1.00  0.00    -0.359 C  
HETATM   30  C   UNL     1     -10.528   3.485  72.996  1.00  0.00    -0.166 C  
ENDBRANCH  20  25
ENDBRANCH  18  19
BRANCH  18  31
HETATM   31  C   UNL     1     -11.259   5.957  70.479  1.00  0.00    -0.293 C  
HETATM   32  C   UNL     1     -10.648   8.085  71.803  1.00  0.00    -0.296 C  
HETATM   33  C   UNL     1     -11.666   7.383  70.901  1.00  0.00    -0.325 C  
HETATM   34  C   UNL     1     -12.997   7.309  71.657  1.00  0.00    -0.417 C  
ENDBRANCH  18  31
ENDBRANCH  16  18
ENDBRANCH  13  14
ENDBRANCH  11  13
ENDBRANCH   3   4
ENDBRANCH   2   3
TORSDOF 8
ENDMDL
MODEL       97
REMARK 921   NORMALIZED FREE ENERGY PREDICTED BY IDOCK:   -5.71 KCAL/MOL
REMARK 922        TOTAL FREE ENERGY PREDICTED BY IDOCK:  -10.77 KCAL/MOL
REMARK 923 INTER-LIGAND FREE ENERGY PREDICTED BY IDOCK:   -8.78 KCAL/MOL
REMARK 924 INTRA-LIGAND FREE ENERGY PREDICTED BY IDOCK:   -1.99 KCAL/MOL
REMARK 927      BINDING AFFINITY PREDICTED BY RF-SCORE:    0.00 PKD
ROOT
HETATM    1  C   UNL     1     -12.240  12.905  63.371  1.00  0.00    -0.574 C  
HETATM    2  C   UNL     1     -10.791  12.623  63.698  1.00  0.00    -0.395 C  
ENDROOT
BRANCH   2   3
HETATM    3  O   UNL     1     -10.517  13.059  65.046  1.00  0.00    -0.304 OA 
BRANCH   3   4
HETATM    4  C   UNL     1     -10.742  12.108  66.011  1.00  0.00    -0.273 A  
HETATM    5  C   UNL     1     -11.353  12.493  67.215  1.00  0.00    -0.373 A  
HETATM    6  C   UNL     1     -11.522  11.533  68.231  1.00  0.00    -0.368 A  
HETATM    7  C   UNL     1     -11.828  13.882  67.528  1.00  0.00    -0.396 C  
HETATM    8  C   UNL     1     -11.096  10.219  68.054  1.00  0.00    -0.336 A  
HETATM    9  O   UNL     1     -12.271  14.194  68.626  1.00  0.00    -0.313 OA 
HETATM   10  O   UNL     1     -11.758  14.754  66.509  1.00  0.00    -0.350 OA 
HETATM   11  C   UNL     1     -10.512   9.825  66.846  1.00  0.00    -0.281 A  
HETATM   12  C   UNL     1     -10.378  10.766  65.821  1.00  0.00    -0.295 A  
BRANCH  11  13
HETATM   13  C   UNL     1     -10.031   8.412  66.638  1.00  0.00    -0.354 C  
BRANCH  13  14
HETATM   14  C   UNL     1      -9.489   7.770  67.900  1.00  0.00    -0.144 C  
HETATM   15  O   UNL     1      -8.386   8.096  68.335  1.00  0.00    -0.124 OA 
HETATM   16  N   UNL     1     -10.316   6.842  68.509  1.00  0.00    -0.179 N  
HETATM   17  H   UNL     1     -11.195   6.585  68.059  1.00  0.00     0.000 HD 
BRANCH  16  18
HETATM   18  C   UNL     1      -9.953   6.216  69.793  1.00  0.00    -0.170 C  
BRANCH  18  19
HETATM   19  C   UNL     1      -9.832   4.682  69.794  1.00  0.00    -0.296 A  
HETATM   20  C   UNL     1      -9.461   3.908  68.642  1.00  0.00    -0.150 A  
HETATM   21  C   UNL     1      -9.260   2.518  68.863  1.00  0.00    -0.219 A  
HETATM   22  C   UNL     1      -9.938   4.025  71.054  1.00  0.00    -0.176 A  
HETATM   23  C   UNL     1      -9.361   1.903  70.112  1.00  0.00    -0.168 A  
HETATM   24  C   UNL     1      -9.704   2.659  71.213  1.00  0.00    -0.202 A  
BRANCH  20  25
HETATM   25  N   UNL     1      -9.289   4.365  67.330  1.00  0.00    -0.144 NA 
HETATM   26  C   UNL     1      -7.965   4.836  66.866  1.00  0.00    -0.103 C  
HETATM   27  C   UNL     1      -7.654   4.210  65.502  1.00  0.00    -0.085 C  
HETATM   28  C   UNL     1      -8.726   4.575  64.482  1.00  0.00    -0.148 C  
HETATM   29  C   UNL     1     -10.097   4.181  64.998  1.00  0.00    -0.220 C  
HETATM   30  C   UNL     1     -10.368   4.703  66.403  1.00  0.00    -0.226 C  
ENDBRANCH  20  25
ENDBRANCH  18  19
BRANCH  18  31
HETATM   31  C   UNL     1     -10.900   6.637  70.934  1.00  0.00    -0.297 C  
HETATM   32  C   UNL     1      -9.788   8.891  71.517  1.00  0.00    -0.384 C  
HETATM   33  C   UNL     1     -11.078   8.154  71.151  1.00  0.00    -0.279 C  
HETATM   34  C   UNL     1     -12.087   8.372  72.283  1.00  0.00    -0.456 C  
ENDBRANCH  18  31
ENDBRANCH  16  18
ENDBRANCH  13  14
ENDBRANCH  11  13
ENDBRANCH   3   4
ENDBRANCH   2   3
TORSDOF 8
ENDMDL
MODEL       98
REMARK 921   NORMALIZED FREE ENERGY PREDICTED BY IDOCK:   -5.70 KCAL/MOL
REMARK 922        TOTAL FREE ENERGY PREDICTED BY IDOCK:  -10.76 KCAL/MOL
REMARK 923 INTER-LIGAND FREE ENERGY PREDICTED BY IDOCK:   -8.07 KCAL/MOL
REMARK 924 INTRA-LIGAND FREE ENERGY PREDICTED BY IDOCK:   -2.69 KCAL/MOL
REMARK 927      BINDING AFFINITY PREDICTED BY RF-SCORE:    0.00 PKD
ROOT
HETATM    1  C   UNL     1     -12.447  12.200  63.415  1.00  0.00    -0.625 C  
HETATM    2  C   UNL     1     -10.942  12.349  63.390  1.00  0.00    -0.386 C  
ENDROOT
BRANCH   2   3
HETATM    3  O   UNL     1     -10.485  12.747  64.699  1.00  0.00    -0.316 OA 
BRANCH   3   4
HETATM    4  C   UNL     1     -10.615  11.784  65.668  1.00  0.00    -0.268 A  
HETATM    5  C   UNL     1     -11.226  12.122  66.887  1.00  0.00    -0.375 A  
HETATM    6  C   UNL     1     -11.298  11.153  67.905  1.00  0.00    -0.378 A  
HETATM    7  C   UNL     1     -11.797  13.471  67.212  1.00  0.00    -0.385 C  
HETATM    8  C   UNL     1     -10.778   9.875  67.718  1.00  0.00    -0.332 A  
HETATM    9  O   UNL     1     -12.237  13.750  68.320  1.00  0.00    -0.335 OA 
HETATM   10  O   UNL     1     -11.817  14.345  66.192  1.00  0.00    -0.381 OA 
HETATM   11  C   UNL     1     -10.193   9.525  66.496  1.00  0.00    -0.307 A  
HETATM   12  C   UNL     1     -10.155  10.473  65.469  1.00  0.00    -0.349 A  
BRANCH  11  13
HETATM   13  C   UNL     1      -9.611   8.153  66.275  1.00  0.00    -0.248 C  
BRANCH  13  14
HETATM   14  C   UNL     1     -10.082   7.131  67.292  1.00  0.00    -0.215 C  
HETATM   15  O   UNL     1     -11.172   6.579  67.154  1.00  0.00    -0.388 OA 
HETATM   16  N   UNL     1      -9.208   6.867  68.332  1.00  0.00    -0.126 N  
HETATM   17  H   UNL     1      -8.344   7.404  68.408  1.00  0.00     0.000 HD 
BRANCH  16  18
HETATM   18  C   UNL     1      -9.500   5.825  69.334  1.00  0.00    -0.130 C  
BRANCH  18  19
HETATM   19  C   UNL     1      -9.697   6.308  70.782  1.00  0.00    -0.202 A  
HETATM   20  C   UNL     1      -8.979   7.407  71.363  1.00  0.00    -0.137 A  
HETATM   21  C   UNL     1      -9.393   7.804  72.665  1.00  0.00    -0.246 A  
HETATM   22  C   UNL     1     -10.770   5.726  71.517  1.00  0.00    -0.319 A  
HETATM   23  C   UNL     1     -10.456   7.221  73.358  1.00  0.00    -0.423 A  
HETATM   24  C   UNL     1     -11.146   6.176  72.783  1.00  0.00    -0.294 A  
BRANCH  20  25
HETATM   25  N   UNL     1      -7.914   8.121  70.801  1.00  0.00    -0.093 NA 
HETATM   26  C   UNL     1      -6.525   7.629  70.938  1.00  0.00    -0.038 C  
HETATM   27  C   UNL     1      -5.827   7.696  69.575  1.00  0.00    -0.023 C  
HETATM   28  C   UNL     1      -5.827   9.122  69.036  1.00  0.00    -0.039 C  
HETATM   29  C   UNL     1      -7.243   9.664  68.986  1.00  0.00    -0.071 C  
HETATM   30  C   UNL     1      -7.983   9.496  70.307  1.00  0.00    -0.175 C  
ENDBRANCH  20  25
ENDBRANCH  18  19
BRANCH  18  31
HETATM   31  C   UNL     1      -8.446   4.700  69.328  1.00  0.00    -0.090 C  
HETATM   32  C   UNL     1      -9.349   3.367  67.311  1.00  0.00    -0.237 C  
HETATM   33  C   UNL     1      -8.145   4.052  67.960  1.00  0.00    -0.088 C  
HETATM   34  C   UNL     1      -7.044   3.002  68.148  1.00  0.00    -0.049 C  
ENDBRANCH  18  31
ENDBRANCH  16  18
ENDBRANCH  13  14
ENDBRANCH  11  13
ENDBRANCH   3   4
ENDBRANCH   2   3
TORSDOF 8
ENDMDL
MODEL       99
REMARK 921   NORMALIZED FREE ENERGY PREDICTED BY IDOCK:   -5.69 KCAL/MOL
REMARK 922        TOTAL FREE ENERGY PREDICTED BY IDOCK:  -10.74 KCAL/MOL
REMARK 923 INTER-LIGAND FREE ENERGY PREDICTED BY IDOCK:   -8.53 KCAL/MOL
REMARK 924 INTRA-LIGAND FREE ENERGY PREDICTED BY IDOCK:   -2.22 KCAL/MOL
REMARK 927      BINDING AFFINITY PREDICTED BY RF-SCORE:    0.00 PKD
ROOT
HETATM    1  C   UNL     1     -12.485  15.783  72.422  1.00  0.00    -0.540 C  
HETATM    2  C   UNL     1     -11.292  15.408  71.573  1.00  0.00    -0.396 C  
ENDROOT
BRANCH   2   3
HETATM    3  O   UNL     1     -11.269  16.240  70.395  1.00  0.00    -0.373 OA 
BRANCH   3   4
HETATM    4  C   UNL     1     -11.262  15.552  69.208  1.00  0.00    -0.310 A  
HETATM    5  C   UNL     1     -10.921  16.232  68.028  1.00  0.00    -0.328 A  
HETATM    6  C   UNL     1     -10.980  15.544  66.802  1.00  0.00    -0.257 A  
HETATM    7  C   UNL     1     -10.516  17.676  67.960  1.00  0.00    -0.394 C  
HETATM    8  C   UNL     1     -11.367  14.207  66.748  1.00  0.00    -0.353 A  
HETATM    9  O   UNL     1     -10.317  18.255  66.900  1.00  0.00    -0.355 OA 
HETATM   10  O   UNL     1     -10.360  18.284  69.148  1.00  0.00    -0.275 OA 
HETATM   11  C   UNL     1     -11.681  13.517  67.923  1.00  0.00    -0.392 A  
HETATM   12  C   UNL     1     -11.586  14.187  69.146  1.00  0.00    -0.349 A  
BRANCH  11  13
HETATM   13  C   UNL     1     -12.116  12.075  67.887  1.00  0.00    -0.002 C  
BRANCH  13  14
HETATM   14  C   UNL     1     -11.674  11.285  69.104  1.00  0.00    -0.341 C  
HETATM   15  O   UNL     1     -12.309  11.360  70.155  1.00  0.00    -0.297 OA 
HETATM   16  N   UNL     1     -10.554  10.488  68.933  1.00  0.00    -0.201 N  
HETATM   17  H   UNL     1     -10.050  10.518  68.047  1.00  0.00     0.000 HD 
BRANCH  16  18
HETATM   18  C   UNL     1     -10.077   9.596  70.006  1.00  0.00    -0.252 C  
BRANCH  18  19
HETATM   19  C   UNL     1      -8.572   9.276  70.006  1.00  0.00    -0.193 A  
HETATM   20  C   UNL     1      -7.729   9.393  68.850  1.00  0.00    -0.076 A  
HETATM   21  C   UNL     1      -6.338   9.194  69.070  1.00  0.00    -0.043 A  
HETATM   22  C   UNL     1      -7.968   9.007  71.269  1.00  0.00    -0.139 A  
HETATM   23  C   UNL     1      -5.773   8.943  70.321  1.00  0.00    -0.033 A  
HETATM   24  C   UNL     1      -6.591   8.847  71.426  1.00  0.00    -0.081 A  
BRANCH  20  25
HETATM   25  N   UNL     1      -8.122   9.667  67.535  1.00  0.00    -0.113 NA 
HETATM   26  C   UNL     1      -8.684   8.597  66.680  1.00  0.00    -0.123 C  
HETATM   27  C   UNL     1      -9.945   9.117  65.981  1.00  0.00    -0.293 C  
HETATM   28  C   UNL     1      -9.628  10.348  65.138  1.00  0.00    -0.329 C  
HETATM   29  C   UNL     1      -8.961  11.410  65.992  1.00  0.00    -0.203 C  
HETATM   30  C   UNL     1      -7.775  10.871  66.780  1.00  0.00    -0.141 C  
ENDBRANCH  20  25
ENDBRANCH  18  19
BRANCH  18  31
HETATM   31  C   UNL     1     -10.864   8.271  70.054  1.00  0.00    -0.232 C  
HETATM   32  C   UNL     1     -11.014   8.030  72.618  1.00  0.00    -0.448 C  
HETATM   33  C   UNL     1     -11.767   8.056  71.286  1.00  0.00    -0.311 C  
HETATM   34  C   UNL     1     -12.500   6.719  71.129  1.00  0.00    -0.351 C  
ENDBRANCH  18  31
ENDBRANCH  16  18
ENDBRANCH  13  14
ENDBRANCH  11  13
ENDBRANCH   3   4
ENDBRANCH   2   3
TORSDOF 8
ENDMDL
MODEL      100
REMARK 921   NORMALIZED FREE ENERGY PREDICTED BY IDOCK:   -5.67 KCAL/MOL
REMARK 922        TOTAL FREE ENERGY PREDICTED BY IDOCK:  -10.71 KCAL/MOL
REMARK 923 INTER-LIGAND FREE ENERGY PREDICTED BY IDOCK:   -9.32 KCAL/MOL
REMARK 924 INTRA-LIGAND FREE ENERGY PREDICTED BY IDOCK:   -1.39 KCAL/MOL
REMARK 927      BINDING AFFINITY PREDICTED BY RF-SCORE:    0.00 PKD
ROOT
HETATM    1  C   UNL     1      -9.319   8.567  69.038  1.00  0.00    -0.146 C  
HETATM    2  C   UNL     1      -9.942   9.281  70.216  1.00  0.00    -0.219 C  
ENDROOT
BRANCH   2   3
HETATM    3  O   UNL     1     -11.360   9.418  69.990  1.00  0.00    -0.226 OA 
BRANCH   3   4
HETATM    4  C   UNL     1     -11.921  10.545  70.537  1.00  0.00    -0.342 A  
HETATM    5  C   UNL     1     -12.894  10.403  71.539  1.00  0.00    -0.569 A  
HETATM    6  C   UNL     1     -13.518  11.556  72.051  1.00  0.00    -0.298 A  
HETATM    7  C   UNL     1     -13.356   9.092  72.103  1.00  0.00    -0.455 C  
HETATM    8  C   UNL     1     -13.181  12.823  71.582  1.00  0.00    -0.410 A  
HETATM    9  O   UNL     1     -14.274   9.008  72.910  1.00  0.00    -0.528 OA 
HETATM   10  O   UNL     1     -12.674   8.014  71.681  1.00  0.00    -0.313 OA 
HETATM   11  C   UNL     1     -12.193  12.971  70.604  1.00  0.00    -0.390 A  
HETATM   12  C   UNL     1     -11.544  11.831  70.120  1.00  0.00    -0.281 A  
BRANCH  11  13
HETATM   13  C   UNL     1     -11.822  14.331  70.070  1.00  0.00    -0.378 C  
BRANCH  13  14
HETATM   14  C   UNL     1     -11.684  14.366  68.561  1.00  0.00    -0.335 C  
HETATM   15  O   UNL     1     -12.505  13.787  67.851  1.00  0.00    -0.113 OA 
HETATM   16  N   UNL     1     -10.613  15.092  68.068  1.00  0.00    -0.253 N  
HETATM   17  H   UNL     1      -9.944  15.501  68.721  1.00  0.00     0.000 HD 
BRANCH  16  18
HETATM   18  C   UNL     1     -10.419  15.288  66.620  1.00  0.00    -0.290 C  
BRANCH  18  19
HETATM   19  C   UNL     1     -10.216  14.013  65.782  1.00  0.00    -0.343 A  
HETATM   20  C   UNL     1      -9.307  12.959  66.137  1.00  0.00    -0.092 A  
HETATM   21  C   UNL     1      -9.355  11.794  65.322  1.00  0.00    -0.058 A  
HETATM   22  C   UNL     1     -11.103  13.811  64.686  1.00  0.00    -0.391 A  
HETATM   23  C   UNL     1     -10.243  11.620  64.260  1.00  0.00    -0.357 A  
HETATM   24  C   UNL     1     -11.120  12.633  63.938  1.00  0.00    -0.476 A  
BRANCH  20  25
HETATM   25  N   UNL     1      -8.375  12.955  67.181  1.00  0.00    -0.179 NA 
HETATM   26  C   UNL     1      -8.526  12.020  68.319  1.00  0.00    -0.167 C  
HETATM   27  C   UNL     1      -7.179  11.348  68.606  1.00  0.00    -0.100 C  
HETATM   28  C   UNL     1      -6.111  12.390  68.922  1.00  0.00    -0.074 C  
HETATM   29  C   UNL     1      -6.022  13.407  67.800  1.00  0.00    -0.141 C  
HETATM   30  C   UNL     1      -7.378  13.995  67.431  1.00  0.00    -0.114 C  
ENDBRANCH  20  25
ENDBRANCH  18  19
BRANCH  18  31
HETATM   31  C   UNL     1      -9.271  16.270  66.313  1.00  0.00    -0.363 C  
HETATM   32  C   UNL     1     -10.642  18.455  66.350  1.00  0.00    -0.342 C  
HETATM   33  C   UNL     1      -9.423  17.697  66.879  1.00  0.00    -0.278 C  
HETATM   34  C   UNL     1      -8.170  18.502  66.517  1.00  0.00    -0.299 C  
ENDBRANCH  18  31
ENDBRANCH  16  18
ENDBRANCH  13  14
ENDBRANCH  11  13
ENDBRANCH   3   4
ENDBRANCH   2   3
TORSDOF 8
ENDMDL
MODEL      101
REMARK 921   NORMALIZED FREE ENERGY PREDICTED BY IDOCK:   -5.66 KCAL/MOL
REMARK 922        TOTAL FREE ENERGY PREDICTED BY IDOCK:  -10.71 KCAL/MOL
REMARK 923 INTER-LIGAND FREE ENERGY PREDICTED BY IDOCK:   -9.35 KCAL/MOL
REMARK 924 INTRA-LIGAND FREE ENERGY PREDICTED BY IDOCK:   -1.36 KCAL/MOL
REMARK 927      BINDING AFFINITY PREDICTED BY RF-SCORE:    0.00 PKD
ROOT
HETATM    1  C   UNL     1     -12.437  15.491  74.324  1.00  0.00    -0.792 C  
HETATM    2  C   UNL     1     -13.240  16.072  73.182  1.00  0.00    -0.537 C  
ENDROOT
BRANCH   2   3
HETATM    3  O   UNL     1     -13.794  14.995  72.398  1.00  0.00    -0.428 OA 
BRANCH   3   4
HETATM    4  C   UNL     1     -13.050  14.645  71.299  1.00  0.00    -0.359 A  
HETATM    5  C   UNL     1     -12.759  13.290  71.078  1.00  0.00    -0.374 A  
HETATM    6  C   UNL     1     -11.938  12.937  69.991  1.00  0.00    -0.380 A  
HETATM    7  C   UNL     1     -13.238  12.160  71.942  1.00  0.00    -0.369 C  
HETATM    8  C   UNL     1     -11.420  13.909  69.138  1.00  0.00    -0.345 A  
HETATM    9  O   UNL     1     -12.884  11.001  71.767  1.00  0.00    -0.430 OA 
HETATM   10  O   UNL     1     -14.106  12.506  72.908  1.00  0.00     0.045 OA 
HETATM   11  C   UNL     1     -11.729  15.258  69.338  1.00  0.00    -0.361 A  
HETATM   12  C   UNL     1     -12.575  15.608  70.394  1.00  0.00    -0.376 A  
BRANCH  11  13
HETATM   13  C   UNL     1     -11.168  16.328  68.437  1.00  0.00    -0.349 C  
BRANCH  13  14
HETATM   14  C   UNL     1     -10.037  15.837  67.555  1.00  0.00    -0.245 C  
HETATM   15  O   UNL     1      -9.806  16.389  66.481  1.00  0.00    -0.246 OA 
HETATM   16  N   UNL     1      -9.302  14.773  68.051  1.00  0.00    -0.192 N  
HETATM   17  H   UNL     1      -9.588  14.333  68.926  1.00  0.00     0.000 HD 
BRANCH  16  18
HETATM   18  C   UNL     1      -8.116  14.262  67.340  1.00  0.00    -0.196 C  
BRANCH  18  19
HETATM   19  C   UNL     1      -8.050  12.739  67.132  1.00  0.00    -0.131 A  
HETATM   20  C   UNL     1      -8.971  12.003  66.311  1.00  0.00    -0.129 A  
HETATM   21  C   UNL     1      -8.672  10.625  66.120  1.00  0.00    -0.178 A  
HETATM   22  C   UNL     1      -6.912  12.062  67.658  1.00  0.00    -0.118 A  
HETATM   23  C   UNL     1      -7.542   9.992  66.640  1.00  0.00    -0.104 A  
HETATM   24  C   UNL     1      -6.659  10.712  67.415  1.00  0.00    -0.071 A  
BRANCH  20  25
HETATM   25  N   UNL     1     -10.130  12.484  65.691  1.00  0.00    -0.268 NA 
HETATM   26  C   UNL     1     -11.465  12.020  66.132  1.00  0.00    -0.339 C  
HETATM   27  C   UNL     1     -12.393  13.229  66.293  1.00  0.00    -0.382 C  
HETATM   28  C   UNL     1     -12.513  13.998  64.982  1.00  0.00    -0.446 C  
HETATM   29  C   UNL     1     -11.137  14.390  64.477  1.00  0.00    -0.301 C  
HETATM   30  C   UNL     1     -10.173  13.212  64.424  1.00  0.00    -0.297 C  
ENDBRANCH  20  25
ENDBRANCH  18  19
BRANCH  18  31
HETATM   31  C   UNL     1      -6.800  14.729  67.993  1.00  0.00    -0.150 C  
HETATM   32  C   UNL     1      -6.519  16.945  66.701  1.00  0.00    -0.235 C  
HETATM   33  C   UNL     1      -6.576  16.253  68.065  1.00  0.00    -0.145 C  
HETATM   34  C   UNL     1      -5.251  16.520  68.787  1.00  0.00    -0.120 C  
ENDBRANCH  18  31
ENDBRANCH  16  18
ENDBRANCH  13  14
ENDBRANCH  11  13
ENDBRANCH   3   4
ENDBRANCH   2   3
TORSDOF 8
ENDMDL
MODEL      102
REMARK 921   NORMALIZED FREE ENERGY PREDICTED BY IDOCK:   -5.63 KCAL/MOL
REMARK 922        TOTAL FREE ENERGY PREDICTED BY IDOCK:  -10.66 KCAL/MOL
REMARK 923 INTER-LIGAND FREE ENERGY PREDICTED BY IDOCK:   -8.01 KCAL/MOL
REMARK 924 INTRA-LIGAND FREE ENERGY PREDICTED BY IDOCK:   -2.65 KCAL/MOL
REMARK 927      BINDING AFFINITY PREDICTED BY RF-SCORE:    0.00 PKD
ROOT
HETATM    1  C   UNL     1      -6.967  10.606  62.337  1.00  0.00    -0.134 C  
HETATM    2  C   UNL     1      -8.376  10.595  62.886  1.00  0.00    -0.151 C  
ENDROOT
BRANCH   2   3
HETATM    3  O   UNL     1      -8.732   9.245  63.248  1.00  0.00    -0.213 OA 
BRANCH   3   4
HETATM    4  C   UNL     1      -8.445   8.906  64.547  1.00  0.00    -0.161 A  
HETATM    5  C   UNL     1      -7.962   7.618  64.823  1.00  0.00    -0.137 A  
HETATM    6  C   UNL     1      -7.733   7.248  66.162  1.00  0.00    -0.101 A  
HETATM    7  C   UNL     1      -7.690   6.566  63.788  1.00  0.00    -0.108 C  
HETATM    8  C   UNL     1      -7.974   8.139  67.204  1.00  0.00    -0.105 A  
HETATM    9  O   UNL     1      -7.358   5.424  64.080  1.00  0.00    -0.053 OA 
HETATM   10  O   UNL     1      -7.810   6.973  62.513  1.00  0.00    -0.115 OA 
HETATM   11  C   UNL     1      -8.429   9.433  66.932  1.00  0.00    -0.128 A  
HETATM   12  C   UNL     1      -8.621   9.817  65.601  1.00  0.00    -0.154 A  
BRANCH  11  13
HETATM   13  C   UNL     1      -8.712  10.410  68.044  1.00  0.00    -0.123 C  
BRANCH  13  14
HETATM   14  C   UNL     1     -10.111  10.283  68.613  1.00  0.00    -0.174 C  
HETATM   15  O   UNL     1     -10.875   9.417  68.190  1.00  0.00    -0.203 OA 
HETATM   16  N   UNL     1     -10.436  11.174  69.622  1.00  0.00    -0.451 N  
HETATM   17  H   UNL     1      -9.768  11.899  69.883  1.00  0.00     0.000 HD 
BRANCH  16  18
HETATM   18  C   UNL     1     -11.728  11.096  70.328  1.00  0.00    -0.341 C  
BRANCH  18  19
HETATM   19  C   UNL     1     -12.351  12.435  70.759  1.00  0.00    -0.377 A  
HETATM   20  C   UNL     1     -12.348  13.618  69.945  1.00  0.00    -0.249 A  
HETATM   21  C   UNL     1     -13.094  14.721  70.445  1.00  0.00    -0.189 A  
HETATM   22  C   UNL     1     -13.110  12.437  71.965  1.00  0.00    -0.470 A  
HETATM   23  C   UNL     1     -13.838  14.691  71.626  1.00  0.00    -0.522 A  
HETATM   24  C   UNL     1     -13.844  13.545  72.391  1.00  0.00    -0.687 A  
BRANCH  20  25
HETATM   25  N   UNL     1     -11.685  13.811  68.728  1.00  0.00    -0.333 NA 
HETATM   26  C   UNL     1     -10.513  14.712  68.644  1.00  0.00    -0.244 C  
HETATM   27  C   UNL     1      -9.393  14.015  67.864  1.00  0.00    -0.206 C  
HETATM   28  C   UNL     1      -9.862  13.636  66.464  1.00  0.00    -0.295 C  
HETATM   29  C   UNL     1     -11.121  12.792  66.544  1.00  0.00    -0.321 C  
HETATM   30  C   UNL     1     -12.199  13.426  67.413  1.00  0.00    -0.214 C  
ENDBRANCH  20  25
ENDBRANCH  18  19
BRANCH  18  31
HETATM   31  C   UNL     1     -11.667  10.162  71.553  1.00  0.00    -0.290 C  
HETATM   32  C   UNL     1     -13.862   8.872  71.139  1.00  0.00    -0.129 C  
HETATM   33  C   UNL     1     -12.357   8.791  71.404  1.00  0.00    -0.353 C  
HETATM   34  C   UNL     1     -12.145   7.993  72.694  1.00  0.00    -0.283 C  
ENDBRANCH  18  31
ENDBRANCH  16  18
ENDBRANCH  13  14
ENDBRANCH  11  13
ENDBRANCH   3   4
ENDBRANCH   2   3
TORSDOF 8
ENDMDL
MODEL      103
REMARK 921   NORMALIZED FREE ENERGY PREDICTED BY IDOCK:   -5.63 KCAL/MOL
REMARK 922        TOTAL FREE ENERGY PREDICTED BY IDOCK:  -10.65 KCAL/MOL
REMARK 923 INTER-LIGAND FREE ENERGY PREDICTED BY IDOCK:   -9.16 KCAL/MOL
REMARK 924 INTRA-LIGAND FREE ENERGY PREDICTED BY IDOCK:   -1.50 KCAL/MOL
REMARK 927      BINDING AFFINITY PREDICTED BY RF-SCORE:    0.00 PKD
ROOT
HETATM    1  C   UNL     1     -11.578  12.303  66.379  1.00  0.00    -0.445 C  
HETATM    2  C   UNL     1     -11.146  11.576  67.633  1.00  0.00    -0.266 C  
ENDROOT
BRANCH   2   3
HETATM    3  O   UNL     1     -10.943  12.537  68.690  1.00  0.00    -0.235 OA 
BRANCH   3   4
HETATM    4  C   UNL     1     -11.775  12.383  69.771  1.00  0.00    -0.291 A  
HETATM    5  C   UNL     1     -12.141  13.516  70.514  1.00  0.00    -0.409 A  
HETATM    6  C   UNL     1     -12.938  13.350  71.662  1.00  0.00    -0.445 A  
HETATM    7  C   UNL     1     -11.720  14.921  70.196  1.00  0.00    -0.294 C  
HETATM    8  C   UNL     1     -13.366  12.087  72.062  1.00  0.00    -0.447 A  
HETATM    9  O   UNL     1     -11.985  15.869  70.924  1.00  0.00    -0.376 OA 
HETATM   10  O   UNL     1     -11.053  15.071  69.039  1.00  0.00    -0.238 OA 
HETATM   11  C   UNL     1     -13.026  10.958  71.309  1.00  0.00    -0.492 A  
HETATM   12  C   UNL     1     -12.267  11.123  70.147  1.00  0.00    -0.417 A  
BRANCH  11  13
HETATM   13  C   UNL     1     -13.466   9.579  71.731  1.00  0.00    -0.480 C  
BRANCH  13  14
HETATM   14  C   UNL     1     -12.335   8.569  71.750  1.00  0.00    -0.338 C  
HETATM   15  O   UNL     1     -11.820   8.237  72.816  1.00  0.00    -0.388 OA 
HETATM   16  N   UNL     1     -11.961   8.058  70.519  1.00  0.00    -0.483 N  
HETATM   17  H   UNL     1     -12.399   8.421  69.673  1.00  0.00     0.000 HD 
BRANCH  16  18
HETATM   18  C   UNL     1     -10.943   6.998  70.406  1.00  0.00    -0.268 C  
BRANCH  18  19
HETATM   19  C   UNL     1      -9.474   7.456  70.456  1.00  0.00    -0.161 A  
HETATM   20  C   UNL     1      -8.364   6.565  70.648  1.00  0.00    -0.133 A  
HETATM   21  C   UNL     1      -7.071   7.144  70.524  1.00  0.00    -0.063 A  
HETATM   22  C   UNL     1      -9.209   8.817  70.129  1.00  0.00    -0.179 A  
HETATM   23  C   UNL     1      -6.842   8.480  70.192  1.00  0.00    -0.039 A  
HETATM   24  C   UNL     1      -7.916   9.322  69.996  1.00  0.00    -0.124 A  
BRANCH  20  25
HETATM   25  N   UNL     1      -8.412   5.200  70.956  1.00  0.00    -0.118 NA 
HETATM   26  C   UNL     1      -8.303   4.742  72.360  1.00  0.00    -0.116 C  
HETATM   27  C   UNL     1      -9.394   3.702  72.639  1.00  0.00    -0.152 C  
HETATM   28  C   UNL     1      -9.266   2.516  71.690  1.00  0.00    -0.173 C  
HETATM   29  C   UNL     1      -9.280   2.993  70.250  1.00  0.00    -0.213 C  
HETATM   30  C   UNL     1      -8.276   4.109  69.992  1.00  0.00    -0.057 C  
ENDBRANCH  20  25
ENDBRANCH  18  19
BRANCH  18  31
HETATM   31  C   UNL     1     -11.146   6.126  69.151  1.00  0.00    -0.448 C  
HETATM   32  C   UNL     1     -10.674   7.934  67.372  1.00  0.00    -0.278 C  
HETATM   33  C   UNL     1     -10.346   6.535  67.897  1.00  0.00    -0.229 C  
HETATM   34  C   UNL     1     -10.637   5.528  66.780  1.00  0.00    -0.360 C  
ENDBRANCH  18  31
ENDBRANCH  16  18
ENDBRANCH  13  14
ENDBRANCH  11  13
ENDBRANCH   3   4
ENDBRANCH   2   3
TORSDOF 8
ENDMDL
MODEL      104
REMARK 921   NORMALIZED FREE ENERGY PREDICTED BY IDOCK:   -5.62 KCAL/MOL
REMARK 922        TOTAL FREE ENERGY PREDICTED BY IDOCK:  -10.65 KCAL/MOL
REMARK 923 INTER-LIGAND FREE ENERGY PREDICTED BY IDOCK:   -8.86 KCAL/MOL
REMARK 924 INTRA-LIGAND FREE ENERGY PREDICTED BY IDOCK:   -1.78 KCAL/MOL
REMARK 927      BINDING AFFINITY PREDICTED BY RF-SCORE:    0.00 PKD
ROOT
HETATM    1  C   UNL     1     -10.160  18.499  68.772  1.00  0.00    -0.394 C  
HETATM    2  C   UNL     1      -9.795  17.039  68.923  1.00  0.00    -0.272 C  
ENDROOT
BRANCH   2   3
HETATM    3  O   UNL     1      -9.621  16.458  67.615  1.00  0.00    -0.225 OA 
BRANCH   3   4
HETATM    4  C   UNL     1     -10.499  15.445  67.317  1.00  0.00    -0.282 A  
HETATM    5  C   UNL     1     -11.135  15.441  66.066  1.00  0.00    -0.233 A  
HETATM    6  C   UNL     1     -12.086  14.442  65.787  1.00  0.00    -0.362 A  
HETATM    7  C   UNL     1     -10.900  16.455  64.984  1.00  0.00    -0.273 C  
HETATM    8  C   UNL     1     -12.398  13.465  66.729  1.00  0.00    -0.287 A  
HETATM    9  O   UNL     1     -11.544  16.468  63.942  1.00  0.00    -1.175 OA 
HETATM   10  O   UNL     1      -9.912  17.333  65.226  1.00  0.00    -0.378 OA 
HETATM   11  C   UNL     1     -11.747  13.449  67.967  1.00  0.00    -0.391 A  
HETATM   12  C   UNL     1     -10.774  14.417  68.232  1.00  0.00    -0.246 A  
BRANCH  11  13
HETATM   13  C   UNL     1     -12.078  12.410  69.007  1.00  0.00    -0.185 C  
BRANCH  13  14
HETATM   14  C   UNL     1     -11.360  11.092  68.790  1.00  0.00    -0.277 C  
HETATM   15  O   UNL     1     -11.405  10.538  67.693  1.00  0.00    -0.394 OA 
HETATM   16  N   UNL     1     -10.662  10.598  69.878  1.00  0.00    -0.415 N  
HETATM   17  H   UNL     1     -10.715  11.088  70.771  1.00  0.00     0.000 HD 
BRANCH  16  18
HETATM   18  C   UNL     1      -9.842   9.378  69.773  1.00  0.00    -0.201 C  
BRANCH  18  19
HETATM   19  C   UNL     1     -10.183   8.241  70.752  1.00  0.00    -0.219 A  
HETATM   20  C   UNL     1      -9.796   6.872  70.556  1.00  0.00    -0.179 A  
HETATM   21  C   UNL     1     -10.074   5.985  71.632  1.00  0.00    -0.227 A  
HETATM   22  C   UNL     1     -10.775   8.613  71.995  1.00  0.00    -0.427 A  
HETATM   23  C   UNL     1     -10.645   6.380  72.843  1.00  0.00    -0.260 A  
HETATM   24  C   UNL     1     -10.999   7.699  73.025  1.00  0.00    -0.457 A  
BRANCH  20  25
HETATM   25  N   UNL     1      -9.191   6.313  69.424  1.00  0.00    -0.138 NA 
HETATM   26  C   UNL     1      -7.735   6.048  69.404  1.00  0.00    -0.098 C  
HETATM   27  C   UNL     1      -7.483   4.638  68.859  1.00  0.00    -0.060 C  
HETATM   28  C   UNL     1      -8.061   4.490  67.456  1.00  0.00    -0.100 C  
HETATM   29  C   UNL     1      -9.534   4.855  67.454  1.00  0.00    -0.156 C  
HETATM   30  C   UNL     1      -9.804   6.208  68.101  1.00  0.00    -0.131 C  
ENDBRANCH  20  25
ENDBRANCH  18  19
BRANCH  18  31
HETATM   31  C   UNL     1      -8.333   9.679  69.873  1.00  0.00    -0.195 C  
HETATM   32  C   UNL     1      -7.714   9.267  67.403  1.00  0.00    -0.095 C  
HETATM   33  C   UNL     1      -7.658  10.222  68.597  1.00  0.00    -0.089 C  
HETATM   34  C   UNL     1      -6.185  10.509  68.907  1.00  0.00    -0.043 C  
ENDBRANCH  18  31
ENDBRANCH  16  18
ENDBRANCH  13  14
ENDBRANCH  11  13
ENDBRANCH   3   4
ENDBRANCH   2   3
TORSDOF 8
ENDMDL
MODEL      105
REMARK 921   NORMALIZED FREE ENERGY PREDICTED BY IDOCK:   -5.59 KCAL/MOL
REMARK 922        TOTAL FREE ENERGY PREDICTED BY IDOCK:  -10.60 KCAL/MOL
REMARK 923 INTER-LIGAND FREE ENERGY PREDICTED BY IDOCK:   -9.51 KCAL/MOL
REMARK 924 INTRA-LIGAND FREE ENERGY PREDICTED BY IDOCK:   -1.10 KCAL/MOL
REMARK 927      BINDING AFFINITY PREDICTED BY RF-SCORE:    0.00 PKD
ROOT
HETATM    1  C   UNL     1     -13.282   9.412  71.821  1.00  0.00    -0.487 C  
HETATM    2  C   UNL     1     -12.955  10.389  70.714  1.00  0.00    -0.341 C  
ENDROOT
BRANCH   2   3
HETATM    3  O   UNL     1     -12.425  11.600  71.292  1.00  0.00    -0.339 OA 
BRANCH   3   4
HETATM    4  C   UNL     1     -12.180  12.605  70.391  1.00  0.00    -0.288 A  
HETATM    5  C   UNL     1     -12.784  13.857  70.586  1.00  0.00    -0.351 A  
HETATM    6  C   UNL     1     -12.587  14.867  69.626  1.00  0.00    -0.094 A  
HETATM    7  C   UNL     1     -13.666  14.209  71.749  1.00  0.00    -0.408 C  
HETATM    8  C   UNL     1     -11.805  14.640  68.496  1.00  0.00    -0.346 A  
HETATM    9  O   UNL     1     -14.247  15.283  71.833  1.00  0.00    -0.501 OA 
HETATM   10  O   UNL     1     -13.752  13.271  72.707  1.00  0.00    -0.669 OA 
HETATM   11  C   UNL     1     -11.180  13.403  68.311  1.00  0.00    -0.310 A  
HETATM   12  C   UNL     1     -11.341  12.411  69.282  1.00  0.00    -0.315 A  
BRANCH  11  13
HETATM   13  C   UNL     1     -10.341  13.130  67.089  1.00  0.00    -0.247 C  
BRANCH  13  14
HETATM   14  C   UNL     1      -9.735  14.382  66.484  1.00  0.00    -0.290 C  
HETATM   15  O   UNL     1     -10.055  14.739  65.352  1.00  0.00    -0.350 OA 
HETATM   16  N   UNL     1      -8.845  15.072  67.290  1.00  0.00    -0.189 N  
HETATM   17  H   UNL     1      -8.589  14.685  68.198  1.00  0.00     0.000 HD 
BRANCH  16  18
HETATM   18  C   UNL     1      -8.260  16.356  66.862  1.00  0.00    -0.218 C  
BRANCH  18  19
HETATM   19  C   UNL     1      -7.150  16.932  67.759  1.00  0.00    -0.156 A  
HETATM   20  C   UNL     1      -6.366  18.085  67.420  1.00  0.00    -0.160 A  
HETATM   21  C   UNL     1      -5.485  18.559  68.431  1.00  0.00    -0.183 A  
HETATM   22  C   UNL     1      -7.020  16.375  69.064  1.00  0.00    -0.200 A  
HETATM   23  C   UNL     1      -5.386  18.000  69.706  1.00  0.00    -0.212 A  
HETATM   24  C   UNL     1      -6.155  16.901  70.024  1.00  0.00    -0.131 A  
BRANCH  20  25
HETATM   25  N   UNL     1      -6.361  18.785  66.208  1.00  0.00    -0.177 NA 
HETATM   26  C   UNL     1      -7.019  20.106  66.099  1.00  0.00    -0.257 C  
HETATM   27  C   UNL     1      -6.081  21.083  65.382  1.00  0.00    -0.253 C  
HETATM   28  C   UNL     1      -5.717  20.564  63.995  1.00  0.00    -0.299 C  
HETATM   29  C   UNL     1      -5.132  19.168  64.094  1.00  0.00    -0.241 C  
HETATM   30  C   UNL     1      -6.005  18.221  64.906  1.00  0.00     0.006 C  
ENDBRANCH  20  25
ENDBRANCH  18  19
BRANCH  18  31
HETATM   31  C   UNL     1      -9.333  17.441  66.645  1.00  0.00    -0.279 C  
HETATM   32  C   UNL     1     -10.232  17.552  69.061  1.00  0.00    -0.314 C  
HETATM   33  C   UNL     1      -9.670  18.323  67.865  1.00  0.00    -0.314 C  
HETATM   34  C   UNL     1     -10.710  19.367  67.442  1.00  0.00    -0.594 C  
ENDBRANCH  18  31
ENDBRANCH  16  18
ENDBRANCH  13  14
ENDBRANCH  11  13
ENDBRANCH   3   4
ENDBRANCH   2   3
TORSDOF 8
ENDMDL
MODEL      106
REMARK 921   NORMALIZED FREE ENERGY PREDICTED BY IDOCK:   -5.58 KCAL/MOL
REMARK 922        TOTAL FREE ENERGY PREDICTED BY IDOCK:  -10.59 KCAL/MOL
REMARK 923 INTER-LIGAND FREE ENERGY PREDICTED BY IDOCK:   -8.50 KCAL/MOL
REMARK 924 INTRA-LIGAND FREE ENERGY PREDICTED BY IDOCK:   -2.10 KCAL/MOL
REMARK 927      BINDING AFFINITY PREDICTED BY RF-SCORE:    0.00 PKD
ROOT
HETATM    1  C   UNL     1     -10.591   5.545  67.906  1.00  0.00    -0.219 C  
HETATM    2  C   UNL     1     -10.037   6.906  68.261  1.00  0.00    -0.167 C  
ENDROOT
BRANCH   2   3
HETATM    3  O   UNL     1      -9.667   6.917  69.655  1.00  0.00    -0.156 OA 
BRANCH   3   4
HETATM    4  C   UNL     1     -10.509   7.639  70.465  1.00  0.00    -0.220 A  
HETATM    5  C   UNL     1     -11.120   6.998  71.554  1.00  0.00    -0.271 A  
HETATM    6  C   UNL     1     -12.035   7.718  72.343  1.00  0.00    -0.338 A  
HETATM    7  C   UNL     1     -10.894   5.565  71.940  1.00  0.00    -0.223 C  
HETATM    8  C   UNL     1     -12.336   9.048  72.059  1.00  0.00    -0.455 A  
HETATM    9  O   UNL     1     -11.518   5.020  72.841  1.00  0.00    -0.281 OA 
HETATM   10  O   UNL     1      -9.937   4.928  71.244  1.00  0.00    -0.182 OA 
HETATM   11  C   UNL     1     -11.709   9.699  70.992  1.00  0.00    -0.433 A  
HETATM   12  C   UNL     1     -10.770   8.998  70.230  1.00  0.00    -0.262 A  
BRANCH  11  13
HETATM   13  C   UNL     1     -12.029  11.133  70.657  1.00  0.00    -0.459 C  
BRANCH  13  14
HETATM   14  C   UNL     1     -11.646  11.519  69.242  1.00  0.00    -0.322 C  
HETATM   15  O   UNL     1     -12.258  11.047  68.285  1.00  0.00    -0.582 OA 
HETATM   16  N   UNL     1     -10.606  12.426  69.123  1.00  0.00    -0.427 N  
HETATM   17  H   UNL     1     -10.112  12.732  69.961  1.00  0.00     0.000 HD 
BRANCH  16  18
HETATM   18  C   UNL     1     -10.199  12.958  67.810  1.00  0.00    -0.224 C  
BRANCH  18  19
HETATM   19  C   UNL     1      -8.935  13.835  67.793  1.00  0.00    -0.194 A  
HETATM   20  C   UNL     1      -7.598  13.315  67.862  1.00  0.00    -0.152 A  
HETATM   21  C   UNL     1      -6.551  14.262  67.689  1.00  0.00    -0.172 A  
HETATM   22  C   UNL     1      -9.115  15.225  67.532  1.00  0.00    -0.189 A  
HETATM   23  C   UNL     1      -6.758  15.616  67.423  1.00  0.00    -0.218 A  
HETATM   24  C   UNL     1      -8.045  16.101  67.346  1.00  0.00    -0.183 A  
BRANCH  20  25
HETATM   25  N   UNL     1      -7.212  11.989  68.090  1.00  0.00    -0.083 NA 
HETATM   26  C   UNL     1      -6.675  11.579  69.407  1.00  0.00    -0.116 C  
HETATM   27  C   UNL     1      -7.359  10.282  69.853  1.00  0.00    -0.166 C  
HETATM   28  C   UNL     1      -7.138   9.174  68.829  1.00  0.00    -0.073 C  
HETATM   29  C   UNL     1      -7.598   9.628  67.457  1.00  0.00    -0.095 C  
HETATM   30  C   UNL     1      -7.011  10.975  67.056  1.00  0.00    -0.117 C  
ENDBRANCH  20  25
ENDBRANCH  18  19
BRANCH  18  31
HETATM   31  C   UNL     1     -11.341  13.723  67.112  1.00  0.00    -0.344 C  
HETATM   32  C   UNL     1     -10.602  13.333  64.672  1.00  0.00    -0.421 C  
HETATM   33  C   UNL     1     -11.729  13.235  65.702  1.00  0.00    -0.389 C  
HETATM   34  C   UNL     1     -12.906  14.077  65.199  1.00  0.00    -0.368 C  
ENDBRANCH  18  31
ENDBRANCH  16  18
ENDBRANCH  13  14
ENDBRANCH  11  13
ENDBRANCH   3   4
ENDBRANCH   2   3
TORSDOF 8
ENDMDL
MODEL      107
REMARK 921   NORMALIZED FREE ENERGY PREDICTED BY IDOCK:   -5.58 KCAL/MOL
REMARK 922        TOTAL FREE ENERGY PREDICTED BY IDOCK:  -10.59 KCAL/MOL
REMARK 923 INTER-LIGAND FREE ENERGY PREDICTED BY IDOCK:   -8.31 KCAL/MOL
REMARK 924 INTRA-LIGAND FREE ENERGY PREDICTED BY IDOCK:   -2.28 KCAL/MOL
REMARK 927      BINDING AFFINITY PREDICTED BY RF-SCORE:    0.00 PKD
ROOT
HETATM    1  C   UNL     1     -10.066  11.104  63.741  1.00  0.00    -0.416 C  
HETATM    2  C   UNL     1     -10.756  11.009  65.083  1.00  0.00    -0.183 C  
ENDROOT
BRANCH   2   3
HETATM    3  O   UNL     1     -11.164  12.329  65.499  1.00  0.00    -0.310 OA 
BRANCH   3   4
HETATM    4  C   UNL     1     -11.369  12.464  66.849  1.00  0.00    -0.333 A  
HETATM    5  C   UNL     1     -11.297  13.743  67.424  1.00  0.00    -0.348 A  
HETATM    6  C   UNL     1     -11.439  13.874  68.818  1.00  0.00    -0.327 A  
HETATM    7  C   UNL     1     -11.045  15.010  66.660  1.00  0.00    -0.326 C  
HETATM    8  C   UNL     1     -11.653  12.759  69.625  1.00  0.00    -0.322 A  
HETATM    9  O   UNL     1     -10.896  16.094  67.213  1.00  0.00    -0.309 OA 
HETATM   10  O   UNL     1     -11.021  14.879  65.323  1.00  0.00    -0.335 OA 
HETATM   11  C   UNL     1     -11.754  11.486  69.054  1.00  0.00    -0.400 A  
HETATM   12  C   UNL     1     -11.651  11.357  67.666  1.00  0.00    -0.315 A  
BRANCH  11  13
HETATM   13  C   UNL     1     -11.971  10.264  69.909  1.00  0.00    -0.222 C  
BRANCH  13  14
HETATM   14  C   UNL     1     -10.709   9.451  70.124  1.00  0.00    -0.243 C  
HETATM   15  O   UNL     1      -9.646   9.816  69.625  1.00  0.00    -0.193 OA 
HETATM   16  N   UNL     1     -10.845   8.323  70.915  1.00  0.00    -0.225 N  
HETATM   17  H   UNL     1     -11.771   8.056  71.250  1.00  0.00     0.000 HD 
BRANCH  16  18
HETATM   18  C   UNL     1      -9.679   7.499  71.283  1.00  0.00    -0.164 C  
BRANCH  18  19
HETATM   19  C   UNL     1      -9.804   5.987  71.023  1.00  0.00    -0.220 A  
HETATM   20  C   UNL     1      -9.620   5.379  69.735  1.00  0.00    -0.168 A  
HETATM   21  C   UNL     1      -9.632   3.957  69.709  1.00  0.00    -0.271 A  
HETATM   22  C   UNL     1      -9.949   5.144  72.162  1.00  0.00    -0.238 A  
HETATM   23  C   UNL     1      -9.766   3.156  70.845  1.00  0.00    -0.170 A  
HETATM   24  C   UNL     1      -9.927   3.752  72.077  1.00  0.00    -0.238 A  
BRANCH  20  25
HETATM   25  N   UNL     1      -9.445   6.026  68.506  1.00  0.00    -0.119 NA 
HETATM   26  C   UNL     1     -10.578   6.171  67.564  1.00  0.00    -0.273 C  
HETATM   27  C   UNL     1     -10.627   7.613  67.049  1.00  0.00    -0.406 C  
HETATM   28  C   UNL     1      -9.321   7.986  66.357  1.00  0.00    -0.259 C  
HETATM   29  C   UNL     1      -8.148   7.746  67.288  1.00  0.00    -0.119 C  
HETATM   30  C   UNL     1      -8.156   6.349  67.896  1.00  0.00    -0.115 C  
ENDBRANCH  20  25
ENDBRANCH  18  19
BRANCH  18  31
HETATM   31  C   UNL     1      -9.253   7.714  72.749  1.00  0.00    -0.226 C  
HETATM   32  C   UNL     1      -6.715   7.369  72.445  1.00  0.00    -0.055 C  
HETATM   33  C   UNL     1      -7.832   8.271  72.973  1.00  0.00    -0.188 C  
HETATM   34  C   UNL     1      -7.614   8.465  74.478  1.00  0.00    -0.275 C  
ENDBRANCH  18  31
ENDBRANCH  16  18
ENDBRANCH  13  14
ENDBRANCH  11  13
ENDBRANCH   3   4
ENDBRANCH   2   3
TORSDOF 8
ENDMDL
MODEL      108
REMARK 921   NORMALIZED FREE ENERGY PREDICTED BY IDOCK:   -5.56 KCAL/MOL
REMARK 922        TOTAL FREE ENERGY PREDICTED BY IDOCK:  -10.55 KCAL/MOL
REMARK 923 INTER-LIGAND FREE ENERGY PREDICTED BY IDOCK:   -8.94 KCAL/MOL
REMARK 924 INTRA-LIGAND FREE ENERGY PREDICTED BY IDOCK:   -1.61 KCAL/MOL
REMARK 927      BINDING AFFINITY PREDICTED BY RF-SCORE:    0.00 PKD
ROOT
HETATM    1  C   UNL     1      -8.911   5.685  69.803  1.00  0.00    -0.140 C  
HETATM    2  C   UNL     1      -9.669   6.875  69.258  1.00  0.00    -0.156 C  
ENDROOT
BRANCH   2   3
HETATM    3  O   UNL     1      -9.030   7.328  68.047  1.00  0.00    -0.132 OA 
BRANCH   3   4
HETATM    4  C   UNL     1      -9.591   8.451  67.490  1.00  0.00    -0.154 A  
HETATM    5  C   UNL     1      -9.268   8.788  66.166  1.00  0.00    -0.273 A  
HETATM    6  C   UNL     1      -9.788   9.975  65.618  1.00  0.00    -0.363 A  
HETATM    7  C   UNL     1      -8.369   7.983  65.274  1.00  0.00    -0.143 C  
HETATM    8  C   UNL     1     -10.615  10.809  66.367  1.00  0.00    -0.266 A  
HETATM    9  O   UNL     1      -8.039   8.361  64.157  1.00  0.00    -0.148 OA 
HETATM   10  O   UNL     1      -7.972   6.801  65.776  1.00  0.00    -0.100 OA 
HETATM   11  C   UNL     1     -10.962  10.463  67.677  1.00  0.00    -0.374 A  
HETATM   12  C   UNL     1     -10.478   9.266  68.212  1.00  0.00    -0.260 A  
BRANCH  11  13
HETATM   13  C   UNL     1     -11.843  11.357  68.511  1.00  0.00    -0.364 C  
BRANCH  13  14
HETATM   14  C   UNL     1     -11.538  12.832  68.337  1.00  0.00    -0.325 C  
HETATM   15  O   UNL     1     -12.042  13.462  67.409  1.00  0.00    -0.355 OA 
HETATM   16  N   UNL     1     -10.696  13.391  69.284  1.00  0.00    -0.444 N  
HETATM   17  H   UNL     1     -10.275  12.792  69.993  1.00  0.00     0.000 HD 
BRANCH  16  18
HETATM   18  C   UNL     1     -10.397  14.835  69.286  1.00  0.00    -0.206 C  
BRANCH  18  19
HETATM   19  C   UNL     1      -8.983  15.238  68.831  1.00  0.00    -0.209 A  
HETATM   20  C   UNL     1      -8.668  16.500  68.223  1.00  0.00    -0.209 A  
HETATM   21  C   UNL     1      -7.287  16.756  67.998  1.00  0.00    -0.167 A  
HETATM   22  C   UNL     1      -7.915  14.365  69.188  1.00  0.00    -0.002 A  
HETATM   23  C   UNL     1      -6.261  15.886  68.368  1.00  0.00    -0.107 A  
HETATM   24  C   UNL     1      -6.575  14.684  68.964  1.00  0.00    -0.102 A  
BRANCH  20  25
HETATM   25  N   UNL     1      -9.564  17.496  67.817  1.00  0.00    -0.264 NA 
HETATM   26  C   UNL     1      -9.923  18.603  68.732  1.00  0.00    -0.383 C  
HETATM   27  C   UNL     1      -9.840  19.933  67.975  1.00  0.00    -0.534 C  
HETATM   28  C   UNL     1     -10.772  19.929  66.768  1.00  0.00    -0.464 C  
HETATM   29  C   UNL     1     -10.471  18.738  65.878  1.00  0.00    -0.424 C  
HETATM   30  C   UNL     1     -10.438  17.423  66.646  1.00  0.00    -0.253 C  
ENDBRANCH  20  25
ENDBRANCH  18  19
BRANCH  18  31
HETATM   31  C   UNL     1     -10.679  15.485  70.655  1.00  0.00    -0.265 C  
HETATM   32  C   UNL     1     -13.245  15.217  70.663  1.00  0.00    -0.370 C  
HETATM   33  C   UNL     1     -11.929  14.982  71.407  1.00  0.00    -0.397 C  
HETATM   34  C   UNL     1     -12.011  15.702  72.757  1.00  0.00    -0.590 C  
ENDBRANCH  18  31
ENDBRANCH  16  18
ENDBRANCH  13  14
ENDBRANCH  11  13
ENDBRANCH   3   4
ENDBRANCH   2   3
TORSDOF 8
ENDMDL
MODEL      109
REMARK 921   NORMALIZED FREE ENERGY PREDICTED BY IDOCK:   -5.55 KCAL/MOL
REMARK 922        TOTAL FREE ENERGY PREDICTED BY IDOCK:  -10.55 KCAL/MOL
REMARK 923 INTER-LIGAND FREE ENERGY PREDICTED BY IDOCK:   -9.00 KCAL/MOL
REMARK 924 INTRA-LIGAND FREE ENERGY PREDICTED BY IDOCK:   -1.55 KCAL/MOL
REMARK 927      BINDING AFFINITY PREDICTED BY RF-SCORE:    0.00 PKD
ROOT
HETATM    1  C   UNL     1     -11.053   8.759  70.862  1.00  0.00    -0.320 C  
HETATM    2  C   UNL     1      -9.905   8.820  69.880  1.00  0.00    -0.184 C  
ENDROOT
BRANCH   2   3
HETATM    3  O   UNL     1     -10.354   9.461  68.668  1.00  0.00    -0.192 OA 
BRANCH   3   4
HETATM    4  C   UNL     1      -9.422  10.273  68.071  1.00  0.00    -0.146 A  
HETATM    5  C   UNL     1      -8.912   9.913  66.814  1.00  0.00    -0.155 A  
HETATM    6  C   UNL     1      -7.907  10.709  66.233  1.00  0.00    -0.150 A  
HETATM    7  C   UNL     1      -9.339   8.707  66.030  1.00  0.00    -0.218 C  
HETATM    8  C   UNL     1      -7.420  11.840  66.885  1.00  0.00    -0.106 A  
HETATM    9  O   UNL     1      -8.801   8.379  64.980  1.00  0.00    -0.116 OA 
HETATM   10  O   UNL     1     -10.373   8.023  66.549  1.00  0.00    -0.260 OA 
HETATM   11  C   UNL     1      -7.945  12.217  68.125  1.00  0.00    -0.151 A  
HETATM   12  C   UNL     1      -8.970  11.451  68.687  1.00  0.00    -0.133 A  
BRANCH  11  13
HETATM   13  C   UNL     1      -7.424  13.428  68.855  1.00  0.00    -0.010 C  
BRANCH  13  14
HETATM   14  C   UNL     1      -8.382  14.603  68.827  1.00  0.00    -0.163 C  
HETATM   15  O   UNL     1      -7.978  15.724  68.521  1.00  0.00    -0.130 OA 
HETATM   16  N   UNL     1      -9.700  14.316  69.143  1.00  0.00    -0.414 N  
HETATM   17  H   UNL     1      -9.948  13.373  69.439  1.00  0.00     0.000 HD 
BRANCH  16  18
HETATM   18  C   UNL     1     -10.750  15.347  69.059  1.00  0.00    -0.242 C  
BRANCH  18  19
HETATM   19  C   UNL     1     -10.583  16.402  67.951  1.00  0.00    -0.320 A  
HETATM   20  C   UNL     1     -10.870  16.158  66.565  1.00  0.00    -0.139 A  
HETATM   21  C   UNL     1     -10.795  17.288  65.704  1.00  0.00    -0.029 A  
HETATM   22  C   UNL     1     -10.283  17.732  68.363  1.00  0.00    -0.384 A  
HETATM   23  C   UNL     1     -10.509  18.583  66.139  1.00  0.00    -0.447 A  
HETATM   24  C   UNL     1     -10.249  18.807  67.474  1.00  0.00    -0.444 A  
BRANCH  20  25
HETATM   25  N   UNL     1     -11.201  14.936  65.967  1.00  0.00    -0.338 NA 
HETATM   26  C   UNL     1     -10.753  14.628  64.590  1.00  0.00    -0.286 C  
HETATM   27  C   UNL     1     -10.167  13.213  64.552  1.00  0.00    -0.333 C  
HETATM   28  C   UNL     1     -11.198  12.187  65.009  1.00  0.00    -0.372 C  
HETATM   29  C   UNL     1     -11.731  12.555  66.381  1.00  0.00    -0.458 C  
HETATM   30  C   UNL     1     -12.210  13.999  66.458  1.00  0.00    -0.451 C  
ENDBRANCH  20  25
ENDBRANCH  18  19
BRANCH  18  31
HETATM   31  C   UNL     1     -10.962  16.073  70.403  1.00  0.00    -0.347 C  
HETATM   32  C   UNL     1     -13.381  15.299  70.856  1.00  0.00    -0.475 C  
HETATM   33  C   UNL     1     -11.951  15.414  71.387  1.00  0.00    -0.440 C  
HETATM   34  C   UNL     1     -11.987  16.245  72.674  1.00  0.00    -0.644 C  
ENDBRANCH  18  31
ENDBRANCH  16  18
ENDBRANCH  13  14
ENDBRANCH  11  13
ENDBRANCH   3   4
ENDBRANCH   2   3
TORSDOF 8
ENDMDL
MODEL      110
REMARK 921   NORMALIZED FREE ENERGY PREDICTED BY IDOCK:   -5.54 KCAL/MOL
REMARK 922        TOTAL FREE ENERGY PREDICTED BY IDOCK:  -10.53 KCAL/MOL
REMARK 923 INTER-LIGAND FREE ENERGY PREDICTED BY IDOCK:   -8.95 KCAL/MOL
REMARK 924 INTRA-LIGAND FREE ENERGY PREDICTED BY IDOCK:   -1.58 KCAL/MOL
REMARK 927      BINDING AFFINITY PREDICTED BY RF-SCORE:    0.00 PKD
ROOT
HETATM    1  C   UNL     1     -10.396   8.465  69.358  1.00  0.00    -0.217 C  
HETATM    2  C   UNL     1     -10.215   8.240  67.874  1.00  0.00    -0.220 C  
ENDROOT
BRANCH   2   3
HETATM    3  O   UNL     1      -9.115   9.046  67.404  1.00  0.00    -0.130 OA 
BRANCH   3   4
HETATM    4  C   UNL     1      -9.260   9.521  66.124  1.00  0.00    -0.177 A  
HETATM    5  C   UNL     1      -8.264   9.237  65.176  1.00  0.00    -0.143 A  
HETATM    6  C   UNL     1      -8.378   9.781  63.883  1.00  0.00    -0.173 A  
HETATM    7  C   UNL     1      -7.044   8.404  65.440  1.00  0.00    -0.081 C  
HETATM    8  C   UNL     1      -9.460  10.588  63.537  1.00  0.00    -0.352 A  
HETATM    9  O   UNL     1      -6.154   8.258  64.612  1.00  0.00    -0.058 OA 
HETATM   10  O   UNL     1      -7.009   7.806  66.643  1.00  0.00    -0.068 OA 
HETATM   11  C   UNL     1     -10.467  10.852  64.470  1.00  0.00    -0.393 A  
HETATM   12  C   UNL     1     -10.377  10.281  65.743  1.00  0.00    -0.236 A  
BRANCH  11  13
HETATM   13  C   UNL     1     -11.639  11.734  64.123  1.00  0.00    -0.394 C  
BRANCH  13  14
HETATM   14  C   UNL     1     -11.553  13.116  64.739  1.00  0.00    -0.333 C  
HETATM   15  O   UNL     1     -12.214  14.043  64.275  1.00  0.00    -0.518 OA 
HETATM   16  N   UNL     1     -10.717  13.238  65.836  1.00  0.00    -0.273 N  
HETATM   17  H   UNL     1     -10.159  12.436  66.131  1.00  0.00     0.000 HD 
BRANCH  16  18
HETATM   18  C   UNL     1     -10.616  14.502  66.588  1.00  0.00    -0.283 C  
BRANCH  18  19
HETATM   19  C   UNL     1      -9.211  14.893  67.078  1.00  0.00    -0.249 A  
HETATM   20  C   UNL     1      -8.865  16.204  67.551  1.00  0.00    -0.189 A  
HETATM   21  C   UNL     1      -7.559  16.345  68.098  1.00  0.00    -0.157 A  
HETATM   22  C   UNL     1      -8.258  13.843  67.215  1.00  0.00    -0.176 A  
HETATM   23  C   UNL     1      -6.650  15.294  68.229  1.00  0.00    -0.116 A  
HETATM   24  C   UNL     1      -6.999  14.038  67.784  1.00  0.00    -0.188 A  
BRANCH  20  25
HETATM   25  N   UNL     1      -9.659  17.356  67.523  1.00  0.00    -0.253 NA 
HETATM   26  C   UNL     1     -10.265  17.881  68.768  1.00  0.00    -0.360 C  
HETATM   27  C   UNL     1     -10.034  19.395  68.844  1.00  0.00    -0.519 C  
HETATM   28  C   UNL     1     -10.637  20.096  67.632  1.00  0.00    -0.332 C  
HETATM   29  C   UNL     1     -10.090  19.493  66.352  1.00  0.00    -0.551 C  
HETATM   30  C   UNL     1     -10.212  17.975  66.319  1.00  0.00    -0.381 C  
ENDBRANCH  20  25
ENDBRANCH  18  19
BRANCH  18  31
HETATM   31  C   UNL     1     -11.587  14.547  67.784  1.00  0.00    -0.390 C  
HETATM   32  C   UNL     1     -11.096  12.201  68.739  1.00  0.00    -0.297 C  
HETATM   33  C   UNL     1     -11.195  13.703  69.015  1.00  0.00    -0.316 C  
HETATM   34  C   UNL     1     -12.246  13.916  70.110  1.00  0.00    -0.425 C  
ENDBRANCH  18  31
ENDBRANCH  16  18
ENDBRANCH  13  14
ENDBRANCH  11  13
ENDBRANCH   3   4
ENDBRANCH   2   3
TORSDOF 8
ENDMDL
MODEL      111
REMARK 921   NORMALIZED FREE ENERGY PREDICTED BY IDOCK:   -5.54 KCAL/MOL
REMARK 922        TOTAL FREE ENERGY PREDICTED BY IDOCK:  -10.53 KCAL/MOL
REMARK 923 INTER-LIGAND FREE ENERGY PREDICTED BY IDOCK:   -8.34 KCAL/MOL
REMARK 924 INTRA-LIGAND FREE ENERGY PREDICTED BY IDOCK:   -2.20 KCAL/MOL
REMARK 927      BINDING AFFINITY PREDICTED BY RF-SCORE:    0.00 PKD
ROOT
HETATM    1  C   UNL     1      -9.079  10.928  62.468  1.00  0.00    -0.361 C  
HETATM    2  C   UNL     1      -9.308  10.292  63.820  1.00  0.00    -0.295 C  
ENDROOT
BRANCH   2   3
HETATM    3  O   UNL     1      -8.333   9.249  64.024  1.00  0.00    -0.158 OA 
BRANCH   3   4
HETATM    4  C   UNL     1      -8.300   8.737  65.297  1.00  0.00    -0.160 A  
HETATM    5  C   UNL     1      -8.262   7.344  65.470  1.00  0.00    -0.135 A  
HETATM    6  C   UNL     1      -8.297   6.818  66.775  1.00  0.00    -0.115 A  
HETATM    7  C   UNL     1      -8.215   6.345  64.352  1.00  0.00    -0.019 C  
HETATM    8  C   UNL     1      -8.365   7.656  67.885  1.00  0.00    -0.123 A  
HETATM    9  O   UNL     1      -8.278   5.137  64.545  1.00  0.00    -0.120 OA 
HETATM   10  O   UNL     1      -8.072   6.867  63.122  1.00  0.00    -0.100 OA 
HETATM   11  C   UNL     1      -8.375   9.044  67.719  1.00  0.00    -0.117 A  
HETATM   12  C   UNL     1      -8.301   9.572  66.426  1.00  0.00    -0.120 A  
BRANCH  11  13
HETATM   13  C   UNL     1      -8.462   9.971  68.905  1.00  0.00    -0.132 C  
BRANCH  13  14
HETATM   14  C   UNL     1      -8.845  11.389  68.531  1.00  0.00    -0.151 C  
HETATM   15  O   UNL     1      -7.975  12.210  68.243  1.00  0.00    -0.148 OA 
HETATM   16  N   UNL     1     -10.202  11.666  68.521  1.00  0.00    -0.206 N  
HETATM   17  H   UNL     1     -10.860  10.948  68.823  1.00  0.00     0.000 HD 
BRANCH  16  18
HETATM   18  C   UNL     1     -10.714  12.977  68.082  1.00  0.00    -0.242 C  
BRANCH  18  19
HETATM   19  C   UNL     1     -11.234  13.911  69.190  1.00  0.00    -0.311 A  
HETATM   20  C   UNL     1     -10.959  15.319  69.243  1.00  0.00    -0.261 A  
HETATM   21  C   UNL     1     -11.638  16.049  70.257  1.00  0.00    -0.335 A  
HETATM   22  C   UNL     1     -12.170  13.361  70.113  1.00  0.00    -0.385 A  
HETATM   23  C   UNL     1     -12.559  15.485  71.141  1.00  0.00    -0.509 A  
HETATM   24  C   UNL     1     -12.825  14.135  71.071  1.00  0.00    -0.421 A  
BRANCH  20  25
HETATM   25  N   UNL     1     -10.091  16.048  68.421  1.00  0.00    -0.225 NA 
HETATM   26  C   UNL     1      -8.626  15.872  68.531  1.00  0.00    -0.190 C  
HETATM   27  C   UNL     1      -8.027  15.715  67.129  1.00  0.00    -0.254 C  
HETATM   28  C   UNL     1      -8.344  16.932  66.267  1.00  0.00    -0.331 C  
HETATM   29  C   UNL     1      -9.842  17.174  66.232  1.00  0.00    -0.306 C  
HETATM   30  C   UNL     1     -10.463  17.215  67.621  1.00  0.00    -0.355 C  
ENDBRANCH  20  25
ENDBRANCH  18  19
BRANCH  18  31
HETATM   31  C   UNL     1     -11.802  12.843  66.998  1.00  0.00    -0.437 C  
HETATM   32  C   UNL     1     -10.462  13.812  65.017  1.00  0.00    -0.418 C  
HETATM   33  C   UNL     1     -11.305  12.651  65.551  1.00  0.00    -0.356 C  
HETATM   34  C   UNL     1     -12.521  12.487  64.633  1.00  0.00    -0.539 C  
ENDBRANCH  18  31
ENDBRANCH  16  18
ENDBRANCH  13  14
ENDBRANCH  11  13
ENDBRANCH   3   4
ENDBRANCH   2   3
TORSDOF 8
ENDMDL
MODEL      112
REMARK 921   NORMALIZED FREE ENERGY PREDICTED BY IDOCK:   -5.52 KCAL/MOL
REMARK 922        TOTAL FREE ENERGY PREDICTED BY IDOCK:  -10.50 KCAL/MOL
REMARK 923 INTER-LIGAND FREE ENERGY PREDICTED BY IDOCK:   -7.77 KCAL/MOL
REMARK 924 INTRA-LIGAND FREE ENERGY PREDICTED BY IDOCK:   -2.73 KCAL/MOL
REMARK 927      BINDING AFFINITY PREDICTED BY RF-SCORE:    0.00 PKD
ROOT
HETATM    1  C   UNL     1     -12.378  11.384  70.902  1.00  0.00    -0.483 C  
HETATM    2  C   UNL     1     -12.072  12.017  69.563  1.00  0.00    -0.212 C  
ENDROOT
BRANCH   2   3
HETATM    3  O   UNL     1     -12.123  11.003  68.539  1.00  0.00    -0.573 OA 
BRANCH   3   4
HETATM    4  C   UNL     1     -11.141  11.105  67.584  1.00  0.00    -0.287 A  
HETATM    5  C   UNL     1     -10.050  10.224  67.633  1.00  0.00    -0.229 A  
HETATM    6  C   UNL     1      -9.011  10.373  66.696  1.00  0.00    -0.155 A  
HETATM    7  C   UNL     1      -9.880   9.128  68.644  1.00  0.00    -0.164 C  
HETATM    8  C   UNL     1      -9.055  11.373  65.728  1.00  0.00    -0.195 A  
HETATM    9  O   UNL     1      -8.868   8.442  68.708  1.00  0.00    -0.139 OA 
HETATM   10  O   UNL     1     -10.930   8.932  69.459  1.00  0.00    -0.195 OA 
HETATM   11  C   UNL     1     -10.154  12.235  65.658  1.00  0.00    -0.275 A  
HETATM   12  C   UNL     1     -11.206  12.066  66.562  1.00  0.00    -0.387 A  
BRANCH  11  13
HETATM   13  C   UNL     1     -10.217  13.334  64.628  1.00  0.00    -0.334 C  
BRANCH  13  14
HETATM   14  C   UNL     1     -10.080  14.722  65.222  1.00  0.00    -0.354 C  
HETATM   15  O   UNL     1     -10.798  15.639  64.826  1.00  0.00    -0.437 OA 
HETATM   16  N   UNL     1      -9.131  14.860  66.222  1.00  0.00    -0.449 N  
HETATM   17  H   UNL     1      -8.537  14.066  66.459  1.00  0.00     0.000 HD 
BRANCH  16  18
HETATM   18  C   UNL     1      -8.964  16.131  66.950  1.00  0.00    -0.223 C  
BRANCH  18  19
HETATM   19  C   UNL     1      -7.624  16.860  66.747  1.00  0.00    -0.280 A  
HETATM   20  C   UNL     1      -6.362  16.360  67.217  1.00  0.00    -0.180 A  
HETATM   21  C   UNL     1      -5.212  17.095  66.815  1.00  0.00    -0.196 A  
HETATM   22  C   UNL     1      -7.633  18.010  65.906  1.00  0.00    -0.171 A  
HETATM   23  C   UNL     1      -5.251  18.213  65.981  1.00  0.00    -0.213 A  
HETATM   24  C   UNL     1      -6.467  18.674  65.525  1.00  0.00    -0.321 A  
BRANCH  20  25
HETATM   25  N   UNL     1      -6.139  15.244  68.032  1.00  0.00    -0.134 NA 
HETATM   26  C   UNL     1      -5.569  15.406  69.388  1.00  0.00    -0.100 C  
HETATM   27  C   UNL     1      -6.385  14.574  70.384  1.00  0.00    -0.155 C  
HETATM   28  C   UNL     1      -6.384  13.102  69.988  1.00  0.00    -0.006 C  
HETATM   29  C   UNL     1      -6.877  12.943  68.562  1.00  0.00    -0.095 C  
HETATM   30  C   UNL     1      -6.147  13.853  67.583  1.00  0.00    -0.071 C  
ENDBRANCH  20  25
ENDBRANCH  18  19
BRANCH  18  31
HETATM   31  C   UNL     1      -9.217  15.973  68.462  1.00  0.00    -0.206 C  
HETATM   32  C   UNL     1     -11.778  15.674  68.373  1.00  0.00    -0.301 C  
HETATM   33  C   UNL     1     -10.439  15.122  68.866  1.00  0.00    -0.241 C  
HETATM   34  C   UNL     1     -10.494  15.039  70.395  1.00  0.00    -0.013 C  
ENDBRANCH  18  31
ENDBRANCH  16  18
ENDBRANCH  13  14
ENDBRANCH  11  13
ENDBRANCH   3   4
ENDBRANCH   2   3
TORSDOF 8
ENDMDL
MODEL      113
REMARK 921   NORMALIZED FREE ENERGY PREDICTED BY IDOCK:   -5.51 KCAL/MOL
REMARK 922        TOTAL FREE ENERGY PREDICTED BY IDOCK:  -10.48 KCAL/MOL
REMARK 923 INTER-LIGAND FREE ENERGY PREDICTED BY IDOCK:   -8.40 KCAL/MOL
REMARK 924 INTRA-LIGAND FREE ENERGY PREDICTED BY IDOCK:   -2.08 KCAL/MOL
REMARK 927      BINDING AFFINITY PREDICTED BY RF-SCORE:    0.00 PKD
ROOT
HETATM    1  C   UNL     1     -12.086  11.818  69.390  1.00  0.00    -0.301 C  
HETATM    2  C   UNL     1     -11.486  12.750  68.362  1.00  0.00    -0.311 C  
ENDROOT
BRANCH   2   3
HETATM    3  O   UNL     1     -11.946  12.364  67.050  1.00  0.00    -0.541 OA 
BRANCH   3   4
HETATM    4  C   UNL     1     -10.972  11.850  66.231  1.00  0.00    -0.302 A  
HETATM    5  C   UNL     1     -11.232  11.728  64.857  1.00  0.00    -0.328 A  
HETATM    6  C   UNL     1     -10.260  11.137  64.028  1.00  0.00    -0.419 A  
HETATM    7  C   UNL     1     -12.503  12.159  64.186  1.00  0.00    -0.396 C  
HETATM    8  C   UNL     1      -9.053  10.680  64.551  1.00  0.00    -0.243 A  
HETATM    9  O   UNL     1     -12.726  11.950  63.000  1.00  0.00    -0.472 OA 
HETATM   10  O   UNL     1     -13.371  12.818  64.972  1.00  0.00    -0.678 OA 
HETATM   11  C   UNL     1      -8.778  10.824  65.915  1.00  0.00    -0.189 A  
HETATM   12  C   UNL     1      -9.725  11.445  66.734  1.00  0.00    -0.221 A  
BRANCH  11  13
HETATM   13  C   UNL     1      -7.485  10.324  66.506  1.00  0.00    -0.113 C  
BRANCH  13  14
HETATM   14  C   UNL     1      -7.675   9.181  67.485  1.00  0.00    -0.092 C  
HETATM   15  O   UNL     1      -7.353   8.037  67.170  1.00  0.00    -0.088 OA 
HETATM   16  N   UNL     1      -8.199   9.525  68.720  1.00  0.00    -0.110 N  
HETATM   17  H   UNL     1      -8.492  10.487  68.888  1.00  0.00     0.000 HD 
BRANCH  16  18
HETATM   18  C   UNL     1      -8.344   8.527  69.795  1.00  0.00    -0.124 C  
BRANCH  18  19
HETATM   19  C   UNL     1      -9.783   8.121  70.159  1.00  0.00    -0.175 A  
HETATM   20  C   UNL     1     -10.487   7.031  69.542  1.00  0.00    -0.220 A  
HETATM   21  C   UNL     1     -11.754   6.711  70.103  1.00  0.00    -0.412 A  
HETATM   22  C   UNL     1     -10.375   8.769  71.282  1.00  0.00    -0.331 A  
HETATM   23  C   UNL     1     -12.304   7.356  71.212  1.00  0.00    -0.380 A  
HETATM   24  C   UNL     1     -11.612   8.392  71.803  1.00  0.00    -0.372 A  
BRANCH  20  25
HETATM   25  N   UNL     1     -10.073   6.261  68.450  1.00  0.00    -0.146 NA 
HETATM   26  C   UNL     1      -9.037   5.217  68.615  1.00  0.00    -0.111 C  
HETATM   27  C   UNL     1      -9.499   3.930  67.922  1.00  0.00    -0.227 C  
HETATM   28  C   UNL     1      -9.760   4.178  66.440  1.00  0.00    -0.223 C  
HETATM   29  C   UNL     1     -10.749   5.315  66.265  1.00  0.00    -0.260 C  
HETATM   30  C   UNL     1     -10.356   6.561  67.046  1.00  0.00    -0.253 C  
ENDBRANCH  20  25
ENDBRANCH  18  19
BRANCH  18  31
HETATM   31  C   UNL     1      -7.610   8.950  71.083  1.00  0.00    -0.143 C  
HETATM   32  C   UNL     1      -7.364   6.612  72.146  1.00  0.00    -0.089 C  
HETATM   33  C   UNL     1      -6.667   7.901  71.708  1.00  0.00    -0.053 C  
HETATM   34  C   UNL     1      -5.995   8.519  72.939  1.00  0.00    -0.079 C  
ENDBRANCH  18  31
ENDBRANCH  16  18
ENDBRANCH  13  14
ENDBRANCH  11  13
ENDBRANCH   3   4
ENDBRANCH   2   3
TORSDOF 8
ENDMDL
MODEL      114
REMARK 921   NORMALIZED FREE ENERGY PREDICTED BY IDOCK:   -5.49 KCAL/MOL
REMARK 922        TOTAL FREE ENERGY PREDICTED BY IDOCK:  -10.45 KCAL/MOL
REMARK 923 INTER-LIGAND FREE ENERGY PREDICTED BY IDOCK:   -8.51 KCAL/MOL
REMARK 924 INTRA-LIGAND FREE ENERGY PREDICTED BY IDOCK:   -1.94 KCAL/MOL
REMARK 927      BINDING AFFINITY PREDICTED BY RF-SCORE:    0.00 PKD
ROOT
HETATM    1  C   UNL     1      -8.923   3.790  68.877  1.00  0.00    -0.178 C  
HETATM    2  C   UNL     1      -9.838   4.991  68.964  1.00  0.00    -0.182 C  
ENDROOT
BRANCH   2   3
HETATM    3  O   UNL     1     -10.610   4.909  70.180  1.00  0.00    -0.184 OA 
BRANCH   3   4
HETATM    4  C   UNL     1     -10.800   6.109  70.819  1.00  0.00    -0.288 A  
HETATM    5  C   UNL     1     -10.928   6.123  72.217  1.00  0.00    -0.302 A  
HETATM    6  C   UNL     1     -11.191   7.343  72.865  1.00  0.00    -0.368 A  
HETATM    7  C   UNL     1     -10.835   4.910  73.096  1.00  0.00    -0.282 C  
HETATM    8  C   UNL     1     -11.320   8.527  72.143  1.00  0.00    -0.442 A  
HETATM    9  O   UNL     1     -11.046   4.953  74.302  1.00  0.00    -0.272 OA 
HETATM   10  O   UNL     1     -10.477   3.776  72.471  1.00  0.00    -0.160 OA 
HETATM   11  C   UNL     1     -11.165   8.523  70.753  1.00  0.00    -0.289 A  
HETATM   12  C   UNL     1     -10.866   7.319  70.109  1.00  0.00    -0.274 A  
BRANCH  11  13
HETATM   13  C   UNL     1     -11.315   9.789  69.948  1.00  0.00    -0.238 C  
BRANCH  13  14
HETATM   14  C   UNL     1     -10.000  10.310  69.400  1.00  0.00    -0.233 C  
HETATM   15  O   UNL     1      -8.947  10.070  69.988  1.00  0.00    -0.195 OA 
HETATM   16  N   UNL     1     -10.081  11.030  68.220  1.00  0.00    -0.171 N  
HETATM   17  H   UNL     1     -10.997  11.232  67.820  1.00  0.00     0.000 HD 
BRANCH  16  18
HETATM   18  C   UNL     1      -8.870  11.509  67.530  1.00  0.00    -0.155 C  
BRANCH  18  19
HETATM   19  C   UNL     1      -8.328  12.878  67.977  1.00  0.00    -0.169 A  
HETATM   20  C   UNL     1      -9.000  14.123  67.732  1.00  0.00    -0.187 A  
HETATM   21  C   UNL     1      -8.425  15.272  68.342  1.00  0.00    -0.158 A  
HETATM   22  C   UNL     1      -7.178  12.875  68.819  1.00  0.00    -0.081 A  
HETATM   23  C   UNL     1      -7.303  15.238  69.171  1.00  0.00    -0.172 A  
HETATM   24  C   UNL     1      -6.675  14.034  69.410  1.00  0.00    -0.107 A  
BRANCH  20  25
HETATM   25  N   UNL     1     -10.145  14.334  66.955  1.00  0.00    -0.260 NA 
HETATM   26  C   UNL     1     -10.070  15.121  65.703  1.00  0.00    -0.363 C  
HETATM   27  C   UNL     1     -10.810  14.374  64.589  1.00  0.00    -0.363 C  
HETATM   28  C   UNL     1     -12.267  14.138  64.972  1.00  0.00    -0.450 C  
HETATM   29  C   UNL     1     -12.349  13.416  66.304  1.00  0.00    -0.410 C  
HETATM   30  C   UNL     1     -11.520  14.090  67.389  1.00  0.00    -0.348 C  
ENDBRANCH  20  25
ENDBRANCH  18  19
BRANCH  18  31
HETATM   31  C   UNL     1      -9.039  11.521  65.998  1.00  0.00    -0.206 C  
HETATM   32  C   UNL     1      -9.443   8.995  65.656  1.00  0.00    -0.273 C  
HETATM   33  C   UNL     1      -9.940  10.420  65.400  1.00  0.00    -0.362 C  
HETATM   34  C   UNL     1     -10.027  10.627  63.884  1.00  0.00    -0.390 C  
ENDBRANCH  18  31
ENDBRANCH  16  18
ENDBRANCH  13  14
ENDBRANCH  11  13
ENDBRANCH   3   4
ENDBRANCH   2   3
TORSDOF 8
ENDMDL
MODEL      115
REMARK 921   NORMALIZED FREE ENERGY PREDICTED BY IDOCK:   -5.48 KCAL/MOL
REMARK 922        TOTAL FREE ENERGY PREDICTED BY IDOCK:  -10.43 KCAL/MOL
REMARK 923 INTER-LIGAND FREE ENERGY PREDICTED BY IDOCK:   -7.19 KCAL/MOL
REMARK 924 INTRA-LIGAND FREE ENERGY PREDICTED BY IDOCK:   -3.24 KCAL/MOL
REMARK 927      BINDING AFFINITY PREDICTED BY RF-SCORE:    0.00 PKD
ROOT
HETATM    1  C   UNL     1     -11.361   9.778  71.246  1.00  0.00    -0.445 C  
HETATM    2  C   UNL     1     -10.181   9.085  70.602  1.00  0.00    -0.229 C  
ENDROOT
BRANCH   2   3
HETATM    3  O   UNL     1     -10.664   8.081  69.687  1.00  0.00    -0.238 OA 
BRANCH   3   4
HETATM    4  C   UNL     1     -10.136   8.158  68.422  1.00  0.00    -0.200 A  
HETATM    5  C   UNL     1      -9.139   7.244  68.044  1.00  0.00    -0.133 A  
HETATM    6  C   UNL     1      -8.549   7.366  66.773  1.00  0.00    -0.127 A  
HETATM    7  C   UNL     1      -8.617   6.139  68.915  1.00  0.00    -0.121 C  
HETATM    8  C   UNL     1      -8.942   8.371  65.892  1.00  0.00    -0.223 A  
HETATM    9  O   UNL     1      -7.682   5.423  68.581  1.00  0.00    -0.082 OA 
HETATM   10  O   UNL     1      -9.267   5.972  70.079  1.00  0.00    -0.147 OA 
HETATM   11  C   UNL     1      -9.954   9.266  66.254  1.00  0.00    -0.357 A  
HETATM   12  C   UNL     1     -10.569   9.125  67.501  1.00  0.00    -0.317 A  
BRANCH  11  13
HETATM   13  C   UNL     1     -10.386  10.371  65.324  1.00  0.00    -0.267 C  
BRANCH  13  14
HETATM   14  C   UNL     1     -10.779  11.645  66.046  1.00  0.00    -0.280 C  
HETATM   15  O   UNL     1     -11.963  11.892  66.264  1.00  0.00    -0.554 OA 
HETATM   16  N   UNL     1      -9.733  12.462  66.443  1.00  0.00    -0.236 N  
HETATM   17  H   UNL     1      -8.779  12.215  66.179  1.00  0.00     0.000 HD 
BRANCH  16  18
HETATM   18  C   UNL     1      -9.970  13.680  67.238  1.00  0.00    -0.240 C  
BRANCH  18  19
HETATM   19  C   UNL     1      -8.809  14.687  67.304  1.00  0.00    -0.220 A  
HETATM   20  C   UNL     1      -7.438  14.316  67.515  1.00  0.00    -0.182 A  
HETATM   21  C   UNL     1      -6.484  15.364  67.403  1.00  0.00    -0.115 A  
HETATM   22  C   UNL     1      -9.108  16.041  66.974  1.00  0.00    -0.234 A  
HETATM   23  C   UNL     1      -6.805  16.680  67.067  1.00  0.00    -0.244 A  
HETATM   24  C   UNL     1      -8.123  17.022  66.854  1.00  0.00    -0.252 A  
BRANCH  20  25
HETATM   25  N   UNL     1      -6.940  13.046  67.829  1.00  0.00    -0.127 NA 
HETATM   26  C   UNL     1      -7.060  12.510  69.204  1.00  0.00     0.020 C  
HETATM   27  C   UNL     1      -7.572  11.067  69.143  1.00  0.00    -0.113 C  
HETATM   28  C   UNL     1      -6.631  10.193  68.321  1.00  0.00    -0.054 C  
HETATM   29  C   UNL     1      -6.429  10.793  66.942  1.00  0.00    -0.090 C  
HETATM   30  C   UNL     1      -6.031  12.262  66.993  1.00  0.00    -0.041 C  
ENDBRANCH  20  25
ENDBRANCH  18  19
BRANCH  18  31
HETATM   31  C   UNL     1     -10.426  13.357  68.675  1.00  0.00    -0.237 C  
HETATM   32  C   UNL     1     -11.977  15.388  69.030  1.00  0.00    -0.313 C  
HETATM   33  C   UNL     1     -11.825  13.866  69.080  1.00  0.00    -0.397 C  
HETATM   34  C   UNL     1     -12.119  13.406  70.512  1.00  0.00    -0.399 C  
ENDBRANCH  18  31
ENDBRANCH  16  18
ENDBRANCH  13  14
ENDBRANCH  11  13
ENDBRANCH   3   4
ENDBRANCH   2   3
TORSDOF 8
ENDMDL
MODEL      116
REMARK 921   NORMALIZED FREE ENERGY PREDICTED BY IDOCK:   -5.48 KCAL/MOL
REMARK 922        TOTAL FREE ENERGY PREDICTED BY IDOCK:  -10.43 KCAL/MOL
REMARK 923 INTER-LIGAND FREE ENERGY PREDICTED BY IDOCK:   -7.38 KCAL/MOL
REMARK 924 INTRA-LIGAND FREE ENERGY PREDICTED BY IDOCK:   -3.05 KCAL/MOL
REMARK 927      BINDING AFFINITY PREDICTED BY RF-SCORE:    0.00 PKD
ROOT
HETATM    1  C   UNL     1      -9.443  10.038  64.402  1.00  0.00    -0.349 C  
HETATM    2  C   UNL     1      -7.963   9.797  64.592  1.00  0.00    -0.139 C  
ENDROOT
BRANCH   2   3
HETATM    3  O   UNL     1      -7.769   8.886  65.693  1.00  0.00    -0.085 OA 
BRANCH   3   4
HETATM    4  C   UNL     1      -7.499   9.490  66.895  1.00  0.00    -0.094 A  
HETATM    5  C   UNL     1      -7.772   8.794  68.083  1.00  0.00    -0.101 A  
HETATM    6  C   UNL     1      -7.559   9.439  69.316  1.00  0.00    -0.081 A  
HETATM    7  C   UNL     1      -8.310   7.395  68.150  1.00  0.00    -0.124 C  
HETATM    8  C   UNL     1      -7.083  10.747  69.369  1.00  0.00    -0.122 A  
HETATM    9  O   UNL     1      -8.621   6.858  69.206  1.00  0.00    -0.131 OA 
HETATM   10  O   UNL     1      -8.402   6.759  66.970  1.00  0.00    -0.112 OA 
HETATM   11  C   UNL     1      -6.785  11.435  68.188  1.00  0.00    -0.059 A  
HETATM   12  C   UNL     1      -6.958  10.784  66.963  1.00  0.00    -0.100 A  
BRANCH  11  13
HETATM   13  C   UNL     1      -6.282  12.855  68.220  1.00  0.00    -0.082 C  
BRANCH  13  14
HETATM   14  C   UNL     1      -7.395  13.885  68.222  1.00  0.00    -0.117 C  
HETATM   15  O   UNL     1      -7.633  14.537  69.238  1.00  0.00    -0.133 OA 
HETATM   16  N   UNL     1      -8.078  14.039  67.028  1.00  0.00    -0.380 N  
HETATM   17  H   UNL     1      -7.859  13.424  66.244  1.00  0.00     0.000 HD 
BRANCH  16  18
HETATM   18  C   UNL     1      -9.117  15.073  66.866  1.00  0.00    -0.247 C  
BRANCH  18  19
HETATM   19  C   UNL     1     -10.415  14.630  66.169  1.00  0.00    -0.308 A  
HETATM   20  C   UNL     1     -11.302  13.628  66.690  1.00  0.00    -0.326 A  
HETATM   21  C   UNL     1     -12.525  13.451  65.986  1.00  0.00    -0.431 A  
HETATM   22  C   UNL     1     -10.827  15.382  65.030  1.00  0.00    -0.462 A  
HETATM   23  C   UNL     1     -12.906  14.209  64.878  1.00  0.00    -0.173 A  
HETATM   24  C   UNL     1     -12.053  15.178  64.396  1.00  0.00    -0.313 A  
BRANCH  20  25
HETATM   25  N   UNL     1     -11.093  12.802  67.800  1.00  0.00    -0.241 NA 
HETATM   26  C   UNL     1     -11.205  13.344  69.173  1.00  0.00    -0.248 C  
HETATM   27  C   UNL     1     -12.050  12.392  70.026  1.00  0.00    -0.335 C  
HETATM   28  C   UNL     1     -11.428  11.001  70.063  1.00  0.00    -0.398 C  
HETATM   29  C   UNL     1     -11.222  10.482  68.652  1.00  0.00    -0.328 C  
HETATM   30  C   UNL     1     -10.482  11.473  67.764  1.00  0.00    -0.188 C  
ENDBRANCH  20  25
ENDBRANCH  18  19
BRANCH  18  31
HETATM   31  C   UNL     1      -8.579  16.331  66.157  1.00  0.00    -0.342 C  
HETATM   32  C   UNL     1      -9.847  18.100  67.543  1.00  0.00    -0.317 C  
HETATM   33  C   UNL     1      -8.498  17.615  67.009  1.00  0.00    -0.252 C  
HETATM   34  C   UNL     1      -7.896  18.734  66.153  1.00  0.00    -0.263 C  
ENDBRANCH  18  31
ENDBRANCH  16  18
ENDBRANCH  13  14
ENDBRANCH  11  13
ENDBRANCH   3   4
ENDBRANCH   2   3
TORSDOF 8
ENDMDL
MODEL      117
REMARK 921   NORMALIZED FREE ENERGY PREDICTED BY IDOCK:   -5.47 KCAL/MOL
REMARK 922        TOTAL FREE ENERGY PREDICTED BY IDOCK:  -10.43 KCAL/MOL
REMARK 923 INTER-LIGAND FREE ENERGY PREDICTED BY IDOCK:   -9.09 KCAL/MOL
REMARK 924 INTRA-LIGAND FREE ENERGY PREDICTED BY IDOCK:   -1.33 KCAL/MOL
REMARK 927      BINDING AFFINITY PREDICTED BY RF-SCORE:    0.00 PKD
ROOT
HETATM    1  C   UNL     1     -11.985  12.965  70.117  1.00  0.00    -0.373 C  
HETATM    2  C   UNL     1     -12.075  11.824  69.129  1.00  0.00    -0.228 C  
ENDROOT
BRANCH   2   3
HETATM    3  O   UNL     1     -12.057  12.357  67.789  1.00  0.00    -0.447 OA 
BRANCH   3   4
HETATM    4  C   UNL     1     -11.313  11.629  66.894  1.00  0.00    -0.295 A  
HETATM    5  C   UNL     1     -11.372  11.961  65.531  1.00  0.00    -0.334 A  
HETATM    6  C   UNL     1     -10.663  11.172  64.606  1.00  0.00    -0.350 A  
HETATM    7  C   UNL     1     -12.170  13.097  64.961  1.00  0.00    -0.440 C  
HETATM    8  C   UNL     1      -9.908  10.079  65.025  1.00  0.00    -0.374 A  
HETATM    9  O   UNL     1     -12.268  13.294  63.756  1.00  0.00    -0.561 OA 
HETATM   10  O   UNL     1     -12.750  13.901  65.868  1.00  0.00    -0.489 OA 
HETATM   11  C   UNL     1      -9.824   9.762  66.384  1.00  0.00    -0.298 A  
HETATM   12  C   UNL     1     -10.496  10.566  67.309  1.00  0.00    -0.300 A  
BRANCH  11  13
HETATM   13  C   UNL     1      -9.025   8.575  66.859  1.00  0.00    -0.166 C  
BRANCH  13  14
HETATM   14  C   UNL     1      -9.882   7.367  67.186  1.00  0.00    -0.193 C  
HETATM   15  O   UNL     1     -11.044   7.308  66.790  1.00  0.00    -0.205 OA 
HETATM   16  N   UNL     1      -9.263   6.369  67.920  1.00  0.00    -0.115 N  
HETATM   17  H   UNL     1      -8.312   6.514  68.258  1.00  0.00     0.000 HD 
BRANCH  16  18
HETATM   18  C   UNL     1      -9.952   5.101  68.222  1.00  0.00    -0.146 C  
BRANCH  18  19
HETATM   19  C   UNL     1      -9.812   4.577  69.663  1.00  0.00    -0.288 A  
HETATM   20  C   UNL     1     -10.196   5.325  70.827  1.00  0.00    -0.246 A  
HETATM   21  C   UNL     1     -10.130   4.628  72.065  1.00  0.00    -0.262 A  
HETATM   22  C   UNL     1      -9.433   3.213  69.821  1.00  0.00    -0.198 A  
HETATM   23  C   UNL     1      -9.764   3.287  72.188  1.00  0.00    -0.230 A  
HETATM   24  C   UNL     1      -9.412   2.576  71.062  1.00  0.00    -0.222 A  
BRANCH  20  25
HETATM   25  N   UNL     1     -10.613   6.660  70.881  1.00  0.00    -0.219 NA 
HETATM   26  C   UNL     1     -11.991   7.033  70.490  1.00  0.00    -0.266 C  
HETATM   27  C   UNL     1     -12.581   7.973  71.547  1.00  0.00    -0.332 C  
HETATM   28  C   UNL     1     -11.723   9.224  71.699  1.00  0.00    -0.462 C  
HETATM   29  C   UNL     1     -10.288   8.841  72.004  1.00  0.00    -0.411 C  
HETATM   30  C   UNL     1      -9.731   7.818  71.023  1.00  0.00    -0.163 C  
ENDBRANCH  20  25
ENDBRANCH  18  19
BRANCH  18  31
HETATM   31  C   UNL     1      -9.554   3.976  67.246  1.00  0.00    -0.229 C  
HETATM   32  C   UNL     1      -7.210   4.851  66.617  1.00  0.00    -0.080 C  
HETATM   33  C   UNL     1      -8.046   3.675  67.127  1.00  0.00    -0.091 C  
HETATM   34  C   UNL     1      -7.856   2.503  66.159  1.00  0.00    -0.081 C  
ENDBRANCH  18  31
ENDBRANCH  16  18
ENDBRANCH  13  14
ENDBRANCH  11  13
ENDBRANCH   3   4
ENDBRANCH   2   3
TORSDOF 8
ENDMDL
MODEL      118
REMARK 921   NORMALIZED FREE ENERGY PREDICTED BY IDOCK:   -5.45 KCAL/MOL
REMARK 922        TOTAL FREE ENERGY PREDICTED BY IDOCK:  -10.39 KCAL/MOL
REMARK 923 INTER-LIGAND FREE ENERGY PREDICTED BY IDOCK:   -8.10 KCAL/MOL
REMARK 924 INTRA-LIGAND FREE ENERGY PREDICTED BY IDOCK:   -2.29 KCAL/MOL
REMARK 927      BINDING AFFINITY PREDICTED BY RF-SCORE:    0.00 PKD
ROOT
HETATM    1  C   UNL     1      -6.312  11.154  70.269  1.00  0.00    -0.097 C  
HETATM    2  C   UNL     1      -7.338  10.146  69.804  1.00  0.00    -0.158 C  
ENDROOT
BRANCH   2   3
HETATM    3  O   UNL     1      -7.693   9.290  70.909  1.00  0.00    -0.152 OA 
BRANCH   3   4
HETATM    4  C   UNL     1      -8.991   8.843  70.892  1.00  0.00    -0.222 A  
HETATM    5  C   UNL     1      -9.235   7.462  70.819  1.00  0.00    -0.159 A  
HETATM    6  C   UNL     1     -10.564   7.008  70.733  1.00  0.00    -0.240 A  
HETATM    7  C   UNL     1      -8.170   6.406  70.797  1.00  0.00    -0.125 C  
HETATM    8  C   UNL     1     -11.630   7.905  70.723  1.00  0.00    -0.258 A  
HETATM    9  O   UNL     1      -8.423   5.218  70.639  1.00  0.00    -0.113 OA 
HETATM   10  O   UNL     1      -6.917   6.851  70.990  1.00  0.00    -0.063 OA 
HETATM   11  C   UNL     1     -11.393   9.280  70.823  1.00  0.00    -0.349 A  
HETATM   12  C   UNL     1     -10.076   9.732  70.948  1.00  0.00    -0.135 A  
BRANCH  11  13
HETATM   13  C   UNL     1     -12.529  10.270  70.799  1.00  0.00    -0.439 C  
BRANCH  13  14
HETATM   14  C   UNL     1     -12.207  11.535  70.028  1.00  0.00    -0.278 C  
HETATM   15  O   UNL     1     -12.194  12.623  70.602  1.00  0.00    -0.374 OA 
HETATM   16  N   UNL     1     -11.919  11.366  68.684  1.00  0.00    -0.304 N  
HETATM   17  H   UNL     1     -12.002  10.439  68.268  1.00  0.00     0.000 HD 
BRANCH  16  18
HETATM   18  C   UNL     1     -11.495  12.500  67.843  1.00  0.00    -0.315 C  
BRANCH  18  19
HETATM   19  C   UNL     1     -11.398  12.228  66.331  1.00  0.00    -0.405 A  
HETATM   20  C   UNL     1     -10.716  11.099  65.764  1.00  0.00    -0.188 A  
HETATM   21  C   UNL     1     -10.851  10.931  64.358  1.00  0.00    -0.137 A  
HETATM   22  C   UNL     1     -12.171  13.062  65.472  1.00  0.00    -0.521 A  
HETATM   23  C   UNL     1     -11.624  11.759  63.543  1.00  0.00    -0.487 A  
HETATM   24  C   UNL     1     -12.286  12.831  64.102  1.00  0.00    -0.506 A  
BRANCH  20  25
HETATM   25  N   UNL     1      -9.926  10.157  66.433  1.00  0.00    -0.223 NA 
HETATM   26  C   UNL     1     -10.554   9.065  67.211  1.00  0.00    -0.231 C  
HETATM   27  C   UNL     1      -9.871   7.738  66.864  1.00  0.00    -0.305 C  
HETATM   28  C   UNL     1      -8.378   7.803  67.167  1.00  0.00    -0.118 C  
HETATM   29  C   UNL     1      -7.749   8.981  66.448  1.00  0.00    -0.099 C  
HETATM   30  C   UNL     1      -8.493  10.287  66.695  1.00  0.00    -0.124 C  
ENDBRANCH  20  25
ENDBRANCH  18  19
BRANCH  18  31
HETATM   31  C   UNL     1     -10.164  13.113  68.320  1.00  0.00    -0.250 C  
HETATM   32  C   UNL     1     -10.581  15.538  67.544  1.00  0.00    -0.297 C  
HETATM   33  C   UNL     1     -10.196  14.609  68.697  1.00  0.00    -0.244 C  
HETATM   34  C   UNL     1      -8.805  15.019  69.193  1.00  0.00    -0.184 C  
ENDBRANCH  18  31
ENDBRANCH  16  18
ENDBRANCH  13  14
ENDBRANCH  11  13
ENDBRANCH   3   4
ENDBRANCH   2   3
TORSDOF 8
ENDMDL
MODEL      119
REMARK 921   NORMALIZED FREE ENERGY PREDICTED BY IDOCK:   -5.45 KCAL/MOL
REMARK 922        TOTAL FREE ENERGY PREDICTED BY IDOCK:  -10.39 KCAL/MOL
REMARK 923 INTER-LIGAND FREE ENERGY PREDICTED BY IDOCK:   -7.29 KCAL/MOL
REMARK 924 INTRA-LIGAND FREE ENERGY PREDICTED BY IDOCK:   -3.10 KCAL/MOL
REMARK 927      BINDING AFFINITY PREDICTED BY RF-SCORE:    0.00 PKD
ROOT
HETATM    1  C   UNL     1     -13.344  12.286  72.152  1.00  0.00    -0.473 C  
HETATM    2  C   UNL     1     -12.556  12.082  70.878  1.00  0.00    -0.253 C  
ENDROOT
BRANCH   2   3
HETATM    3  O   UNL     1     -12.233  10.683  70.740  1.00  0.00    -0.309 OA 
BRANCH   3   4
HETATM    4  C   UNL     1     -11.083  10.429  70.035  1.00  0.00    -0.314 A  
HETATM    5  C   UNL     1     -10.129   9.556  70.581  1.00  0.00    -0.353 A  
HETATM    6  C   UNL     1      -8.921   9.348  69.891  1.00  0.00    -0.215 A  
HETATM    7  C   UNL     1     -10.282   8.830  71.885  1.00  0.00    -0.345 C  
HETATM    8  C   UNL     1      -8.665   9.990  68.681  1.00  0.00    -0.127 A  
HETATM    9  O   UNL     1      -9.386   8.150  72.370  1.00  0.00    -0.189 OA 
HETATM   10  O   UNL     1     -11.483   8.955  72.474  1.00  0.00    -0.234 OA 
HETATM   11  C   UNL     1      -9.624  10.839  68.120  1.00  0.00    -0.167 A  
HETATM   12  C   UNL     1     -10.841  11.018  68.783  1.00  0.00    -0.253 A  
BRANCH  11  13
HETATM   13  C   UNL     1      -9.364  11.556  66.820  1.00  0.00    -0.191 C  
BRANCH  13  14
HETATM   14  C   UNL     1      -9.721  13.029  66.865  1.00  0.00    -0.238 C  
HETATM   15  O   UNL     1     -10.722  13.441  66.281  1.00  0.00    -0.283 OA 
HETATM   16  N   UNL     1      -8.873  13.834  67.606  1.00  0.00    -0.178 N  
HETATM   17  H   UNL     1      -8.033  13.429  68.018  1.00  0.00     0.000 HD 
BRANCH  16  18
HETATM   18  C   UNL     1      -9.160  15.266  67.812  1.00  0.00    -0.182 C  
BRANCH  18  19
HETATM   19  C   UNL     1      -8.054  16.249  67.390  1.00  0.00    -0.178 A  
HETATM   20  C   UNL     1      -6.655  16.031  67.629  1.00  0.00    -0.162 A  
HETATM   21  C   UNL     1      -5.767  16.976  67.044  1.00  0.00    -0.212 A  
HETATM   22  C   UNL     1      -8.445  17.352  66.577  1.00  0.00    -0.298 A  
HETATM   23  C   UNL     1      -6.179  18.041  66.242  1.00  0.00    -0.245 A  
HETATM   24  C   UNL     1      -7.524  18.232  66.009  1.00  0.00    -0.255 A  
BRANCH  20  25
HETATM   25  N   UNL     1      -6.071  15.004  68.379  1.00  0.00    -0.097 NA 
HETATM   26  C   UNL     1      -5.907  15.143  69.844  1.00  0.00    -0.130 C  
HETATM   27  C   UNL     1      -6.382  13.858  70.531  1.00  0.00    -0.012 C  
HETATM   28  C   UNL     1      -5.595  12.653  70.029  1.00  0.00    -0.126 C  
HETATM   29  C   UNL     1      -5.680  12.564  68.517  1.00  0.00    -0.055 C  
HETATM   30  C   UNL     1      -5.320  13.875  67.830  1.00  0.00    -0.078 C  
ENDBRANCH  20  25
ENDBRANCH  18  19
BRANCH  18  31
HETATM   31  C   UNL     1      -9.568  15.575  69.266  1.00  0.00    -0.266 C  
HETATM   32  C   UNL     1     -12.127  15.538  68.942  1.00  0.00    -0.219 C  
HETATM   33  C   UNL     1     -10.926  15.010  69.730  1.00  0.00    -0.291 C  
HETATM   34  C   UNL     1     -11.130  15.373  71.205  1.00  0.00    -0.362 C  
ENDBRANCH  18  31
ENDBRANCH  16  18
ENDBRANCH  13  14
ENDBRANCH  11  13
ENDBRANCH   3   4
ENDBRANCH   2   3
TORSDOF 8
ENDMDL
MODEL      120
REMARK 921   NORMALIZED FREE ENERGY PREDICTED BY IDOCK:   -5.44 KCAL/MOL
REMARK 922        TOTAL FREE ENERGY PREDICTED BY IDOCK:  -10.37 KCAL/MOL
REMARK 923 INTER-LIGAND FREE ENERGY PREDICTED BY IDOCK:   -7.65 KCAL/MOL
REMARK 924 INTRA-LIGAND FREE ENERGY PREDICTED BY IDOCK:   -2.72 KCAL/MOL
REMARK 927      BINDING AFFINITY PREDICTED BY RF-SCORE:    0.00 PKD
ROOT
HETATM    1  C   UNL     1     -10.270  15.286  70.077  1.00  0.00    -0.216 C  
HETATM    2  C   UNL     1     -11.644  14.893  69.584  1.00  0.00    -0.303 C  
ENDROOT
BRANCH   2   3
HETATM    3  O   UNL     1     -11.939  15.620  68.374  1.00  0.00    -0.283 OA 
BRANCH   3   4
HETATM    4  C   UNL     1     -11.409  15.071  67.233  1.00  0.00    -0.332 A  
HETATM    5  C   UNL     1     -10.653  15.884  66.374  1.00  0.00    -0.298 A  
HETATM    6  C   UNL     1     -10.168  15.339  65.171  1.00  0.00    -0.374 A  
HETATM    7  C   UNL     1     -10.335  17.329  66.624  1.00  0.00    -0.305 C  
HETATM    8  C   UNL     1     -10.425  14.013  64.828  1.00  0.00    -0.445 A  
HETATM    9  O   UNL     1      -9.751  18.026  65.804  1.00  0.00    -0.521 OA 
HETATM   10  O   UNL     1     -10.712  17.799  67.825  1.00  0.00    -0.390 OA 
HETATM   11  C   UNL     1     -11.154  13.192  65.694  1.00  0.00    -0.296 A  
HETATM   12  C   UNL     1     -11.605  13.719  66.908  1.00  0.00    -0.394 A  
BRANCH  11  13
HETATM   13  C   UNL     1     -11.457  11.759  65.338  1.00  0.00    -0.239 C  
BRANCH  13  14
HETATM   14  C   UNL     1     -10.213  10.913  65.145  1.00  0.00    -0.297 C  
HETATM   15  O   UNL     1      -9.972  10.408  64.050  1.00  0.00    -0.323 OA 
HETATM   16  N   UNL     1      -9.396  10.780  66.255  1.00  0.00    -0.175 N  
HETATM   17  H   UNL     1      -9.690  11.184  67.144  1.00  0.00     0.000 HD 
BRANCH  16  18
HETATM   18  C   UNL     1      -8.108  10.066  66.177  1.00  0.00    -0.122 C  
BRANCH  18  19
HETATM   19  C   UNL     1      -8.184   8.530  66.114  1.00  0.00    -0.115 A  
HETATM   20  C   UNL     1      -8.859   7.722  67.091  1.00  0.00    -0.125 A  
HETATM   21  C   UNL     1      -8.949   6.333  66.796  1.00  0.00    -0.128 A  
HETATM   22  C   UNL     1      -7.692   7.906  64.932  1.00  0.00    -0.112 A  
HETATM   23  C   UNL     1      -8.467   5.751  65.623  1.00  0.00    -0.149 A  
HETATM   24  C   UNL     1      -7.834   6.540  64.687  1.00  0.00    -0.112 A  
BRANCH  20  25
HETATM   25  N   UNL     1      -9.424   8.143  68.300  1.00  0.00    -0.141 NA 
HETATM   26  C   UNL     1      -8.811   7.757  69.591  1.00  0.00    -0.139 C  
HETATM   27  C   UNL     1      -8.713   8.992  70.494  1.00  0.00    -0.238 C  
HETATM   28  C   UNL     1     -10.091   9.599  70.731  1.00  0.00    -0.293 C  
HETATM   29  C   UNL     1     -10.763   9.906  69.406  1.00  0.00    -0.255 C  
HETATM   30  C   UNL     1     -10.761   8.715  68.456  1.00  0.00    -0.043 C  
ENDBRANCH  20  25
ENDBRANCH  18  19
BRANCH  18  31
HETATM   31  C   UNL     1      -7.150  10.467  67.316  1.00  0.00    -0.088 C  
HETATM   32  C   UNL     1      -7.779  12.966  67.457  1.00  0.00    -0.174 C  
HETATM   33  C   UNL     1      -7.601  11.643  68.206  1.00  0.00    -0.120 C  
HETATM   34  C   UNL     1      -6.553  11.857  69.304  1.00  0.00    -0.110 C  
ENDBRANCH  18  31
ENDBRANCH  16  18
ENDBRANCH  13  14
ENDBRANCH  11  13
ENDBRANCH   3   4
ENDBRANCH   2   3
TORSDOF 8
ENDMDL
MODEL      121
REMARK 921   NORMALIZED FREE ENERGY PREDICTED BY IDOCK:   -5.43 KCAL/MOL
REMARK 922        TOTAL FREE ENERGY PREDICTED BY IDOCK:  -10.36 KCAL/MOL
REMARK 923 INTER-LIGAND FREE ENERGY PREDICTED BY IDOCK:   -8.71 KCAL/MOL
REMARK 924 INTRA-LIGAND FREE ENERGY PREDICTED BY IDOCK:   -1.65 KCAL/MOL
REMARK 927      BINDING AFFINITY PREDICTED BY RF-SCORE:    0.00 PKD
ROOT
HETATM    1  C   UNL     1      -8.076   5.091  67.158  1.00  0.00    -0.107 C  
HETATM    2  C   UNL     1      -8.900   6.266  66.683  1.00  0.00    -0.132 C  
ENDROOT
BRANCH   2   3
HETATM    3  O   UNL     1      -9.847   6.625  67.710  1.00  0.00    -0.121 OA 
BRANCH   3   4
HETATM    4  C   UNL     1      -9.439   7.644  68.533  1.00  0.00    -0.147 A  
HETATM    5  C   UNL     1      -9.852   7.642  69.875  1.00  0.00    -0.184 A  
HETATM    6  C   UNL     1      -9.490   8.722  70.701  1.00  0.00    -0.237 A  
HETATM    7  C   UNL     1     -10.690   6.572  70.510  1.00  0.00    -0.254 C  
HETATM    8  C   UNL     1      -8.732   9.781  70.208  1.00  0.00    -0.172 A  
HETATM    9  O   UNL     1     -11.105   6.655  71.659  1.00  0.00    -0.234 OA 
HETATM   10  O   UNL     1     -10.932   5.499  69.738  1.00  0.00    -0.310 OA 
HETATM   11  C   UNL     1      -8.296   9.774  68.879  1.00  0.00    -0.120 A  
HETATM   12  C   UNL     1      -8.620   8.685  68.066  1.00  0.00    -0.137 A  
BRANCH  11  13
HETATM   13  C   UNL     1      -7.487  10.916  68.319  1.00  0.00    -0.093 C  
BRANCH  13  14
HETATM   14  C   UNL     1      -8.330  12.118  67.937  1.00  0.00    -0.161 C  
HETATM   15  O   UNL     1      -7.914  12.926  67.108  1.00  0.00    -0.167 OA 
HETATM   16  N   UNL     1      -9.563  12.213  68.558  1.00  0.00    -0.337 N  
HETATM   17  H   UNL     1      -9.816  11.532  69.275  1.00  0.00     0.000 HD 
BRANCH  16  18
HETATM   18  C   UNL     1     -10.520  13.277  68.206  1.00  0.00    -0.250 C  
BRANCH  18  19
HETATM   19  C   UNL     1     -11.168  14.028  69.382  1.00  0.00    -0.283 A  
HETATM   20  C   UNL     1     -10.984  15.430  69.636  1.00  0.00    -0.284 A  
HETATM   21  C   UNL     1     -11.773  15.983  70.683  1.00  0.00    -0.376 A  
HETATM   22  C   UNL     1     -12.129  13.314  70.155  1.00  0.00    -0.403 A  
HETATM   23  C   UNL     1     -12.714  15.260  71.416  1.00  0.00    -0.462 A  
HETATM   24  C   UNL     1     -12.892  13.919  71.154  1.00  0.00    -0.423 A  
BRANCH  20  25
HETATM   25  N   UNL     1     -10.110  16.305  68.982  1.00  0.00    -0.245 NA 
HETATM   26  C   UNL     1     -10.635  17.369  68.096  1.00  0.00    -0.376 C  
HETATM   27  C   UNL     1      -9.933  18.692  68.423  1.00  0.00    -0.428 C  
HETATM   28  C   UNL     1      -8.424  18.562  68.247  1.00  0.00    -0.341 C  
HETATM   29  C   UNL     1      -7.897  17.409  69.079  1.00  0.00    -0.128 C  
HETATM   30  C   UNL     1      -8.666  16.115  68.845  1.00  0.00    -0.248 C  
ENDBRANCH  20  25
ENDBRANCH  18  19
BRANCH  18  31
HETATM   31  C   UNL     1     -11.634  12.772  67.268  1.00  0.00    -0.420 C  
HETATM   32  C   UNL     1     -11.437  14.593  65.452  1.00  0.00    -0.352 C  
HETATM   33  C   UNL     1     -11.467  13.097  65.770  1.00  0.00    -0.355 C  
HETATM   34  C   UNL     1     -12.636  12.472  65.000  1.00  0.00    -0.424 C  
ENDBRANCH  18  31
ENDBRANCH  16  18
ENDBRANCH  13  14
ENDBRANCH  11  13
ENDBRANCH   3   4
ENDBRANCH   2   3
TORSDOF 8
ENDMDL
MODEL      122
REMARK 921   NORMALIZED FREE ENERGY PREDICTED BY IDOCK:   -5.42 KCAL/MOL
REMARK 922        TOTAL FREE ENERGY PREDICTED BY IDOCK:  -10.35 KCAL/MOL
REMARK 923 INTER-LIGAND FREE ENERGY PREDICTED BY IDOCK:   -8.78 KCAL/MOL
REMARK 924 INTRA-LIGAND FREE ENERGY PREDICTED BY IDOCK:   -1.57 KCAL/MOL
REMARK 927      BINDING AFFINITY PREDICTED BY RF-SCORE:    0.00 PKD
ROOT
HETATM    1  C   UNL     1     -10.738   6.118  66.798  1.00  0.00    -0.371 C  
HETATM    2  C   UNL     1     -10.349   7.411  67.478  1.00  0.00    -0.251 C  
ENDROOT
BRANCH   2   3
HETATM    3  O   UNL     1      -9.814   7.116  68.785  1.00  0.00    -0.154 OA 
BRANCH   3   4
HETATM    4  C   UNL     1     -10.448   7.757  69.820  1.00  0.00    -0.233 A  
HETATM    5  C   UNL     1     -10.506   7.131  71.075  1.00  0.00    -0.230 A  
HETATM    6  C   UNL     1     -11.214   7.757  72.118  1.00  0.00    -0.348 A  
HETATM    7  C   UNL     1      -9.885   5.804  71.398  1.00  0.00    -0.170 C  
HETATM    8  C   UNL     1     -11.848   8.981  71.921  1.00  0.00    -0.447 A  
HETATM    9  O   UNL     1     -10.038   5.250  72.480  1.00  0.00    -0.172 OA 
HETATM   10  O   UNL     1      -9.123   5.275  70.425  1.00  0.00    -0.133 OA 
HETATM   11  C   UNL     1     -11.770   9.622  70.680  1.00  0.00    -0.353 A  
HETATM   12  C   UNL     1     -11.035   9.022  69.653  1.00  0.00    -0.147 A  
BRANCH  11  13
HETATM   13  C   UNL     1     -12.461  10.940  70.439  1.00  0.00    -0.411 C  
BRANCH  13  14
HETATM   14  C   UNL     1     -11.652  11.893  69.580  1.00  0.00    -0.327 C  
HETATM   15  O   UNL     1     -11.203  12.931  70.062  1.00  0.00     0.033 OA 
HETATM   16  N   UNL     1     -11.452  11.500  68.267  1.00  0.00    -0.275 N  
HETATM   17  H   UNL     1     -11.901  10.651  67.925  1.00  0.00     0.000 HD 
BRANCH  16  18
HETATM   18  C   UNL     1     -10.604  12.286  67.352  1.00  0.00    -0.222 C  
BRANCH  18  19
HETATM   19  C   UNL     1     -11.274  12.785  66.060  1.00  0.00    -0.335 A  
HETATM   20  C   UNL     1     -11.302  14.162  65.653  1.00  0.00    -0.319 A  
HETATM   21  C   UNL     1     -11.839  14.419  64.361  1.00  0.00    -0.433 A  
HETATM   22  C   UNL     1     -11.745  11.793  65.151  1.00  0.00    -0.155 A  
HETATM   23  C   UNL     1     -12.284  13.425  63.488  1.00  0.00    -0.468 A  
HETATM   24  C   UNL     1     -12.239  12.107  63.885  1.00  0.00    -0.587 A  
BRANCH  20  25
HETATM   25  N   UNL     1     -10.873  15.274  66.386  1.00  0.00    -0.318 NA 
HETATM   26  C   UNL     1     -11.389  15.519  67.751  1.00  0.00    -0.286 C  
HETATM   27  C   UNL     1     -10.219  15.854  68.683  1.00  0.00    -0.223 C  
HETATM   28  C   UNL     1      -9.462  17.079  68.182  1.00  0.00    -0.262 C  
HETATM   29  C   UNL     1      -9.016  16.869  66.748  1.00  0.00    -0.264 C  
HETATM   30  C   UNL     1     -10.152  16.423  65.838  1.00  0.00    -0.347 C  
ENDBRANCH  20  25
ENDBRANCH  18  19
BRANCH  18  31
HETATM   31  C   UNL     1      -9.305  11.543  66.980  1.00  0.00    -0.185 C  
HETATM   32  C   UNL     1      -7.654  13.493  67.338  1.00  0.00    -0.140 C  
HETATM   33  C   UNL     1      -8.013  12.041  67.660  1.00  0.00    -0.150 C  
HETATM   34  C   UNL     1      -6.849  11.153  67.209  1.00  0.00    -0.095 C  
ENDBRANCH  18  31
ENDBRANCH  16  18
ENDBRANCH  13  14
ENDBRANCH  11  13
ENDBRANCH   3   4
ENDBRANCH   2   3
TORSDOF 8
ENDMDL
MODEL      123
REMARK 921   NORMALIZED FREE ENERGY PREDICTED BY IDOCK:   -5.41 KCAL/MOL
REMARK 922        TOTAL FREE ENERGY PREDICTED BY IDOCK:  -10.34 KCAL/MOL
REMARK 923 INTER-LIGAND FREE ENERGY PREDICTED BY IDOCK:   -8.56 KCAL/MOL
REMARK 924 INTRA-LIGAND FREE ENERGY PREDICTED BY IDOCK:   -1.78 KCAL/MOL
REMARK 927      BINDING AFFINITY PREDICTED BY RF-SCORE:    0.00 PKD
ROOT
HETATM    1  C   UNL     1      -9.483   3.377  67.087  1.00  0.00    -0.199 C  
HETATM    2  C   UNL     1      -9.750   4.860  67.205  1.00  0.00    -0.170 C  
ENDROOT
BRANCH   2   3
HETATM    3  O   UNL     1      -8.778   5.580  66.421  1.00  0.00    -0.118 OA 
BRANCH   3   4
HETATM    4  C   UNL     1      -9.042   6.919  66.270  1.00  0.00    -0.141 A  
HETATM    5  C   UNL     1      -8.500   7.599  65.168  1.00  0.00    -0.057 A  
HETATM    6  C   UNL     1      -8.714   8.985  65.050  1.00  0.00    -0.217 A  
HETATM    7  C   UNL     1      -7.668   6.962  64.093  1.00  0.00    -0.116 C  
HETATM    8  C   UNL     1      -9.453   9.681  66.003  1.00  0.00    -0.284 A  
HETATM    9  O   UNL     1      -7.138   7.609  63.200  1.00  0.00    -0.066 OA 
HETATM   10  O   UNL     1      -7.568   5.624  64.165  1.00  0.00    -0.069 OA 
HETATM   11  C   UNL     1     -10.017   9.002  67.088  1.00  0.00    -0.286 A  
HETATM   12  C   UNL     1      -9.839   7.620  67.188  1.00  0.00    -0.265 A  
BRANCH  11  13
HETATM   13  C   UNL     1     -10.808   9.737  68.141  1.00  0.00    -0.264 C  
BRANCH  13  14
HETATM   14  C   UNL     1     -10.373  11.178  68.321  1.00  0.00    -0.180 C  
HETATM   15  O   UNL     1      -9.195  11.444  68.553  1.00  0.00    -0.178 OA 
HETATM   16  N   UNL     1     -11.368  12.131  68.188  1.00  0.00    -0.270 N  
HETATM   17  H   UNL     1     -12.333  11.830  68.048  1.00  0.00     0.000 HD 
BRANCH  16  18
HETATM   18  C   UNL     1     -11.063  13.572  68.243  1.00  0.00    -0.261 C  
BRANCH  18  19
HETATM   19  C   UNL     1     -11.377  14.285  69.571  1.00  0.00    -0.315 A  
HETATM   20  C   UNL     1     -11.005  15.642  69.858  1.00  0.00    -0.318 A  
HETATM   21  C   UNL     1     -11.503  16.180  71.077  1.00  0.00    -0.424 A  
HETATM   22  C   UNL     1     -12.223  13.599  70.489  1.00  0.00    -0.438 A  
HETATM   23  C   UNL     1     -12.340  15.487  71.952  1.00  0.00    -0.472 A  
HETATM   24  C   UNL     1     -12.701  14.189  71.659  1.00  0.00    -0.430 A  
BRANCH  20  25
HETATM   25  N   UNL     1     -10.203  16.486  69.082  1.00  0.00    -0.280 NA 
HETATM   26  C   UNL     1      -8.728  16.360  69.114  1.00  0.00    -0.185 C  
HETATM   27  C   UNL     1      -8.187  16.373  67.680  1.00  0.00    -0.166 C  
HETATM   28  C   UNL     1      -8.586  17.657  66.963  1.00  0.00    -0.252 C  
HETATM   29  C   UNL     1     -10.091  17.840  67.014  1.00  0.00    -0.337 C  
HETATM   30  C   UNL     1     -10.652  17.713  68.424  1.00  0.00    -0.316 C  
ENDBRANCH  20  25
ENDBRANCH  18  19
BRANCH  18  31
HETATM   31  C   UNL     1     -11.730  14.353  67.094  1.00  0.00    -0.424 C  
HETATM   32  C   UNL     1     -10.214  13.538  65.172  1.00  0.00    -0.334 C  
HETATM   33  C   UNL     1     -11.642  13.715  65.692  1.00  0.00    -0.342 C  
HETATM   34  C   UNL     1     -12.401  14.604  64.701  1.00  0.00    -0.390 C  
ENDBRANCH  18  31
ENDBRANCH  16  18
ENDBRANCH  13  14
ENDBRANCH  11  13
ENDBRANCH   3   4
ENDBRANCH   2   3
TORSDOF 8
ENDMDL
MODEL      124
REMARK 921   NORMALIZED FREE ENERGY PREDICTED BY IDOCK:   -5.40 KCAL/MOL
REMARK 922        TOTAL FREE ENERGY PREDICTED BY IDOCK:  -10.32 KCAL/MOL
REMARK 923 INTER-LIGAND FREE ENERGY PREDICTED BY IDOCK:   -8.78 KCAL/MOL
REMARK 924 INTRA-LIGAND FREE ENERGY PREDICTED BY IDOCK:   -1.54 KCAL/MOL
REMARK 927      BINDING AFFINITY PREDICTED BY RF-SCORE:    0.00 PKD
ROOT
HETATM    1  C   UNL     1     -10.469  17.597  68.265  1.00  0.00    -0.376 C  
HETATM    2  C   UNL     1     -10.242  16.501  69.283  1.00  0.00    -0.290 C  
ENDROOT
BRANCH   2   3
HETATM    3  O   UNL     1     -11.510  16.111  69.848  1.00  0.00    -0.324 OA 
BRANCH   3   4
HETATM    4  C   UNL     1     -11.749  14.759  69.838  1.00  0.00    -0.306 A  
HETATM    5  C   UNL     1     -12.399  14.175  70.936  1.00  0.00    -0.438 A  
HETATM    6  C   UNL     1     -12.583  12.780  70.957  1.00  0.00    -0.362 A  
HETATM    7  C   UNL     1     -12.901  14.928  72.133  1.00  0.00    -0.325 C  
HETATM    8  C   UNL     1     -12.134  11.981  69.908  1.00  0.00    -0.334 A  
HETATM    9  O   UNL     1     -13.379  14.368  73.111  1.00  0.00    -0.626 OA 
HETATM   10  O   UNL     1     -12.815  16.266  72.045  1.00  0.00    -0.300 OA 
HETATM   11  C   UNL     1     -11.511  12.562  68.799  1.00  0.00    -0.353 A  
HETATM   12  C   UNL     1     -11.361  13.951  68.757  1.00  0.00    -0.310 A  
BRANCH  11  13
HETATM   13  C   UNL     1     -11.004  11.717  67.658  1.00  0.00    -0.294 C  
BRANCH  13  14
HETATM   14  C   UNL     1     -10.550  10.336  68.090  1.00  0.00    -0.221 C  
HETATM   15  O   UNL     1     -10.885   9.345  67.444  1.00  0.00    -0.263 OA 
HETATM   16  N   UNL     1      -9.743  10.290  69.215  1.00  0.00    -0.215 N  
HETATM   17  H   UNL     1      -9.552  11.150  69.728  1.00  0.00     0.000 HD 
BRANCH  16  18
HETATM   18  C   UNL     1      -9.154   9.023  69.684  1.00  0.00    -0.154 C  
BRANCH  18  19
HETATM   19  C   UNL     1     -10.062   8.128  70.547  1.00  0.00    -0.201 A  
HETATM   20  C   UNL     1     -10.350   6.754  70.245  1.00  0.00    -0.198 A  
HETATM   21  C   UNL     1     -11.091   6.042  71.228  1.00  0.00    -0.337 A  
HETATM   22  C   UNL     1     -10.498   8.660  71.794  1.00  0.00    -0.394 A  
HETATM   23  C   UNL     1     -11.497   6.588  72.447  1.00  0.00    -0.306 A  
HETATM   24  C   UNL     1     -11.202   7.903  72.731  1.00  0.00    -0.466 A  
BRANCH  20  25
HETATM   25  N   UNL     1      -9.997   6.044  69.092  1.00  0.00    -0.153 NA 
HETATM   26  C   UNL     1     -10.889   6.038  67.910  1.00  0.00    -0.290 C  
HETATM   27  C   UNL     1     -10.061   6.306  66.648  1.00  0.00    -0.214 C  
HETATM   28  C   UNL     1      -8.969   5.254  66.485  1.00  0.00    -0.120 C  
HETATM   29  C   UNL     1      -8.112   5.190  67.735  1.00  0.00    -0.099 C  
HETATM   30  C   UNL     1      -8.937   5.040  69.006  1.00  0.00    -0.097 C  
ENDBRANCH  20  25
ENDBRANCH  18  19
BRANCH  18  31
HETATM   31  C   UNL     1      -7.823   9.241  70.430  1.00  0.00    -0.158 C  
HETATM   32  C   UNL     1      -6.364   9.868  68.396  1.00  0.00    -0.050 C  
HETATM   33  C   UNL     1      -6.842  10.250  69.798  1.00  0.00    -0.120 C  
HETATM   34  C   UNL     1      -5.611  10.369  70.703  1.00  0.00    -0.088 C  
ENDBRANCH  18  31
ENDBRANCH  16  18
ENDBRANCH  13  14
ENDBRANCH  11  13
ENDBRANCH   3   4
ENDBRANCH   2   3
TORSDOF 8
ENDMDL
MODEL      125
REMARK 921   NORMALIZED FREE ENERGY PREDICTED BY IDOCK:   -5.39 KCAL/MOL
REMARK 922        TOTAL FREE ENERGY PREDICTED BY IDOCK:  -10.31 KCAL/MOL
REMARK 923 INTER-LIGAND FREE ENERGY PREDICTED BY IDOCK:   -8.19 KCAL/MOL
REMARK 924 INTRA-LIGAND FREE ENERGY PREDICTED BY IDOCK:   -2.12 KCAL/MOL
REMARK 927      BINDING AFFINITY PREDICTED BY RF-SCORE:    0.00 PKD
ROOT
HETATM    1  C   UNL     1     -13.657   9.174  72.300  1.00  0.00    -0.548 C  
HETATM    2  C   UNL     1     -13.286  10.059  71.131  1.00  0.00    -0.361 C  
ENDROOT
BRANCH   2   3
HETATM    3  O   UNL     1     -12.913  11.362  71.625  1.00  0.00    -0.448 OA 
BRANCH   3   4
HETATM    4  C   UNL     1     -12.335  12.184  70.689  1.00  0.00    -0.295 A  
HETATM    5  C   UNL     1     -12.657  13.550  70.692  1.00  0.00    -0.345 A  
HETATM    6  C   UNL     1     -12.118  14.380  69.692  1.00  0.00    -0.381 A  
HETATM    7  C   UNL     1     -13.573  14.211  71.680  1.00  0.00    -0.366 C  
HETATM    8  C   UNL     1     -11.274  13.865  68.710  1.00  0.00    -0.302 A  
HETATM    9  O   UNL     1     -13.900  15.388  71.591  1.00  0.00    -0.470 OA 
HETATM   10  O   UNL     1     -13.989  13.427  72.689  1.00  0.00    -0.755 OA 
HETATM   11  C   UNL     1     -10.928  12.510  68.720  1.00  0.00    -0.294 A  
HETATM   12  C   UNL     1     -11.431  11.691  69.734  1.00  0.00    -0.339 A  
BRANCH  11  13
HETATM   13  C   UNL     1     -10.029  11.928  67.660  1.00  0.00    -0.197 C  
BRANCH  13  14
HETATM   14  C   UNL     1     -10.241  10.443  67.442  1.00  0.00    -0.214 C  
HETATM   15  O   UNL     1     -11.245  10.041  66.857  1.00  0.00    -0.031 OA 
HETATM   16  N   UNL     1      -9.240   9.613  67.919  1.00  0.00    -0.125 N  
HETATM   17  H   UNL     1      -8.463  10.017  68.441  1.00  0.00     0.000 HD 
BRANCH  16  18
HETATM   18  C   UNL     1      -9.275   8.158  67.687  1.00  0.00    -0.137 C  
BRANCH  18  19
HETATM   19  C   UNL     1      -9.922   7.307  68.795  1.00  0.00    -0.167 A  
HETATM   20  C   UNL     1      -9.957   5.872  68.784  1.00  0.00    -0.152 A  
HETATM   21  C   UNL     1     -10.468   5.251  69.958  1.00  0.00    -0.351 A  
HETATM   22  C   UNL     1     -10.362   7.993  69.964  1.00  0.00    -0.218 A  
HETATM   23  C   UNL     1     -10.882   5.950  71.093  1.00  0.00    -0.334 A  
HETATM   24  C   UNL     1     -10.831   7.327  71.096  1.00  0.00    -0.260 A  
BRANCH  20  25
HETATM   25  N   UNL     1      -9.557   5.019  67.749  1.00  0.00    -0.139 NA 
HETATM   26  C   UNL     1     -10.374   4.894  66.520  1.00  0.00    -0.270 C  
HETATM   27  C   UNL     1      -9.461   4.986  65.293  1.00  0.00    -0.062 C  
HETATM   28  C   UNL     1      -8.397   3.894  65.327  1.00  0.00    -0.105 C  
HETATM   29  C   UNL     1      -7.622   3.959  66.629  1.00  0.00    -0.088 C  
HETATM   30  C   UNL     1      -8.528   3.985  67.852  1.00  0.00    -0.094 C  
ENDBRANCH  20  25
ENDBRANCH  18  19
BRANCH  18  31
HETATM   31  C   UNL     1      -7.879   7.584  67.376  1.00  0.00    -0.118 C  
HETATM   32  C   UNL     1      -7.771   8.223  64.879  1.00  0.00    -0.115 C  
HETATM   33  C   UNL     1      -7.090   8.279  66.248  1.00  0.00    -0.070 C  
HETATM   34  C   UNL     1      -5.718   7.607  66.123  1.00  0.00    -0.036 C  
ENDBRANCH  18  31
ENDBRANCH  16  18
ENDBRANCH  13  14
ENDBRANCH  11  13
ENDBRANCH   3   4
ENDBRANCH   2   3
TORSDOF 8
ENDMDL
MODEL      126
REMARK 921   NORMALIZED FREE ENERGY PREDICTED BY IDOCK:   -5.39 KCAL/MOL
REMARK 922        TOTAL FREE ENERGY PREDICTED BY IDOCK:  -10.30 KCAL/MOL
REMARK 923 INTER-LIGAND FREE ENERGY PREDICTED BY IDOCK:   -8.68 KCAL/MOL
REMARK 924 INTRA-LIGAND FREE ENERGY PREDICTED BY IDOCK:   -1.63 KCAL/MOL
REMARK 927      BINDING AFFINITY PREDICTED BY RF-SCORE:    0.00 PKD
ROOT
HETATM    1  C   UNL     1     -13.038  15.428  70.861  1.00  0.00    -0.528 C  
HETATM    2  C   UNL     1     -11.688  15.540  70.190  1.00  0.00    -0.347 C  
ENDROOT
BRANCH   2   3
HETATM    3  O   UNL     1     -11.835  16.259  68.948  1.00  0.00    -0.284 OA 
BRANCH   3   4
HETATM    4  C   UNL     1     -11.400  15.580  67.838  1.00  0.00    -0.308 A  
HETATM    5  C   UNL     1     -10.688  16.276  66.849  1.00  0.00    -0.217 A  
HETATM    6  C   UNL     1     -10.302  15.595  65.679  1.00  0.00    -0.408 A  
HETATM    7  C   UNL     1     -10.321  17.729  66.923  1.00  0.00    -0.344 C  
HETATM    8  C   UNL     1     -10.612  14.250  65.497  1.00  0.00    -0.351 A  
HETATM    9  O   UNL     1      -9.780  18.320  65.996  1.00  0.00    -0.498 OA 
HETATM   10  O   UNL     1     -10.601  18.332  68.090  1.00  0.00    -0.361 OA 
HETATM   11  C   UNL     1     -11.297  13.545  66.491  1.00  0.00    -0.340 A  
HETATM   12  C   UNL     1     -11.648  14.208  67.671  1.00  0.00    -0.394 A  
BRANCH  11  13
HETATM   13  C   UNL     1     -11.656  12.092  66.310  1.00  0.00    -0.424 C  
BRANCH  13  14
HETATM   14  C   UNL     1     -10.697  11.145  67.004  1.00  0.00    -0.268 C  
HETATM   15  O   UNL     1      -9.482  11.303  66.892  1.00  0.00    -0.173 OA 
HETATM   16  N   UNL     1     -11.279  10.143  67.761  1.00  0.00    -0.463 N  
HETATM   17  H   UNL     1     -12.294  10.044  67.763  1.00  0.00     0.000 HD 
BRANCH  16  18
HETATM   18  C   UNL     1     -10.462   9.216  68.565  1.00  0.00    -0.204 C  
BRANCH  18  19
HETATM   19  C   UNL     1      -9.811   8.047  67.804  1.00  0.00    -0.207 A  
HETATM   20  C   UNL     1      -8.410   7.738  67.859  1.00  0.00    -0.123 A  
HETATM   21  C   UNL     1      -8.010   6.538  67.208  1.00  0.00    -0.113 A  
HETATM   22  C   UNL     1     -10.687   7.136  67.145  1.00  0.00    -0.422 A  
HETATM   23  C   UNL     1      -8.893   5.659  66.579  1.00  0.00    -0.123 A  
HETATM   24  C   UNL     1     -10.237   5.960  66.545  1.00  0.00    -0.217 A  
BRANCH  20  25
HETATM   25  N   UNL     1      -7.397   8.487  68.468  1.00  0.00    -0.091 NA 
HETATM   26  C   UNL     1      -7.140   9.884  68.050  1.00  0.00    -0.082 C  
HETATM   27  C   UNL     1      -7.005  10.769  69.294  1.00  0.00    -0.102 C  
HETATM   28  C   UNL     1      -5.875  10.275  70.189  1.00  0.00    -0.064 C  
HETATM   29  C   UNL     1      -6.084   8.814  70.540  1.00  0.00    -0.033 C  
HETATM   30  C   UNL     1      -6.334   7.945  69.314  1.00  0.00    -0.035 C  
ENDBRANCH  20  25
ENDBRANCH  18  19
BRANCH  18  31
HETATM   31  C   UNL     1     -11.239   8.649  69.769  1.00  0.00     0.008 C  
HETATM   32  C   UNL     1      -9.387   8.899  71.548  1.00  0.00    -0.335 C  
HETATM   33  C   UNL     1     -10.837   9.189  71.157  1.00  0.00    -0.381 C  
HETATM   34  C   UNL     1     -11.749   8.553  72.213  1.00  0.00    -0.443 C  
ENDBRANCH  18  31
ENDBRANCH  16  18
ENDBRANCH  13  14
ENDBRANCH  11  13
ENDBRANCH   3   4
ENDBRANCH   2   3
TORSDOF 8
ENDMDL
MODEL      127
REMARK 921   NORMALIZED FREE ENERGY PREDICTED BY IDOCK:   -5.38 KCAL/MOL
REMARK 922        TOTAL FREE ENERGY PREDICTED BY IDOCK:  -10.29 KCAL/MOL
REMARK 923 INTER-LIGAND FREE ENERGY PREDICTED BY IDOCK:   -7.29 KCAL/MOL
REMARK 924 INTRA-LIGAND FREE ENERGY PREDICTED BY IDOCK:   -3.00 KCAL/MOL
REMARK 927      BINDING AFFINITY PREDICTED BY RF-SCORE:    0.00 PKD
ROOT
HETATM    1  C   UNL     1      -6.528   4.880  70.826  1.00  0.00    -0.030 C  
HETATM    2  C   UNL     1      -6.553   6.273  70.240  1.00  0.00    -0.045 C  
ENDROOT
BRANCH   2   3
HETATM    3  O   UNL     1      -7.532   7.065  70.944  1.00  0.00    -0.079 OA 
BRANCH   3   4
HETATM    4  C   UNL     1      -8.820   6.918  70.490  1.00  0.00    -0.155 A  
HETATM    5  C   UNL     1      -9.864   6.825  71.424  1.00  0.00    -0.188 A  
HETATM    6  C   UNL     1     -11.175   6.606  70.961  1.00  0.00    -0.349 A  
HETATM    7  C   UNL     1      -9.691   6.914  72.912  1.00  0.00    -0.160 C  
HETATM    8  C   UNL     1     -11.445   6.484  69.600  1.00  0.00    -0.417 A  
HETATM    9  O   UNL     1     -10.616   6.735  73.694  1.00  0.00    -0.314 OA 
HETATM   10  O   UNL     1      -8.453   7.232  73.327  1.00  0.00    -0.119 OA 
HETATM   11  C   UNL     1     -10.412   6.603  68.665  1.00  0.00    -0.241 A  
HETATM   12  C   UNL     1      -9.114   6.859  69.119  1.00  0.00    -0.136 A  
BRANCH  11  13
HETATM   13  C   UNL     1     -10.677   6.461  67.188  1.00  0.00    -0.433 C  
BRANCH  13  14
HETATM   14  C   UNL     1      -9.836   7.390  66.335  1.00  0.00    -0.066 C  
HETATM   15  O   UNL     1      -8.970   6.933  65.591  1.00  0.00    -0.079 OA 
HETATM   16  N   UNL     1     -10.127   8.740  66.444  1.00  0.00    -0.335 N  
HETATM   17  H   UNL     1     -10.824   9.047  67.122  1.00  0.00     0.000 HD 
BRANCH  16  18
HETATM   18  C   UNL     1      -9.451   9.740  65.599  1.00  0.00    -0.246 C  
BRANCH  18  19
HETATM   19  C   UNL     1      -8.189  10.392  66.191  1.00  0.00    -0.144 A  
HETATM   20  C   UNL     1      -8.133  10.985  67.498  1.00  0.00    -0.117 A  
HETATM   21  C   UNL     1      -6.848  11.410  67.935  1.00  0.00    -0.072 A  
HETATM   22  C   UNL     1      -6.978  10.243  65.455  1.00  0.00    -0.138 A  
HETATM   23  C   UNL     1      -5.676  11.242  67.196  1.00  0.00    -0.077 A  
HETATM   24  C   UNL     1      -5.741  10.658  65.949  1.00  0.00    -0.132 A  
BRANCH  20  25
HETATM   25  N   UNL     1      -9.198  11.203  68.379  1.00  0.00    -0.169 NA 
HETATM   26  C   UNL     1      -9.866  12.523  68.439  1.00  0.00    -0.202 C  
HETATM   27  C   UNL     1     -11.386  12.323  68.420  1.00  0.00    -0.340 C  
HETATM   28  C   UNL     1     -11.833  11.456  69.592  1.00  0.00    -0.431 C  
HETATM   29  C   UNL     1     -11.078  10.141  69.589  1.00  0.00    -0.308 C  
HETATM   30  C   UNL     1      -9.569  10.329  69.491  1.00  0.00    -0.202 C  
ENDBRANCH  20  25
ENDBRANCH  18  19
BRANCH  18  31
HETATM   31  C   UNL     1     -10.411  10.854  65.135  1.00  0.00    -0.344 C  
HETATM   32  C   UNL     1      -9.345  11.318  62.832  1.00  0.00    -0.376 C  
HETATM   33  C   UNL     1     -10.619  10.988  63.613  1.00  0.00    -0.338 C  
HETATM   34  C   UNL     1     -11.637  12.104  63.354  1.00  0.00    -0.508 C  
ENDBRANCH  18  31
ENDBRANCH  16  18
ENDBRANCH  13  14
ENDBRANCH  11  13
ENDBRANCH   3   4
ENDBRANCH   2   3
TORSDOF 8
ENDMDL
MODEL      128
REMARK 921   NORMALIZED FREE ENERGY PREDICTED BY IDOCK:   -5.37 KCAL/MOL
REMARK 922        TOTAL FREE ENERGY PREDICTED BY IDOCK:  -10.27 KCAL/MOL
REMARK 923 INTER-LIGAND FREE ENERGY PREDICTED BY IDOCK:   -8.28 KCAL/MOL
REMARK 924 INTRA-LIGAND FREE ENERGY PREDICTED BY IDOCK:   -1.99 KCAL/MOL
REMARK 927      BINDING AFFINITY PREDICTED BY RF-SCORE:    0.00 PKD
ROOT
HETATM    1  C   UNL     1     -13.899   9.212  72.500  1.00  0.00    -0.485 C  
HETATM    2  C   UNL     1     -12.853   9.940  71.686  1.00  0.00    -0.436 C  
ENDROOT
BRANCH   2   3
HETATM    3  O   UNL     1     -13.170  11.347  71.657  1.00  0.00    -0.419 OA 
BRANCH   3   4
HETATM    4  C   UNL     1     -12.450  12.077  70.745  1.00  0.00    -0.279 A  
HETATM    5  C   UNL     1     -12.587  13.474  70.731  1.00  0.00    -0.382 A  
HETATM    6  C   UNL     1     -11.901  14.217  69.752  1.00  0.00    -0.381 A  
HETATM    7  C   UNL     1     -13.448  14.258  71.677  1.00  0.00    -0.376 C  
HETATM    8  C   UNL     1     -11.093  13.587  68.809  1.00  0.00    -0.298 A  
HETATM    9  O   UNL     1     -13.612  15.467  71.571  1.00  0.00    -0.488 OA 
HETATM   10  O   UNL     1     -14.007  13.545  72.669  1.00  0.00    -0.752 OA 
HETATM   11  C   UNL     1     -10.931  12.198  68.836  1.00  0.00    -0.269 A  
HETATM   12  C   UNL     1     -11.580  11.461  69.831  1.00  0.00    -0.402 A  
BRANCH  11  13
HETATM   13  C   UNL     1     -10.073  11.493  67.817  1.00  0.00    -0.198 C  
BRANCH  13  14
HETATM   14  C   UNL     1     -10.374  10.012  67.701  1.00  0.00    -0.224 C  
HETATM   15  O   UNL     1     -10.955   9.575  66.708  1.00  0.00    -0.041 OA 
HETATM   16  N   UNL     1      -9.940   9.222  68.752  1.00  0.00    -0.175 N  
HETATM   17  H   UNL     1      -9.513   9.665  69.566  1.00  0.00     0.000 HD 
BRANCH  16  18
HETATM   18  C   UNL     1     -10.083   7.755  68.719  1.00  0.00    -0.196 C  
BRANCH  18  19
HETATM   19  C   UNL     1     -10.123   7.044  70.083  1.00  0.00    -0.197 A  
HETATM   20  C   UNL     1      -9.062   7.105  71.049  1.00  0.00    -0.151 A  
HETATM   21  C   UNL     1      -9.332   6.506  72.311  1.00  0.00    -0.137 A  
HETATM   22  C   UNL     1     -11.354   6.432  70.458  1.00  0.00    -0.438 A  
HETATM   23  C   UNL     1     -10.552   5.922  72.653  1.00  0.00    -0.255 A  
HETATM   24  C   UNL     1     -11.568   5.882  71.722  1.00  0.00    -0.220 A  
BRANCH  20  25
HETATM   25  N   UNL     1      -7.794   7.674  70.884  1.00  0.00    -0.089 NA 
HETATM   26  C   UNL     1      -6.603   6.814  70.693  1.00  0.00    -0.053 C  
HETATM   27  C   UNL     1      -5.770   7.356  69.526  1.00  0.00    -0.023 C  
HETATM   28  C   UNL     1      -5.339   8.794  69.791  1.00  0.00    -0.030 C  
HETATM   29  C   UNL     1      -6.551   9.659  70.084  1.00  0.00    -0.081 C  
HETATM   30  C   UNL     1      -7.447   9.067  71.164  1.00  0.00    -0.095 C  
ENDBRANCH  20  25
ENDBRANCH  18  19
BRANCH  18  31
HETATM   31  C   UNL     1      -9.005   7.085  67.844  1.00  0.00    -0.122 C  
HETATM   32  C   UNL     1     -10.449   5.173  66.888  1.00  0.00    -0.280 C  
HETATM   33  C   UNL     1      -9.508   6.342  66.590  1.00  0.00    -0.178 C  
HETATM   34  C   UNL     1      -8.297   5.792  65.828  1.00  0.00    -0.134 C  
ENDBRANCH  18  31
ENDBRANCH  16  18
ENDBRANCH  13  14
ENDBRANCH  11  13
ENDBRANCH   3   4
ENDBRANCH   2   3
TORSDOF 8
ENDMDL
MODEL      129
REMARK 921   NORMALIZED FREE ENERGY PREDICTED BY IDOCK:   -5.34 KCAL/MOL
REMARK 922        TOTAL FREE ENERGY PREDICTED BY IDOCK:  -10.23 KCAL/MOL
REMARK 923 INTER-LIGAND FREE ENERGY PREDICTED BY IDOCK:   -9.06 KCAL/MOL
REMARK 924 INTRA-LIGAND FREE ENERGY PREDICTED BY IDOCK:   -1.17 KCAL/MOL
REMARK 927      BINDING AFFINITY PREDICTED BY RF-SCORE:    0.00 PKD
ROOT
HETATM    1  C   UNL     1     -12.153  15.687  73.430  1.00  0.00    -0.603 C  
HETATM    2  C   UNL     1     -13.492  15.110  73.030  1.00  0.00    -0.452 C  
ENDROOT
BRANCH   2   3
HETATM    3  O   UNL     1     -13.497  14.867  71.608  1.00  0.00    -0.340 OA 
BRANCH   3   4
HETATM    4  C   UNL     1     -13.049  13.624  71.239  1.00  0.00    -0.282 A  
HETATM    5  C   UNL     1     -12.263  13.499  70.083  1.00  0.00    -0.400 A  
HETATM    6  C   UNL     1     -11.861  12.216  69.666  1.00  0.00    -0.391 A  
HETATM    7  C   UNL     1     -11.828  14.645  69.216  1.00  0.00    -0.321 C  
HETATM    8  C   UNL     1     -12.228  11.081  70.384  1.00  0.00    -0.461 A  
HETATM    9  O   UNL     1     -11.221  14.482  68.165  1.00  0.00    -0.262 OA 
HETATM   10  O   UNL     1     -12.128  15.866  69.689  1.00  0.00    -0.327 OA 
HETATM   11  C   UNL     1     -12.988  11.202  71.552  1.00  0.00    -0.542 A  
HETATM   12  C   UNL     1     -13.356  12.478  71.990  1.00  0.00    -0.528 A  
BRANCH  11  13
HETATM   13  C   UNL     1     -13.410   9.987  72.337  1.00  0.00    -0.261 C  
BRANCH  13  14
HETATM   14  C   UNL     1     -12.882   8.687  71.761  1.00  0.00    -0.359 C  
HETATM   15  O   UNL     1     -13.656   7.871  71.265  1.00  0.00    -0.267 OA 
HETATM   16  N   UNL     1     -11.509   8.515  71.818  1.00  0.00    -0.288 N  
HETATM   17  H   UNL     1     -10.937   9.213  72.293  1.00  0.00     0.000 HD 
BRANCH  16  18
HETATM   18  C   UNL     1     -10.858   7.342  71.208  1.00  0.00    -0.235 C  
BRANCH  18  19
HETATM   19  C   UNL     1      -9.479   6.957  71.773  1.00  0.00    -0.155 A  
HETATM   20  C   UNL     1      -8.237   7.482  71.280  1.00  0.00    -0.100 A  
HETATM   21  C   UNL     1      -7.073   7.125  72.016  1.00  0.00    -0.071 A  
HETATM   22  C   UNL     1      -9.464   6.161  72.955  1.00  0.00    -0.142 A  
HETATM   23  C   UNL     1      -7.090   6.351  73.178  1.00  0.00    -0.082 A  
HETATM   24  C   UNL     1      -8.291   5.865  73.649  1.00  0.00    -0.113 A  
BRANCH  20  25
HETATM   25  N   UNL     1      -8.042   8.291  70.155  1.00  0.00    -0.109 NA 
HETATM   26  C   UNL     1      -7.218   7.816  69.021  1.00  0.00    -0.080 C  
HETATM   27  C   UNL     1      -7.957   8.091  67.707  1.00  0.00    -0.127 C  
HETATM   28  C   UNL     1      -8.251   9.579  67.553  1.00  0.00    -0.121 C  
HETATM   29  C   UNL     1      -9.012  10.091  68.761  1.00  0.00    -0.145 C  
HETATM   30  C   UNL     1      -8.342   9.720  70.078  1.00  0.00    -0.192 C  
ENDBRANCH  20  25
ENDBRANCH  18  19
BRANCH  18  31
HETATM   31  C   UNL     1     -10.744   7.471  69.676  1.00  0.00    -0.236 C  
HETATM   32  C   UNL     1     -10.323   4.985  69.131  1.00  0.00    -0.174 C  
HETATM   33  C   UNL     1     -11.160   6.235  68.852  1.00  0.00    -0.434 C  
HETATM   34  C   UNL     1     -11.030   6.571  67.363  1.00  0.00    -0.458 C  
ENDBRANCH  18  31
ENDBRANCH  16  18
ENDBRANCH  13  14
ENDBRANCH  11  13
ENDBRANCH   3   4
ENDBRANCH   2   3
TORSDOF 8
ENDMDL
MODEL      130
REMARK 921   NORMALIZED FREE ENERGY PREDICTED BY IDOCK:   -5.33 KCAL/MOL
REMARK 922        TOTAL FREE ENERGY PREDICTED BY IDOCK:  -10.22 KCAL/MOL
REMARK 923 INTER-LIGAND FREE ENERGY PREDICTED BY IDOCK:   -7.95 KCAL/MOL
REMARK 924 INTRA-LIGAND FREE ENERGY PREDICTED BY IDOCK:   -2.26 KCAL/MOL
REMARK 927      BINDING AFFINITY PREDICTED BY RF-SCORE:    0.00 PKD
ROOT
HETATM    1  C   UNL     1      -8.631   5.166  67.269  1.00  0.00    -0.104 C  
HETATM    2  C   UNL     1      -9.527   6.172  66.584  1.00  0.00    -0.151 C  
ENDROOT
BRANCH   2   3
HETATM    3  O   UNL     1      -8.712   7.105  65.845  1.00  0.00    -0.149 OA 
BRANCH   3   4
HETATM    4  C   UNL     1      -8.447   8.280  66.505  1.00  0.00    -0.118 A  
HETATM    5  C   UNL     1      -7.272   8.983  66.196  1.00  0.00    -0.090 A  
HETATM    6  C   UNL     1      -6.966  10.150  66.920  1.00  0.00    -0.089 A  
HETATM    7  C   UNL     1      -6.277   8.569  65.152  1.00  0.00    -0.052 C  
HETATM    8  C   UNL     1      -7.810  10.612  67.928  1.00  0.00    -0.105 A  
HETATM    9  O   UNL     1      -5.219   9.162  64.979  1.00  0.00    -0.040 OA 
HETATM   10  O   UNL     1      -6.640   7.517  64.399  1.00  0.00    -0.047 OA 
HETATM   11  C   UNL     1      -8.995   9.929  68.220  1.00  0.00    -0.119 A  
HETATM   12  C   UNL     1      -9.322   8.791  67.477  1.00  0.00    -0.161 A  
BRANCH  11  13
HETATM   13  C   UNL     1      -9.916  10.402  69.316  1.00  0.00    -0.246 C  
BRANCH  13  14
HETATM   14  C   UNL     1     -10.979  11.368  68.831  1.00  0.00    -0.226 C  
HETATM   15  O   UNL     1     -12.038  10.944  68.371  1.00  0.00    -0.559 OA 
HETATM   16  N   UNL     1     -10.678  12.713  68.963  1.00  0.00    -0.411 N  
HETATM   17  H   UNL     1      -9.757  12.988  69.304  1.00  0.00     0.000 HD 
BRANCH  16  18
HETATM   18  C   UNL     1     -11.662  13.757  68.620  1.00  0.00    -0.356 C  
BRANCH  18  19
HETATM   19  C   UNL     1     -11.668  14.233  67.157  1.00  0.00    -0.430 A  
HETATM   20  C   UNL     1     -10.562  14.897  66.526  1.00  0.00    -0.306 A  
HETATM   21  C   UNL     1     -10.692  15.136  65.130  1.00  0.00    -0.442 A  
HETATM   22  C   UNL     1     -12.778  13.840  66.354  1.00  0.00    -0.172 A  
HETATM   23  C   UNL     1     -11.787  14.729  64.367  1.00  0.00    -0.393 A  
HETATM   24  C   UNL     1     -12.837  14.081  64.981  1.00  0.00    -0.292 A  
BRANCH  20  25
HETATM   25  N   UNL     1      -9.382  15.344  67.131  1.00  0.00    -0.208 NA 
HETATM   26  C   UNL     1      -9.154  16.789  67.356  1.00  0.00    -0.216 C  
HETATM   27  C   UNL     1      -8.650  17.006  68.787  1.00  0.00    -0.238 C  
HETATM   28  C   UNL     1      -7.361  16.229  69.031  1.00  0.00    -0.214 C  
HETATM   29  C   UNL     1      -7.565  14.761  68.707  1.00  0.00    -0.137 C  
HETATM   30  C   UNL     1      -8.175  14.542  67.328  1.00  0.00    -0.208 C  
ENDBRANCH  20  25
ENDBRANCH  18  19
BRANCH  18  31
HETATM   31  C   UNL     1     -11.548  14.988  69.540  1.00  0.00    -0.337 C  
HETATM   32  C   UNL     1     -13.253  14.261  71.335  1.00  0.00    -0.419 C  
HETATM   33  C   UNL     1     -11.834  14.753  71.037  1.00  0.00    -0.383 C  
HETATM   34  C   UNL     1     -11.621  16.071  71.790  1.00  0.00    -0.534 C  
ENDBRANCH  18  31
ENDBRANCH  16  18
ENDBRANCH  13  14
ENDBRANCH  11  13
ENDBRANCH   3   4
ENDBRANCH   2   3
TORSDOF 8
ENDMDL
MODEL      131
REMARK 921   NORMALIZED FREE ENERGY PREDICTED BY IDOCK:   -5.31 KCAL/MOL
REMARK 922        TOTAL FREE ENERGY PREDICTED BY IDOCK:  -10.19 KCAL/MOL
REMARK 923 INTER-LIGAND FREE ENERGY PREDICTED BY IDOCK:   -9.03 KCAL/MOL
REMARK 924 INTRA-LIGAND FREE ENERGY PREDICTED BY IDOCK:   -1.17 KCAL/MOL
REMARK 927      BINDING AFFINITY PREDICTED BY RF-SCORE:    0.00 PKD
ROOT
HETATM    1  C   UNL     1     -10.646   9.375  68.851  1.00  0.00    -0.231 C  
HETATM    2  C   UNL     1     -10.761   9.264  67.347  1.00  0.00    -0.193 C  
ENDROOT
BRANCH   2   3
HETATM    3  O   UNL     1      -9.639   9.934  66.736  1.00  0.00    -0.168 OA 
BRANCH   3   4
HETATM    4  C   UNL     1      -9.940  10.621  65.587  1.00  0.00    -0.268 A  
HETATM    5  C   UNL     1      -9.433  10.156  64.363  1.00  0.00    -0.368 A  
HETATM    6  C   UNL     1      -9.684  10.899  63.195  1.00  0.00    -0.396 A  
HETATM    7  C   UNL     1      -8.602   8.918  64.197  1.00  0.00    -0.106 C  
HETATM    8  C   UNL     1     -10.426  12.077  63.238  1.00  0.00    -0.403 A  
HETATM    9  O   UNL     1      -8.102   8.599  63.126  1.00  0.00    -0.156 OA 
HETATM   10  O   UNL     1      -8.466   8.167  65.303  1.00  0.00    -0.157 OA 
HETATM   11  C   UNL     1     -10.956  12.530  64.451  1.00  0.00    -0.378 A  
HETATM   12  C   UNL     1     -10.741  11.774  65.607  1.00  0.00    -0.328 A  
BRANCH  11  13
HETATM   13  C   UNL     1     -11.749  13.809  64.525  1.00  0.00    -0.432 C  
BRANCH  13  14
HETATM   14  C   UNL     1     -10.949  14.981  65.060  1.00  0.00    -0.423 C  
HETATM   15  O   UNL     1     -10.834  16.008  64.394  1.00  0.00    -0.522 OA 
HETATM   16  N   UNL     1     -10.398  14.811  66.320  1.00  0.00    -0.287 N  
HETATM   17  H   UNL     1     -10.492  13.911  66.789  1.00  0.00     0.000 HD 
BRANCH  16  18
HETATM   18  C   UNL     1      -9.680  15.907  66.996  1.00  0.00    -0.228 C  
BRANCH  18  19
HETATM   19  C   UNL     1      -8.172  15.696  67.220  1.00  0.00    -0.218 A  
HETATM   20  C   UNL     1      -7.235  16.768  67.411  1.00  0.00    -0.160 A  
HETATM   21  C   UNL     1      -5.907  16.382  67.746  1.00  0.00    -0.151 A  
HETATM   22  C   UNL     1      -7.726  14.356  67.408  1.00  0.00    -0.207 A  
HETATM   23  C   UNL     1      -5.502  15.060  67.934  1.00  0.00    -0.120 A  
HETATM   24  C   UNL     1      -6.414  14.041  67.762  1.00  0.00    -0.181 A  
BRANCH  20  25
HETATM   25  N   UNL     1      -7.476  18.141  67.291  1.00  0.00    -0.209 NA 
HETATM   26  C   UNL     1      -7.816  18.951  68.483  1.00  0.00    -0.337 C  
HETATM   27  C   UNL     1      -6.975  20.233  68.481  1.00  0.00    -0.245 C  
HETATM   28  C   UNL     1      -7.223  21.040  67.212  1.00  0.00    -0.363 C  
HETATM   29  C   UNL     1      -6.969  20.182  65.987  1.00  0.00    -0.291 C  
HETATM   30  C   UNL     1      -7.712  18.853  66.036  1.00  0.00    -0.213 C  
ENDBRANCH  20  25
ENDBRANCH  18  19
BRANCH  18  31
HETATM   31  C   UNL     1     -10.331  16.286  68.341  1.00  0.00    -0.271 C  
HETATM   32  C   UNL     1     -11.850  14.218  68.607  1.00  0.00    -0.379 C  
HETATM   33  C   UNL     1     -10.783  15.114  69.237  1.00  0.00    -0.250 C  
HETATM   34  C   UNL     1     -11.352  15.686  70.540  1.00  0.00    -0.386 C  
ENDBRANCH  18  31
ENDBRANCH  16  18
ENDBRANCH  13  14
ENDBRANCH  11  13
ENDBRANCH   3   4
ENDBRANCH   2   3
TORSDOF 8
ENDMDL
MODEL      132
REMARK 921   NORMALIZED FREE ENERGY PREDICTED BY IDOCK:   -5.29 KCAL/MOL
REMARK 922        TOTAL FREE ENERGY PREDICTED BY IDOCK:  -10.16 KCAL/MOL
REMARK 923 INTER-LIGAND FREE ENERGY PREDICTED BY IDOCK:   -8.23 KCAL/MOL
REMARK 924 INTRA-LIGAND FREE ENERGY PREDICTED BY IDOCK:   -1.94 KCAL/MOL
REMARK 927      BINDING AFFINITY PREDICTED BY RF-SCORE:    0.00 PKD
ROOT
HETATM    1  C   UNL     1     -12.137  14.399  64.858  1.00  0.00    -0.442 C  
HETATM    2  C   UNL     1     -10.643  14.634  64.858  1.00  0.00    -0.422 C  
ENDROOT
BRANCH   2   3
HETATM    3  O   UNL     1     -10.327  15.672  65.808  1.00  0.00    -0.315 OA 
BRANCH   3   4
HETATM    4  C   UNL     1      -9.482  15.287  66.818  1.00  0.00    -0.245 A  
HETATM    5  C   UNL     1      -9.287  16.148  67.909  1.00  0.00    -0.212 A  
HETATM    6  C   UNL     1      -8.368  15.784  68.910  1.00  0.00    -0.213 A  
HETATM    7  C   UNL     1      -9.972  17.472  68.086  1.00  0.00    -0.321 C  
HETATM    8  C   UNL     1      -7.660  14.587  68.833  1.00  0.00    -0.138 A  
HETATM    9  O   UNL     1      -9.703  18.235  69.006  1.00  0.00    -0.299 OA 
HETATM   10  O   UNL     1     -10.923  17.751  67.179  1.00  0.00    -0.187 OA 
HETATM   11  C   UNL     1      -7.872  13.712  67.763  1.00  0.00    -0.172 A  
HETATM   12  C   UNL     1      -8.811  14.053  66.786  1.00  0.00    -0.178 A  
BRANCH  11  13
HETATM   13  C   UNL     1      -7.106  12.419  67.651  1.00  0.00    -0.133 C  
BRANCH  13  14
HETATM   14  C   UNL     1      -7.521  11.385  68.680  1.00  0.00    -0.119 C  
HETATM   15  O   UNL     1      -6.957  11.339  69.772  1.00  0.00    -0.106 OA 
HETATM   16  N   UNL     1      -8.559  10.547  68.310  1.00  0.00    -0.123 N  
HETATM   17  H   UNL     1      -8.941  10.611  67.366  1.00  0.00     0.000 HD 
BRANCH  16  18
HETATM   18  C   UNL     1      -9.124   9.563  69.252  1.00  0.00    -0.161 C  
BRANCH  18  19
HETATM   19  C   UNL     1      -9.709   8.283  68.630  1.00  0.00    -0.162 A  
HETATM   20  C   UNL     1     -10.299   7.220  69.395  1.00  0.00    -0.208 A  
HETATM   21  C   UNL     1     -10.917   6.181  68.645  1.00  0.00    -0.415 A  
HETATM   22  C   UNL     1      -9.811   8.241  67.209  1.00  0.00    -0.258 A  
HETATM   23  C   UNL     1     -11.010   6.172  67.252  1.00  0.00    -0.418 A  
HETATM   24  C   UNL     1     -10.453   7.206  66.530  1.00  0.00    -0.055 A  
BRANCH  20  25
HETATM   25  N   UNL     1     -10.322   7.085  70.788  1.00  0.00    -0.205 NA 
HETATM   26  C   UNL     1      -9.084   6.764  71.533  1.00  0.00    -0.145 C  
HETATM   27  C   UNL     1      -8.964   7.697  72.743  1.00  0.00    -0.212 C  
HETATM   28  C   UNL     1     -10.176   7.556  73.657  1.00  0.00    -0.333 C  
HETATM   29  C   UNL     1     -11.454   7.789  72.873  1.00  0.00    -0.359 C  
HETATM   30  C   UNL     1     -11.527   6.948  71.605  1.00  0.00    -0.275 C  
ENDBRANCH  20  25
ENDBRANCH  18  19
BRANCH  18  31
HETATM   31  C   UNL     1     -10.181  10.189  70.182  1.00  0.00    -0.235 C  
HETATM   32  C   UNL     1     -11.463  11.557  68.409  1.00  0.00    -0.364 C  
HETATM   33  C   UNL     1     -11.542  10.530  69.540  1.00  0.00    -0.332 C  
HETATM   34  C   UNL     1     -12.469  11.088  70.625  1.00  0.00    -0.465 C  
ENDBRANCH  18  31
ENDBRANCH  16  18
ENDBRANCH  13  14
ENDBRANCH  11  13
ENDBRANCH   3   4
ENDBRANCH   2   3
TORSDOF 8
ENDMDL
MODEL      133
REMARK 921   NORMALIZED FREE ENERGY PREDICTED BY IDOCK:   -5.29 KCAL/MOL
REMARK 922        TOTAL FREE ENERGY PREDICTED BY IDOCK:  -10.16 KCAL/MOL
REMARK 923 INTER-LIGAND FREE ENERGY PREDICTED BY IDOCK:   -9.18 KCAL/MOL
REMARK 924 INTRA-LIGAND FREE ENERGY PREDICTED BY IDOCK:   -0.98 KCAL/MOL
REMARK 927      BINDING AFFINITY PREDICTED BY RF-SCORE:    0.00 PKD
ROOT
HETATM    1  C   UNL     1     -10.849  20.119  65.364  1.00  0.00    -0.025 C  
HETATM    2  C   UNL     1     -10.386  19.156  66.435  1.00  0.00    -0.455 C  
ENDROOT
BRANCH   2   3
HETATM    3  O   UNL     1      -9.842  17.977  65.807  1.00  0.00    -0.539 OA 
BRANCH   3   4
HETATM    4  C   UNL     1      -9.664  16.910  66.652  1.00  0.00    -0.271 A  
HETATM    5  C   UNL     1      -8.362  16.451  66.905  1.00  0.00    -0.263 A  
HETATM    6  C   UNL     1      -8.185  15.315  67.716  1.00  0.00    -0.157 A  
HETATM    7  C   UNL     1      -7.114  17.069  66.346  1.00  0.00    -0.250 C  
HETATM    8  C   UNL     1      -9.277  14.649  68.267  1.00  0.00    -0.198 A  
HETATM    9  O   UNL     1      -6.004  16.581  66.518  1.00  0.00    -0.299 OA 
HETATM   10  O   UNL     1      -7.296  18.214  65.667  1.00  0.00    -0.528 OA 
HETATM   11  C   UNL     1     -10.575  15.118  68.040  1.00  0.00    -0.258 A  
HETATM   12  C   UNL     1     -10.752  16.269  67.267  1.00  0.00    -0.265 A  
BRANCH  11  13
HETATM   13  C   UNL     1     -11.773  14.406  68.614  1.00  0.00    -0.367 C  
BRANCH  13  14
HETATM   14  C   UNL     1     -11.511  12.944  68.921  1.00  0.00    -0.304 C  
HETATM   15  O   UNL     1     -11.914  12.452  69.974  1.00  0.00    -0.328 OA 
HETATM   16  N   UNL     1     -10.828  12.235  67.947  1.00  0.00    -0.210 N  
HETATM   17  H   UNL     1     -10.480  12.726  67.124  1.00  0.00     0.000 HD 
BRANCH  16  18
HETATM   18  C   UNL     1     -10.594  10.785  68.077  1.00  0.00    -0.207 C  
BRANCH  18  19
HETATM   19  C   UNL     1      -9.512  10.357  69.084  1.00  0.00    -0.220 A  
HETATM   20  C   UNL     1      -9.707   9.346  70.085  1.00  0.00    -0.235 A  
HETATM   21  C   UNL     1      -8.554   8.980  70.834  1.00  0.00    -0.263 A  
HETATM   22  C   UNL     1      -8.204  10.888  68.893  1.00  0.00    -0.141 A  
HETATM   23  C   UNL     1      -7.281   9.510  70.617  1.00  0.00    -0.130 A  
HETATM   24  C   UNL     1      -7.105  10.470  69.643  1.00  0.00    -0.141 A  
BRANCH  20  25
HETATM   25  N   UNL     1     -10.900   8.692  70.414  1.00  0.00    -0.225 NA 
HETATM   26  C   UNL     1     -11.256   7.408  69.769  1.00  0.00    -0.091 C  
HETATM   27  C   UNL     1     -11.722   6.415  70.839  1.00  0.00    -0.366 C  
HETATM   28  C   UNL     1     -12.921   6.967  71.603  1.00  0.00    -0.400 C  
HETATM   29  C   UNL     1     -12.591   8.329  72.184  1.00  0.00    -0.379 C  
HETATM   30  C   UNL     1     -12.017   9.286  71.148  1.00  0.00    -0.322 C  
ENDBRANCH  20  25
ENDBRANCH  18  19
BRANCH  18  31
HETATM   31  C   UNL     1     -10.296  10.120  66.719  1.00  0.00    -0.285 C  
HETATM   32  C   UNL     1     -11.235  11.975  65.191  1.00  0.00    -0.368 C  
HETATM   33  C   UNL     1     -10.047  11.073  65.531  1.00  0.00    -0.316 C  
HETATM   34  C   UNL     1      -9.719  10.234  64.291  1.00  0.00    -0.373 C  
ENDBRANCH  18  31
ENDBRANCH  16  18
ENDBRANCH  13  14
ENDBRANCH  11  13
ENDBRANCH   3   4
ENDBRANCH   2   3
TORSDOF 8
ENDMDL
MODEL      134
REMARK 921   NORMALIZED FREE ENERGY PREDICTED BY IDOCK:   -5.25 KCAL/MOL
REMARK 922        TOTAL FREE ENERGY PREDICTED BY IDOCK:  -10.10 KCAL/MOL
REMARK 923 INTER-LIGAND FREE ENERGY PREDICTED BY IDOCK:   -7.87 KCAL/MOL
REMARK 924 INTRA-LIGAND FREE ENERGY PREDICTED BY IDOCK:   -2.23 KCAL/MOL
REMARK 927      BINDING AFFINITY PREDICTED BY RF-SCORE:    0.00 PKD
ROOT
HETATM    1  C   UNL     1     -10.807   9.934  70.506  1.00  0.00    -0.391 C  
HETATM    2  C   UNL     1     -12.167  10.564  70.309  1.00  0.00    -0.311 C  
ENDROOT
BRANCH   2   3
HETATM    3  O   UNL     1     -12.066  11.985  70.536  1.00  0.00    -0.366 OA 
BRANCH   3   4
HETATM    4  C   UNL     1     -11.951  12.740  69.395  1.00  0.00    -0.263 A  
HETATM    5  C   UNL     1     -11.935  14.139  69.503  1.00  0.00    -0.389 A  
HETATM    6  C   UNL     1     -11.886  14.914  68.329  1.00  0.00    -0.308 A  
HETATM    7  C   UNL     1     -11.996  14.898  70.797  1.00  0.00    -0.314 C  
HETATM    8  C   UNL     1     -11.851  14.312  67.074  1.00  0.00    -0.455 A  
HETATM    9  O   UNL     1     -12.074  16.119  70.841  1.00  0.00    -0.349 OA 
HETATM   10  O   UNL     1     -11.932  14.143  71.907  1.00  0.00    -0.137 OA 
HETATM   11  C   UNL     1     -11.839  12.918  66.962  1.00  0.00    -0.437 A  
HETATM   12  C   UNL     1     -11.848  12.146  68.127  1.00  0.00    -0.362 A  
BRANCH  11  13
HETATM   13  C   UNL     1     -11.815  12.245  65.614  1.00  0.00    -0.423 C  
BRANCH  13  14
HETATM   14  C   UNL     1     -10.413  11.991  65.095  1.00  0.00    -0.289 C  
HETATM   15  O   UNL     1     -10.047  12.489  64.031  1.00  0.00    -0.359 OA 
HETATM   16  N   UNL     1      -9.606  11.201  65.896  1.00  0.00    -0.209 N  
HETATM   17  H   UNL     1      -9.997  10.780  66.738  1.00  0.00     0.000 HD 
BRANCH  16  18
HETATM   18  C   UNL     1      -8.192  10.957  65.557  1.00  0.00    -0.052 C  
BRANCH  18  19
HETATM   19  C   UNL     1      -7.890   9.655  64.795  1.00  0.00    -0.128 A  
HETATM   20  C   UNL     1      -8.300   8.353  65.241  1.00  0.00    -0.160 A  
HETATM   21  C   UNL     1      -8.058   7.280  64.339  1.00  0.00    -0.065 A  
HETATM   22  C   UNL     1      -7.313   9.782  63.498  1.00  0.00    -0.123 A  
HETATM   23  C   UNL     1      -7.501   7.437  63.069  1.00  0.00    -0.100 A  
HETATM   24  C   UNL     1      -7.124   8.693  62.647  1.00  0.00    -0.097 A  
BRANCH  20  25
HETATM   25  N   UNL     1      -8.896   8.021  66.463  1.00  0.00    -0.143 NA 
HETATM   26  C   UNL     1     -10.365   8.101  66.630  1.00  0.00    -0.213 C  
HETATM   27  C   UNL     1     -10.868   6.825  67.312  1.00  0.00    -0.443 C  
HETATM   28  C   UNL     1     -10.198   6.636  68.668  1.00  0.00    -0.184 C  
HETATM   29  C   UNL     1      -8.689   6.652  68.514  1.00  0.00    -0.123 C  
HETATM   30  C   UNL     1      -8.190   7.861  67.734  1.00  0.00    -0.129 C  
ENDBRANCH  20  25
ENDBRANCH  18  19
BRANCH  18  31
HETATM   31  C   UNL     1      -7.275  11.030  66.794  1.00  0.00    -0.139 C  
HETATM   32  C   UNL     1      -8.128  13.271  67.747  1.00  0.00    -0.166 C  
HETATM   33  C   UNL     1      -7.832  11.793  68.013  1.00  0.00    -0.134 C  
HETATM   34  C   UNL     1      -6.808  11.712  69.151  1.00  0.00    -0.111 C  
ENDBRANCH  18  31
ENDBRANCH  16  18
ENDBRANCH  13  14
ENDBRANCH  11  13
ENDBRANCH   3   4
ENDBRANCH   2   3
TORSDOF 8
ENDMDL
MODEL      135
REMARK 921   NORMALIZED FREE ENERGY PREDICTED BY IDOCK:   -5.24 KCAL/MOL
REMARK 922        TOTAL FREE ENERGY PREDICTED BY IDOCK:  -10.09 KCAL/MOL
REMARK 923 INTER-LIGAND FREE ENERGY PREDICTED BY IDOCK:   -7.60 KCAL/MOL
REMARK 924 INTRA-LIGAND FREE ENERGY PREDICTED BY IDOCK:   -2.49 KCAL/MOL
REMARK 927      BINDING AFFINITY PREDICTED BY RF-SCORE:    0.00 PKD
ROOT
HETATM    1  C   UNL     1      -9.299  11.031  66.677  1.00  0.00    -0.196 C  
HETATM    2  C   UNL     1      -9.890  10.499  67.963  1.00  0.00    -0.147 C  
ENDROOT
BRANCH   2   3
HETATM    3  O   UNL     1     -10.326  11.608  68.777  1.00  0.00    -0.214 OA 
BRANCH   3   4
HETATM    4  C   UNL     1     -11.191  11.270  69.787  1.00  0.00    -0.220 A  
HETATM    5  C   UNL     1     -12.051  12.252  70.304  1.00  0.00    -0.376 A  
HETATM    6  C   UNL     1     -12.890  11.924  71.385  1.00  0.00    -0.411 A  
HETATM    7  C   UNL     1     -12.131  13.666  69.806  1.00  0.00    -0.334 C  
HETATM    8  C   UNL     1     -12.879  10.647  71.940  1.00  0.00    -0.487 A  
HETATM    9  O   UNL     1     -12.828  14.516  70.346  1.00  0.00    -0.349 OA 
HETATM   10  O   UNL     1     -11.405  13.928  68.706  1.00  0.00    -0.244 OA 
HETATM   11  C   UNL     1     -12.044   9.657  71.410  1.00  0.00    -0.472 A  
HETATM   12  C   UNL     1     -11.238   9.969  70.312  1.00  0.00    -0.379 A  
BRANCH  11  13
HETATM   13  C   UNL     1     -12.005   8.272  72.004  1.00  0.00    -0.405 C  
BRANCH  13  14
HETATM   14  C   UNL     1     -11.736   7.188  70.978  1.00  0.00    -0.320 C  
HETATM   15  O   UNL     1     -12.613   6.858  70.182  1.00  0.00     0.054 OA 
HETATM   16  N   UNL     1     -10.465   6.638  71.000  1.00  0.00    -0.211 N  
HETATM   17  H   UNL     1      -9.808   6.926  71.725  1.00  0.00     0.000 HD 
BRANCH  16  18
HETATM   18  C   UNL     1     -10.042   5.646  69.996  1.00  0.00    -0.228 C  
BRANCH  18  19
HETATM   19  C   UNL     1      -9.300   4.408  70.531  1.00  0.00    -0.213 A  
HETATM   20  C   UNL     1      -8.597   4.377  71.784  1.00  0.00    -0.114 A  
HETATM   21  C   UNL     1      -8.093   3.108  72.184  1.00  0.00    -0.062 A  
HETATM   22  C   UNL     1      -9.467   3.191  69.810  1.00  0.00    -0.198 A  
HETATM   23  C   UNL     1      -8.282   1.929  71.461  1.00  0.00    -0.057 A  
HETATM   24  C   UNL     1      -8.970   1.970  70.268  1.00  0.00    -0.147 A  
BRANCH  20  25
HETATM   25  N   UNL     1      -8.343   5.451  72.644  1.00  0.00    -0.114 NA 
HETATM   26  C   UNL     1      -7.330   6.472  72.293  1.00  0.00    -0.090 C  
HETATM   27  C   UNL     1      -7.914   7.869  72.531  1.00  0.00    -0.157 C  
HETATM   28  C   UNL     1      -8.343   8.035  73.985  1.00  0.00    -0.323 C  
HETATM   29  C   UNL     1      -9.307   6.931  74.377  1.00  0.00    -0.252 C  
HETATM   30  C   UNL     1      -8.781   5.543  74.036  1.00  0.00    -0.120 C  
ENDBRANCH  20  25
ENDBRANCH  18  19
BRANCH  18  31
HETATM   31  C   UNL     1      -9.198   6.279  68.871  1.00  0.00    -0.123 C  
HETATM   32  C   UNL     1     -10.703   5.628  66.878  1.00  0.00    -0.350 C  
HETATM   33  C   UNL     1      -9.969   6.748  67.620  1.00  0.00    -0.171 C  
HETATM   34  C   UNL     1      -8.976   7.391  66.646  1.00  0.00    -0.168 C  
ENDBRANCH  18  31
ENDBRANCH  16  18
ENDBRANCH  13  14
ENDBRANCH  11  13
ENDBRANCH   3   4
ENDBRANCH   2   3
TORSDOF 8
ENDMDL
MODEL      136
REMARK 921   NORMALIZED FREE ENERGY PREDICTED BY IDOCK:   -5.23 KCAL/MOL
REMARK 922        TOTAL FREE ENERGY PREDICTED BY IDOCK:  -10.08 KCAL/MOL
REMARK 923 INTER-LIGAND FREE ENERGY PREDICTED BY IDOCK:   -7.75 KCAL/MOL
REMARK 924 INTRA-LIGAND FREE ENERGY PREDICTED BY IDOCK:   -2.33 KCAL/MOL
REMARK 927      BINDING AFFINITY PREDICTED BY RF-SCORE:    0.00 PKD
ROOT
HETATM    1  C   UNL     1     -10.290  11.802  63.550  1.00  0.00    -0.490 C  
HETATM    2  C   UNL     1     -10.225  10.836  64.711  1.00  0.00    -0.334 C  
ENDROOT
BRANCH   2   3
HETATM    3  O   UNL     1      -9.293   9.780  64.396  1.00  0.00    -0.263 OA 
BRANCH   3   4
HETATM    4  C   UNL     1      -8.008  10.005  64.822  1.00  0.00    -0.144 A  
HETATM    5  C   UNL     1      -6.974   9.197  64.323  1.00  0.00    -0.091 A  
HETATM    6  C   UNL     1      -5.668   9.382  64.811  1.00  0.00    -0.064 A  
HETATM    7  C   UNL     1      -7.155   8.106  63.308  1.00  0.00    -0.087 C  
HETATM    8  C   UNL     1      -5.391  10.352  65.772  1.00  0.00    -0.079 A  
HETATM    9  O   UNL     1      -6.242   7.364  62.969  1.00  0.00    -0.052 OA 
HETATM   10  O   UNL     1      -8.386   8.018  62.775  1.00  0.00    -0.145 OA 
HETATM   11  C   UNL     1      -6.413  11.177  66.252  1.00  0.00    -0.082 A  
HETATM   12  C   UNL     1      -7.705  11.022  65.741  1.00  0.00     0.037 A  
BRANCH  11  13
HETATM   13  C   UNL     1      -6.141  12.223  67.303  1.00  0.00    -0.153 C  
BRANCH  13  14
HETATM   14  C   UNL     1      -7.384  12.975  67.737  1.00  0.00    -0.139 C  
HETATM   15  O   UNL     1      -7.915  12.722  68.817  1.00  0.00    -0.060 OA 
HETATM   16  N   UNL     1      -7.840  13.945  66.860  1.00  0.00    -0.322 N  
HETATM   17  H   UNL     1      -7.377  14.061  65.959  1.00  0.00     0.000 HD 
BRANCH  16  18
HETATM   18  C   UNL     1      -8.980  14.815  67.204  1.00  0.00    -0.224 C  
BRANCH  18  19
HETATM   19  C   UNL     1     -10.306  14.516  66.482  1.00  0.00    -0.283 A  
HETATM   20  C   UNL     1     -11.370  13.738  67.053  1.00  0.00    -0.326 A  
HETATM   21  C   UNL     1     -12.576  13.686  66.302  1.00  0.00    -0.346 A  
HETATM   22  C   UNL     1     -10.538  15.191  65.249  1.00  0.00    -0.432 A  
HETATM   23  C   UNL     1     -12.778  14.367  65.101  1.00  0.00    -0.262 A  
HETATM   24  C   UNL     1     -11.754  15.122  64.570  1.00  0.00    -0.331 A  
BRANCH  20  25
HETATM   25  N   UNL     1     -11.348  13.019  68.254  1.00  0.00    -0.268 NA 
HETATM   26  C   UNL     1     -11.309  13.727  69.553  1.00  0.00    -0.224 C  
HETATM   27  C   UNL     1     -12.345  13.109  70.499  1.00  0.00    -0.380 C  
HETATM   28  C   UNL     1     -12.071  11.623  70.704  1.00  0.00    -0.432 C  
HETATM   29  C   UNL     1     -12.014  10.911  69.366  1.00  0.00    -0.393 C  
HETATM   30  C   UNL     1     -11.072  11.589  68.379  1.00  0.00    -0.235 C  
ENDBRANCH  20  25
ENDBRANCH  18  19
BRANCH  18  31
HETATM   31  C   UNL     1      -8.646  16.309  67.026  1.00  0.00    -0.227 C  
HETATM   32  C   UNL     1     -10.459  17.275  68.587  1.00  0.00    -0.356 C  
HETATM   33  C   UNL     1      -8.974  17.230  68.219  1.00  0.00    -0.262 C  
HETATM   34  C   UNL     1      -8.527  18.655  67.876  1.00  0.00    -0.297 C  
ENDBRANCH  18  31
ENDBRANCH  16  18
ENDBRANCH  13  14
ENDBRANCH  11  13
ENDBRANCH   3   4
ENDBRANCH   2   3
TORSDOF 8
ENDMDL
MODEL      137
REMARK 921   NORMALIZED FREE ENERGY PREDICTED BY IDOCK:   -5.19 KCAL/MOL
REMARK 922        TOTAL FREE ENERGY PREDICTED BY IDOCK:  -10.01 KCAL/MOL
REMARK 923 INTER-LIGAND FREE ENERGY PREDICTED BY IDOCK:   -8.35 KCAL/MOL
REMARK 924 INTRA-LIGAND FREE ENERGY PREDICTED BY IDOCK:   -1.66 KCAL/MOL
REMARK 927      BINDING AFFINITY PREDICTED BY RF-SCORE:    0.00 PKD
ROOT
HETATM    1  C   UNL     1      -9.506   3.639  68.582  1.00  0.00    -0.208 C  
HETATM    2  C   UNL     1      -9.996   5.015  68.973  1.00  0.00    -0.181 C  
ENDROOT
BRANCH   2   3
HETATM    3  O   UNL     1     -10.378   5.003  70.364  1.00  0.00    -0.265 OA 
BRANCH   3   4
HETATM    4  C   UNL     1     -10.089   6.158  71.047  1.00  0.00    -0.188 A  
HETATM    5  C   UNL     1     -10.235   6.178  72.443  1.00  0.00    -0.212 A  
HETATM    6  C   UNL     1     -10.005   7.381  73.136  1.00  0.00    -0.318 A  
HETATM    7  C   UNL     1     -10.654   5.002  73.276  1.00  0.00    -0.234 C  
HETATM    8  C   UNL     1      -9.635   8.540  72.458  1.00  0.00    -0.324 A  
HETATM    9  O   UNL     1     -10.859   5.087  74.480  1.00  0.00    -0.331 OA 
HETATM   10  O   UNL     1     -10.762   3.839  72.612  1.00  0.00    -0.125 OA 
HETATM   11  C   UNL     1      -9.462   8.518  71.070  1.00  0.00    -0.234 A  
HETATM   12  C   UNL     1      -9.652   7.315  70.384  1.00  0.00    -0.165 A  
BRANCH  11  13
HETATM   13  C   UNL     1      -9.075   9.763  70.314  1.00  0.00    -0.208 C  
BRANCH  13  14
HETATM   14  C   UNL     1     -10.259  10.482  69.697  1.00  0.00    -0.168 C  
HETATM   15  O   UNL     1     -11.394  10.289  70.130  1.00  0.00    -0.270 OA 
HETATM   16  N   UNL     1      -9.965  11.353  68.662  1.00  0.00    -0.207 N  
HETATM   17  H   UNL     1      -9.005  11.419  68.322  1.00  0.00     0.000 HD 
BRANCH  16  18
HETATM   18  C   UNL     1     -11.010  12.187  68.040  1.00  0.00    -0.229 C  
BRANCH  18  19
HETATM   19  C   UNL     1     -11.107  12.125  66.506  1.00  0.00    -0.352 A  
HETATM   20  C   UNL     1     -10.436  11.144  65.700  1.00  0.00    -0.248 A  
HETATM   21  C   UNL     1     -10.755  11.151  64.314  1.00  0.00    -0.403 A  
HETATM   22  C   UNL     1     -12.046  12.996  65.881  1.00  0.00    -0.503 A  
HETATM   23  C   UNL     1     -11.688  12.010  63.732  1.00  0.00    -0.575 A  
HETATM   24  C   UNL     1     -12.336  12.939  64.518  1.00  0.00    -0.483 A  
BRANCH  20  25
HETATM   25  N   UNL     1      -9.499  10.193  66.122  1.00  0.00    -0.177 NA 
HETATM   26  C   UNL     1      -9.931   8.830  66.504  1.00  0.00    -0.290 C  
HETATM   27  C   UNL     1      -9.012   7.801  65.837  1.00  0.00    -0.155 C  
HETATM   28  C   UNL     1      -7.561   8.024  66.247  1.00  0.00    -0.090 C  
HETATM   29  C   UNL     1      -7.145   9.452  65.945  1.00  0.00    -0.091 C  
HETATM   30  C   UNL     1      -8.118  10.479  66.508  1.00  0.00    -0.134 C  
ENDBRANCH  20  25
ENDBRANCH  18  19
BRANCH  18  31
HETATM   31  C   UNL     1     -10.909  13.663  68.470  1.00  0.00    -0.275 C  
HETATM   32  C   UNL     1     -12.755  13.645  70.272  1.00  0.00    -0.163 C  
HETATM   33  C   UNL     1     -11.302  13.980  69.928  1.00  0.00    -0.208 C  
HETATM   34  C   UNL     1     -11.087  15.476  70.179  1.00  0.00    -0.337 C  
ENDBRANCH  18  31
ENDBRANCH  16  18
ENDBRANCH  13  14
ENDBRANCH  11  13
ENDBRANCH   3   4
ENDBRANCH   2   3
TORSDOF 8
ENDMDL
MODEL      138
REMARK 921   NORMALIZED FREE ENERGY PREDICTED BY IDOCK:   -5.19 KCAL/MOL
REMARK 922        TOTAL FREE ENERGY PREDICTED BY IDOCK:  -10.01 KCAL/MOL
REMARK 923 INTER-LIGAND FREE ENERGY PREDICTED BY IDOCK:   -9.15 KCAL/MOL
REMARK 924 INTRA-LIGAND FREE ENERGY PREDICTED BY IDOCK:   -0.86 KCAL/MOL
REMARK 927      BINDING AFFINITY PREDICTED BY RF-SCORE:    0.00 PKD
ROOT
HETATM    1  C   UNL     1      -5.549  15.568  70.092  1.00  0.00    -0.142 C  
HETATM    2  C   UNL     1      -6.055  16.820  69.414  1.00  0.00    -0.211 C  
ENDROOT
BRANCH   2   3
HETATM    3  O   UNL     1      -6.421  16.507  68.054  1.00  0.00    -0.125 OA 
BRANCH   3   4
HETATM    4  C   UNL     1      -7.687  16.899  67.698  1.00  0.00    -0.165 A  
HETATM    5  C   UNL     1      -7.843  17.851  66.677  1.00  0.00    -0.272 A  
HETATM    6  C   UNL     1      -9.136  18.304  66.358  1.00  0.00    -0.260 A  
HETATM    7  C   UNL     1      -6.715  18.461  65.898  1.00  0.00    -0.277 C  
HETATM    8  C   UNL     1     -10.253  17.821  67.036  1.00  0.00    -0.346 A  
HETATM    9  O   UNL     1      -6.888  19.356  65.080  1.00  0.00    -0.431 OA 
HETATM   10  O   UNL     1      -5.502  17.936  66.140  1.00  0.00    -0.159 OA 
HETATM   11  C   UNL     1     -10.106  16.853  68.034  1.00  0.00    -0.293 A  
HETATM   12  C   UNL     1      -8.826  16.372  68.327  1.00  0.00    -0.202 A  
BRANCH  11  13
HETATM   13  C   UNL     1     -11.298  16.326  68.791  1.00  0.00    -0.329 C  
BRANCH  13  14
HETATM   14  C   UNL     1     -11.376  14.812  68.809  1.00  0.00    -0.282 C  
HETATM   15  O   UNL     1     -11.628  14.218  69.856  1.00  0.00    -0.263 OA 
HETATM   16  N   UNL     1     -11.170  14.182  67.593  1.00  0.00    -0.285 N  
HETATM   17  H   UNL     1     -10.914  14.739  66.779  1.00  0.00     0.000 HD 
BRANCH  16  18
HETATM   18  C   UNL     1     -11.314  12.722  67.452  1.00  0.00    -0.313 C  
BRANCH  18  19
HETATM   19  C   UNL     1     -10.033  11.890  67.640  1.00  0.00    -0.197 A  
HETATM   20  C   UNL     1      -9.937  10.754  68.513  1.00  0.00    -0.178 A  
HETATM   21  C   UNL     1      -8.720  10.021  68.451  1.00  0.00    -0.117 A  
HETATM   22  C   UNL     1      -8.942  12.177  66.770  1.00  0.00    -0.203 A  
HETATM   23  C   UNL     1      -7.671  10.320  67.580  1.00  0.00    -0.090 A  
HETATM   24  C   UNL     1      -7.781  11.405  66.737  1.00  0.00    -0.150 A  
BRANCH  20  25
HETATM   25  N   UNL     1     -10.898  10.297  69.423  1.00  0.00    -0.229 NA 
HETATM   26  C   UNL     1     -10.732   8.990  70.098  1.00  0.00    -0.233 C  
HETATM   27  C   UNL     1     -11.013   9.154  71.596  1.00  0.00    -0.445 C  
HETATM   28  C   UNL     1     -12.422   9.687  71.827  1.00  0.00    -0.487 C  
HETATM   29  C   UNL     1     -12.628  10.978  71.056  1.00  0.00    -0.512 C  
HETATM   30  C   UNL     1     -12.240  10.853  69.588  1.00  0.00    -0.283 C  
ENDBRANCH  20  25
ENDBRANCH  18  19
BRANCH  18  31
HETATM   31  C   UNL     1     -11.968  12.328  66.113  1.00  0.00    -0.323 C  
HETATM   32  C   UNL     1     -11.944  14.654  64.998  1.00  0.00    -0.364 C  
HETATM   33  C   UNL     1     -11.574  13.174  64.885  1.00  0.00    -0.356 C  
HETATM   34  C   UNL     1     -12.278  12.602  63.650  1.00  0.00    -0.624 C  
ENDBRANCH  18  31
ENDBRANCH  16  18
ENDBRANCH  13  14
ENDBRANCH  11  13
ENDBRANCH   3   4
ENDBRANCH   2   3
TORSDOF 8
ENDMDL
MODEL      139
REMARK 921   NORMALIZED FREE ENERGY PREDICTED BY IDOCK:   -5.18 KCAL/MOL
REMARK 922        TOTAL FREE ENERGY PREDICTED BY IDOCK:  -10.00 KCAL/MOL
REMARK 923 INTER-LIGAND FREE ENERGY PREDICTED BY IDOCK:   -7.18 KCAL/MOL
REMARK 924 INTRA-LIGAND FREE ENERGY PREDICTED BY IDOCK:   -2.83 KCAL/MOL
REMARK 927      BINDING AFFINITY PREDICTED BY RF-SCORE:    0.00 PKD
ROOT
HETATM    1  C   UNL     1     -10.862   6.268  66.796  1.00  0.00    -0.367 C  
HETATM    2  C   UNL     1      -9.854   7.391  66.693  1.00  0.00    -0.193 C  
ENDROOT
BRANCH   2   3
HETATM    3  O   UNL     1      -8.819   7.188  67.677  1.00  0.00    -0.121 OA 
BRANCH   3   4
HETATM    4  C   UNL     1      -8.431   8.325  68.341  1.00  0.00    -0.129 A  
HETATM    5  C   UNL     1      -8.685   8.428  69.718  1.00  0.00    -0.133 A  
HETATM    6  C   UNL     1      -8.349   9.620  70.386  1.00  0.00    -0.188 A  
HETATM    7  C   UNL     1      -9.325   7.358  70.552  1.00  0.00    -0.157 C  
HETATM    8  C   UNL     1      -7.771  10.688  69.703  1.00  0.00    -0.080 A  
HETATM    9  O   UNL     1      -9.613   7.525  71.731  1.00  0.00    -0.151 OA 
HETATM   10  O   UNL     1      -9.537   6.190  69.922  1.00  0.00    -0.156 OA 
HETATM   11  C   UNL     1      -7.491  10.579  68.337  1.00  0.00    -0.092 A  
HETATM   12  C   UNL     1      -7.787   9.382  67.678  1.00  0.00    -0.095 A  
BRANCH  11  13
HETATM   13  C   UNL     1      -6.879  11.726  67.574  1.00  0.00    -0.113 C  
BRANCH  13  14
HETATM   14  C   UNL     1      -7.185  13.081  68.180  1.00  0.00    -0.116 C  
HETATM   15  O   UNL     1      -6.305  13.711  68.763  1.00  0.00    -0.082 OA 
HETATM   16  N   UNL     1      -8.480  13.541  68.010  1.00  0.00    -0.165 N  
HETATM   17  H   UNL     1      -9.169  12.937  67.561  1.00  0.00     0.000 HD 
BRANCH  16  18
HETATM   18  C   UNL     1      -8.884  14.884  68.465  1.00  0.00    -0.174 C  
BRANCH  18  19
HETATM   19  C   UNL     1     -10.261  14.988  69.143  1.00  0.00    -0.241 A  
HETATM   20  C   UNL     1     -11.399  14.196  68.769  1.00  0.00    -0.278 A  
HETATM   21  C   UNL     1     -12.548  14.324  69.599  1.00  0.00    -0.095 A  
HETATM   22  C   UNL     1     -10.348  15.802  70.310  1.00  0.00    -0.159 A  
HETATM   23  C   UNL     1     -12.600  15.122  70.743  1.00  0.00    -0.452 A  
HETATM   24  C   UNL     1     -11.496  15.866  71.099  1.00  0.00    -0.471 A  
BRANCH  20  25
HETATM   25  N   UNL     1     -11.509  13.327  67.678  1.00  0.00    -0.302 NA 
HETATM   26  C   UNL     1     -11.839  13.848  66.332  1.00  0.00    -0.411 C  
HETATM   27  C   UNL     1     -10.888  13.229  65.302  1.00  0.00    -0.314 C  
HETATM   28  C   UNL     1     -10.991  11.708  65.314  1.00  0.00    -0.327 C  
HETATM   29  C   UNL     1     -10.749  11.178  66.714  1.00  0.00    -0.326 C  
HETATM   30  C   UNL     1     -11.611  11.870  67.762  1.00  0.00    -0.323 C  
ENDBRANCH  20  25
ENDBRANCH  18  19
BRANCH  18  31
HETATM   31  C   UNL     1      -8.810  15.928  67.333  1.00  0.00    -0.201 C  
HETATM   32  C   UNL     1      -7.373  17.688  68.555  1.00  0.00    -0.256 C  
HETATM   33  C   UNL     1      -7.553  16.821  67.307  1.00  0.00    -0.204 C  
HETATM   34  C   UNL     1      -7.637  17.750  66.091  1.00  0.00    -0.302 C  
ENDBRANCH  18  31
ENDBRANCH  16  18
ENDBRANCH  13  14
ENDBRANCH  11  13
ENDBRANCH   3   4
ENDBRANCH   2   3
TORSDOF 8
ENDMDL
MODEL      140
REMARK 921   NORMALIZED FREE ENERGY PREDICTED BY IDOCK:   -5.17 KCAL/MOL
REMARK 922        TOTAL FREE ENERGY PREDICTED BY IDOCK:   -9.98 KCAL/MOL
REMARK 923 INTER-LIGAND FREE ENERGY PREDICTED BY IDOCK:   -8.42 KCAL/MOL
REMARK 924 INTRA-LIGAND FREE ENERGY PREDICTED BY IDOCK:   -1.56 KCAL/MOL
REMARK 927      BINDING AFFINITY PREDICTED BY RF-SCORE:    0.00 PKD
ROOT
HETATM    1  C   UNL     1      -8.253   2.835  68.098  1.00  0.00    -0.082 C  
HETATM    2  C   UNL     1      -9.531   3.080  68.868  1.00  0.00    -0.105 C  
ENDROOT
BRANCH   2   3
HETATM    3  O   UNL     1      -9.245   3.927  70.000  1.00  0.00    -0.116 OA 
BRANCH   3   4
HETATM    4  C   UNL     1      -9.768   5.194  69.912  1.00  0.00    -0.199 A  
HETATM    5  C   UNL     1     -10.219   5.826  71.082  1.00  0.00    -0.275 A  
HETATM    6  C   UNL     1     -10.817   7.096  70.983  1.00  0.00    -0.262 A  
HETATM    7  C   UNL     1     -10.142   5.234  72.459  1.00  0.00    -0.181 C  
HETATM    8  C   UNL     1     -10.961   7.728  69.750  1.00  0.00    -0.162 A  
HETATM    9  O   UNL     1     -10.632   5.780  73.439  1.00  0.00    -0.226 OA 
HETATM   10  O   UNL     1      -9.471   4.073  72.546  1.00  0.00    -0.123 OA 
HETATM   11  C   UNL     1     -10.488   7.114  68.586  1.00  0.00    -0.218 A  
HETATM   12  C   UNL     1      -9.859   5.870  68.685  1.00  0.00    -0.170 A  
BRANCH  11  13
HETATM   13  C   UNL     1     -10.645   7.772  67.239  1.00  0.00    -0.376 C  
BRANCH  13  14
HETATM   14  C   UNL     1     -10.223   9.228  67.230  1.00  0.00    -0.252 C  
HETATM   15  O   UNL     1      -9.033   9.528  67.300  1.00  0.00    -0.130 OA 
HETATM   16  N   UNL     1     -11.248  10.153  67.119  1.00  0.00    -0.159 N  
HETATM   17  H   UNL     1     -12.215   9.830  67.119  1.00  0.00     0.000 HD 
BRANCH  16  18
HETATM   18  C   UNL     1     -10.969  11.596  67.001  1.00  0.00    -0.288 C  
BRANCH  18  19
HETATM   19  C   UNL     1     -11.146  12.431  68.281  1.00  0.00    -0.283 A  
HETATM   20  C   UNL     1     -10.676  13.780  68.428  1.00  0.00    -0.254 A  
HETATM   21  C   UNL     1     -11.054  14.445  69.627  1.00  0.00    -0.241 A  
HETATM   22  C   UNL     1     -11.965  11.877  69.307  1.00  0.00    -0.342 A  
HETATM   23  C   UNL     1     -11.867  13.880  70.611  1.00  0.00    -0.292 A  
HETATM   24  C   UNL     1     -12.323  12.590  70.452  1.00  0.00    -0.311 A  
BRANCH  20  25
HETATM   25  N   UNL     1      -9.881  14.506  67.533  1.00  0.00    -0.221 NA 
HETATM   26  C   UNL     1     -10.504  15.369  66.504  1.00  0.00    -0.294 C  
HETATM   27  C   UNL     1      -9.802  16.731  66.492  1.00  0.00    -0.303 C  
HETATM   28  C   UNL     1      -8.313  16.570  66.208  1.00  0.00    -0.364 C  
HETATM   29  C   UNL     1      -7.691  15.609  67.204  1.00  0.00    -0.258 C  
HETATM   30  C   UNL     1      -8.452  14.294  67.306  1.00  0.00    -0.210 C  
ENDBRANCH  20  25
ENDBRANCH  18  19
BRANCH  18  31
HETATM   31  C   UNL     1     -11.778  12.254  65.866  1.00  0.00    -0.451 C  
HETATM   32  C   UNL     1     -10.058  11.950  63.968  1.00  0.00    -0.361 C  
HETATM   33  C   UNL     1     -11.498  11.740  64.439  1.00  0.00    -0.349 C  
HETATM   34  C   UNL     1     -12.428  12.470  63.463  1.00  0.00    -0.561 C  
ENDBRANCH  18  31
ENDBRANCH  16  18
ENDBRANCH  13  14
ENDBRANCH  11  13
ENDBRANCH   3   4
ENDBRANCH   2   3
TORSDOF 8
ENDMDL
MODEL      141
REMARK 921   NORMALIZED FREE ENERGY PREDICTED BY IDOCK:   -5.15 KCAL/MOL
REMARK 922        TOTAL FREE ENERGY PREDICTED BY IDOCK:   -9.96 KCAL/MOL
REMARK 923 INTER-LIGAND FREE ENERGY PREDICTED BY IDOCK:   -7.41 KCAL/MOL
REMARK 924 INTRA-LIGAND FREE ENERGY PREDICTED BY IDOCK:   -2.55 KCAL/MOL
REMARK 927      BINDING AFFINITY PREDICTED BY RF-SCORE:    0.00 PKD
ROOT
HETATM    1  C   UNL     1      -7.844   4.060  71.379  1.00  0.00    -0.071 C  
HETATM    2  C   UNL     1      -9.314   3.997  71.028  1.00  0.00    -0.149 C  
ENDROOT
BRANCH   2   3
HETATM    3  O   UNL     1      -9.471   3.317  69.766  1.00  0.00    -0.164 OA 
BRANCH   3   4
HETATM    4  C   UNL     1      -9.368   4.127  68.663  1.00  0.00    -0.157 A  
HETATM    5  C   UNL     1      -8.400   3.832  67.689  1.00  0.00    -0.098 A  
HETATM    6  C   UNL     1      -8.249   4.701  66.593  1.00  0.00    -0.106 A  
HETATM    7  C   UNL     1      -7.472   2.654  67.736  1.00  0.00    -0.056 C  
HETATM    8  C   UNL     1      -9.043   5.838  66.463  1.00  0.00    -0.144 A  
HETATM    9  O   UNL     1      -6.580   2.485  66.914  1.00  0.00    -0.037 OA 
HETATM   10  O   UNL     1      -7.705   1.780  68.729  1.00  0.00    -0.046 OA 
HETATM   11  C   UNL     1     -10.027   6.121  67.416  1.00  0.00    -0.166 A  
HETATM   12  C   UNL     1     -10.206   5.239  68.486  1.00  0.00    -0.214 A  
BRANCH  11  13
HETATM   13  C   UNL     1     -10.888   7.353  67.304  1.00  0.00    -0.326 C  
BRANCH  13  14
HETATM   14  C   UNL     1     -10.292   8.567  67.989  1.00  0.00    -0.217 C  
HETATM   15  O   UNL     1      -9.074   8.661  68.130  1.00  0.00    -0.140 OA 
HETATM   16  N   UNL     1     -11.195   9.530  68.406  1.00  0.00    -0.489 N  
HETATM   17  H   UNL     1     -12.194   9.356  68.302  1.00  0.00     0.000 HD 
BRANCH  16  18
HETATM   18  C   UNL     1     -10.741  10.801  68.998  1.00  0.00    -0.228 C  
BRANCH  18  19
HETATM   19  C   UNL     1     -11.707  11.475  69.988  1.00  0.00    -0.414 A  
HETATM   20  C   UNL     1     -12.195  10.847  71.184  1.00  0.00    -0.336 A  
HETATM   21  C   UNL     1     -12.965  11.670  72.051  1.00  0.00    -0.365 A  
HETATM   22  C   UNL     1     -11.994  12.855  69.775  1.00  0.00    -0.365 A  
HETATM   23  C   UNL     1     -13.221  13.023  71.821  1.00  0.00    -0.486 A  
HETATM   24  C   UNL     1     -12.736  13.618  70.677  1.00  0.00    -0.303 A  
BRANCH  20  25
HETATM   25  N   UNL     1     -12.009   9.518  71.583  1.00  0.00    -0.384 NA 
HETATM   26  C   UNL     1     -13.165   8.684  71.982  1.00  0.00    -0.386 C  
HETATM   27  C   UNL     1     -13.067   7.319  71.293  1.00  0.00    -0.363 C  
HETATM   28  C   UNL     1     -11.764   6.618  71.663  1.00  0.00    -0.362 C  
HETATM   29  C   UNL     1     -10.580   7.512  71.344  1.00  0.00    -0.229 C  
HETATM   30  C   UNL     1     -10.725   8.910  71.930  1.00  0.00    -0.356 C  
ENDBRANCH  20  25
ENDBRANCH  18  19
BRANCH  18  31
HETATM   31  C   UNL     1     -10.336  11.831  67.925  1.00  0.00    -0.209 C  
HETATM   32  C   UNL     1      -7.957  12.338  68.786  1.00  0.00     0.025 C  
HETATM   33  C   UNL     1      -8.831  11.924  67.600  1.00  0.00    -0.169 C  
HETATM   34  C   UNL     1      -8.634  12.955  66.483  1.00  0.00     0.107 C  
ENDBRANCH  18  31
ENDBRANCH  16  18
ENDBRANCH  13  14
ENDBRANCH  11  13
ENDBRANCH   3   4
ENDBRANCH   2   3
TORSDOF 8
ENDMDL
MODEL      142
REMARK 921   NORMALIZED FREE ENERGY PREDICTED BY IDOCK:   -5.11 KCAL/MOL
REMARK 922        TOTAL FREE ENERGY PREDICTED BY IDOCK:   -9.90 KCAL/MOL
REMARK 923 INTER-LIGAND FREE ENERGY PREDICTED BY IDOCK:   -7.13 KCAL/MOL
REMARK 924 INTRA-LIGAND FREE ENERGY PREDICTED BY IDOCK:   -2.77 KCAL/MOL
REMARK 927      BINDING AFFINITY PREDICTED BY RF-SCORE:    0.00 PKD
ROOT
HETATM    1  C   UNL     1     -11.756  16.044  71.465  1.00  0.00    -0.554 C  
HETATM    2  C   UNL     1     -11.541  15.997  69.969  1.00  0.00    -0.312 C  
ENDROOT
BRANCH   2   3
HETATM    3  O   UNL     1     -10.467  16.894  69.617  1.00  0.00    -0.269 OA 
BRANCH   3   4
HETATM    4  C   UNL     1      -9.434  16.307  68.930  1.00  0.00    -0.252 A  
HETATM    5  C   UNL     1      -9.316  16.539  67.551  1.00  0.00    -0.218 A  
HETATM    6  C   UNL     1      -8.297  15.884  66.834  1.00  0.00    -0.281 A  
HETATM    7  C   UNL     1     -10.224  17.427  66.752  1.00  0.00    -0.318 C  
HETATM    8  C   UNL     1      -7.412  15.019  67.473  1.00  0.00    -0.226 A  
HETATM    9  O   UNL     1     -10.142  17.529  65.534  1.00  0.00    -0.576 OA 
HETATM   10  O   UNL     1     -11.119  18.127  67.470  1.00  0.00    -0.221 OA 
HETATM   11  C   UNL     1      -7.509  14.806  68.852  1.00  0.00    -0.137 A  
HETATM   12  C   UNL     1      -8.495  15.485  69.573  1.00  0.00    -0.211 A  
BRANCH  11  13
HETATM   13  C   UNL     1      -6.572  13.863  69.562  1.00  0.00    -0.097 C  
BRANCH  13  14
HETATM   14  C   UNL     1      -6.389  12.543  68.840  1.00  0.00    -0.086 C  
HETATM   15  O   UNL     1      -5.378  12.340  68.169  1.00  0.00    -0.053 OA 
HETATM   16  N   UNL     1      -7.402  11.615  69.011  1.00  0.00    -0.217 N  
HETATM   17  H   UNL     1      -8.234  11.876  69.540  1.00  0.00     0.000 HD 
BRANCH  16  18
HETATM   18  C   UNL     1      -7.303  10.257  68.445  1.00  0.00    -0.084 C  
BRANCH  18  19
HETATM   19  C   UNL     1      -7.607  10.123  66.942  1.00  0.00    -0.100 A  
HETATM   20  C   UNL     1      -8.802  10.619  66.320  1.00  0.00    -0.161 A  
HETATM   21  C   UNL     1      -8.848  10.533  64.901  1.00  0.00    -0.207 A  
HETATM   22  C   UNL     1      -6.562   9.620  66.113  1.00  0.00    -0.078 A  
HETATM   23  C   UNL     1      -7.804  10.046  64.114  1.00  0.00    -0.144 A  
HETATM   24  C   UNL     1      -6.657   9.585  64.722  1.00  0.00    -0.088 A  
BRANCH  20  25
HETATM   25  N   UNL     1      -9.926  11.164  66.951  1.00  0.00    -0.193 NA 
HETATM   26  C   UNL     1     -11.000  10.284  67.465  1.00  0.00    -0.280 C  
HETATM   27  C   UNL     1     -11.377  10.720  68.885  1.00  0.00    -0.349 C  
HETATM   28  C   UNL     1     -11.839  12.173  68.901  1.00  0.00    -0.358 C  
HETATM   29  C   UNL     1     -10.779  13.066  68.285  1.00  0.00    -0.261 C  
HETATM   30  C   UNL     1     -10.315  12.574  66.920  1.00  0.00    -0.229 C  
ENDBRANCH  20  25
ENDBRANCH  18  19
BRANCH  18  31
HETATM   31  C   UNL     1      -8.166   9.240  69.217  1.00  0.00    -0.108 C  
HETATM   32  C   UNL     1      -6.577   8.856  71.213  1.00  0.00    -0.080 C  
HETATM   33  C   UNL     1      -7.990   9.217  70.749  1.00  0.00    -0.192 C  
HETATM   34  C   UNL     1      -8.960   8.188  71.338  1.00  0.00    -0.188 C  
ENDBRANCH  18  31
ENDBRANCH  16  18
ENDBRANCH  13  14
ENDBRANCH  11  13
ENDBRANCH   3   4
ENDBRANCH   2   3
TORSDOF 8
ENDMDL
MODEL      143
REMARK 921   NORMALIZED FREE ENERGY PREDICTED BY IDOCK:   -5.11 KCAL/MOL
REMARK 922        TOTAL FREE ENERGY PREDICTED BY IDOCK:   -9.90 KCAL/MOL
REMARK 923 INTER-LIGAND FREE ENERGY PREDICTED BY IDOCK:   -8.91 KCAL/MOL
REMARK 924 INTRA-LIGAND FREE ENERGY PREDICTED BY IDOCK:   -0.98 KCAL/MOL
REMARK 927      BINDING AFFINITY PREDICTED BY RF-SCORE:    0.00 PKD
ROOT
HETATM    1  C   UNL     1     -11.267  11.361  67.558  1.00  0.00    -0.356 C  
HETATM    2  C   UNL     1     -10.480  10.877  68.754  1.00  0.00    -0.200 C  
ENDROOT
BRANCH   2   3
HETATM    3  O   UNL     1     -11.396  10.493  69.799  1.00  0.00    -0.257 OA 
BRANCH   3   4
HETATM    4  C   UNL     1     -11.969  11.544  70.472  1.00  0.00    -0.344 A  
HETATM    5  C   UNL     1     -12.890  11.276  71.496  1.00  0.00    -0.519 A  
HETATM    6  C   UNL     1     -13.529  12.352  72.139  1.00  0.00    -0.481 A  
HETATM    7  C   UNL     1     -13.281   9.902  71.956  1.00  0.00    -0.456 C  
HETATM    8  C   UNL     1     -13.257  13.669  71.774  1.00  0.00    -0.477 A  
HETATM    9  O   UNL     1     -14.158   9.711  72.790  1.00  0.00    -0.240 OA 
HETATM   10  O   UNL     1     -12.582   8.893  71.408  1.00  0.00    -0.308 OA 
HETATM   11  C   UNL     1     -12.320  13.942  70.773  1.00  0.00    -0.449 A  
HETATM   12  C   UNL     1     -11.655  12.877  70.159  1.00  0.00    -0.131 A  
BRANCH  11  13
HETATM   13  C   UNL     1     -12.020  15.358  70.352  1.00  0.00    -0.387 C  
BRANCH  13  14
HETATM   14  C   UNL     1     -11.773  15.501  68.862  1.00  0.00    -0.370 C  
HETATM   15  O   UNL     1     -12.288  14.712  68.071  1.00  0.00    -0.143 OA 
HETATM   16  N   UNL     1     -10.971  16.564  68.483  1.00  0.00    -0.347 N  
HETATM   17  H   UNL     1     -10.537  17.144  69.201  1.00  0.00     0.000 HD 
BRANCH  16  18
HETATM   18  C   UNL     1     -10.731  16.874  67.062  1.00  0.00    -0.153 C  
BRANCH  18  19
HETATM   19  C   UNL     1     -10.485  15.671  66.134  1.00  0.00    -0.327 A  
HETATM   20  C   UNL     1      -9.435  14.711  66.329  1.00  0.00    -0.293 A  
HETATM   21  C   UNL     1      -9.447  13.587  65.458  1.00  0.00     0.158 A  
HETATM   22  C   UNL     1     -11.461  15.420  65.127  1.00  0.00    -0.208 A  
HETATM   23  C   UNL     1     -10.423  13.363  64.486  1.00  0.00    -0.431 A  
HETATM   24  C   UNL     1     -11.434  14.284  64.318  1.00  0.00    -0.257 A  
BRANCH  20  25
HETATM   25  N   UNL     1      -8.398  14.764  67.268  1.00  0.00    -0.199 NA 
HETATM   26  C   UNL     1      -7.136  15.472  66.956  1.00  0.00    -0.037 C  
HETATM   27  C   UNL     1      -6.750  16.367  68.138  1.00  0.00    -0.138 C  
HETATM   28  C   UNL     1      -6.587  15.543  69.410  1.00  0.00    -0.158 C  
HETATM   29  C   UNL     1      -7.845  14.740  69.680  1.00  0.00     0.023 C  
HETATM   30  C   UNL     1      -8.301  13.936  68.470  1.00  0.00    -0.132 C  
ENDBRANCH  20  25
ENDBRANCH  18  19
BRANCH  18  31
HETATM   31  C   UNL     1      -9.584  17.886  66.872  1.00  0.00    -0.300 C  
HETATM   32  C   UNL     1     -10.883  20.029  67.487  1.00  0.00    -0.236 C  
HETATM   33  C   UNL     1      -9.647  19.162  67.737  1.00  0.00    -0.378 C  
HETATM   34  C   UNL     1      -8.405  20.012  67.449  1.00  0.00    -0.382 C  
ENDBRANCH  18  31
ENDBRANCH  16  18
ENDBRANCH  13  14
ENDBRANCH  11  13
ENDBRANCH   3   4
ENDBRANCH   2   3
TORSDOF 8
ENDMDL
MODEL      144
REMARK 921   NORMALIZED FREE ENERGY PREDICTED BY IDOCK:   -5.07 KCAL/MOL
REMARK 922        TOTAL FREE ENERGY PREDICTED BY IDOCK:   -9.83 KCAL/MOL
REMARK 923 INTER-LIGAND FREE ENERGY PREDICTED BY IDOCK:   -6.97 KCAL/MOL
REMARK 924 INTRA-LIGAND FREE ENERGY PREDICTED BY IDOCK:   -2.86 KCAL/MOL
REMARK 927      BINDING AFFINITY PREDICTED BY RF-SCORE:    0.00 PKD
ROOT
HETATM    1  C   UNL     1      -8.547   9.958  64.437  1.00  0.00    -0.197 C  
HETATM    2  C   UNL     1      -9.969  10.257  64.858  1.00  0.00    -0.323 C  
ENDROOT
BRANCH   2   3
HETATM    3  O   UNL     1     -10.197   9.712  66.174  1.00  0.00    -0.266 OA 
BRANCH   3   4
HETATM    4  C   UNL     1     -10.668  10.615  67.094  1.00  0.00    -0.272 A  
HETATM    5  C   UNL     1     -10.906  10.186  68.409  1.00  0.00    -0.284 A  
HETATM    6  C   UNL     1     -11.453  11.094  69.334  1.00  0.00    -0.368 A  
HETATM    7  C   UNL     1     -10.647   8.797  68.916  1.00  0.00    -0.155 C  
HETATM    8  C   UNL     1     -11.754  12.403  68.963  1.00  0.00    -0.372 A  
HETATM    9  O   UNL     1     -10.957   8.440  70.045  1.00  0.00    -0.244 OA 
HETATM   10  O   UNL     1     -10.025   7.979  68.051  1.00  0.00    -0.165 OA 
HETATM   11  C   UNL     1     -11.492  12.843  67.662  1.00  0.00    -0.383 A  
HETATM   12  C   UNL     1     -10.913  11.954  66.751  1.00  0.00    -0.337 A  
BRANCH  11  13
HETATM   13  C   UNL     1     -11.823  14.249  67.234  1.00  0.00    -0.444 C  
BRANCH  13  14
HETATM   14  C   UNL     1     -10.601  15.065  66.857  1.00  0.00    -0.297 C  
HETATM   15  O   UNL     1     -10.391  15.358  65.681  1.00  0.00    -0.316 OA 
HETATM   16  N   UNL     1      -9.787  15.453  67.907  1.00  0.00    -0.219 N  
HETATM   17  H   UNL     1      -9.997  15.126  68.850  1.00  0.00     0.000 HD 
BRANCH  16  18
HETATM   18  C   UNL     1      -8.621  16.329  67.691  1.00  0.00    -0.173 C  
BRANCH  18  19
HETATM   19  C   UNL     1      -7.481  16.212  68.717  1.00  0.00    -0.189 A  
HETATM   20  C   UNL     1      -6.759  14.998  68.976  1.00  0.00    -0.116 A  
HETATM   21  C   UNL     1      -5.644  15.110  69.852  1.00  0.00    -0.118 A  
HETATM   22  C   UNL     1      -7.021  17.422  69.315  1.00  0.00    -0.175 A  
HETATM   23  C   UNL     1      -5.211  16.311  70.415  1.00  0.00    -0.188 A  
HETATM   24  C   UNL     1      -5.903  17.472  70.148  1.00  0.00    -0.189 A  
BRANCH  20  25
HETATM   25  N   UNL     1      -7.037  13.720  68.476  1.00  0.00    -0.098 NA 
HETATM   26  C   UNL     1      -6.414  13.255  67.217  1.00  0.00     0.135 C  
HETATM   27  C   UNL     1      -5.864  11.838  67.417  1.00  0.00    -0.104 C  
HETATM   28  C   UNL     1      -6.974  10.881  67.837  1.00  0.00    -0.073 C  
HETATM   29  C   UNL     1      -7.679  11.406  69.073  1.00  0.00    -0.064 C  
HETATM   30  C   UNL     1      -8.127  12.854  68.923  1.00  0.00     0.212 C  
ENDBRANCH  20  25
ENDBRANCH  18  19
BRANCH  18  31
HETATM   31  C   UNL     1      -9.023  17.812  67.566  1.00  0.00    -0.244 C  
HETATM   32  C   UNL     1      -7.246  18.528  65.839  1.00  0.00    -0.265 C  
HETATM   33  C   UNL     1      -8.729  18.489  66.212  1.00  0.00    -0.219 C  
HETATM   34  C   UNL     1      -9.243  19.932  66.264  1.00  0.00    -0.457 C  
ENDBRANCH  18  31
ENDBRANCH  16  18
ENDBRANCH  13  14
ENDBRANCH  11  13
ENDBRANCH   3   4
ENDBRANCH   2   3
TORSDOF 8
ENDMDL
MODEL      145
REMARK 921   NORMALIZED FREE ENERGY PREDICTED BY IDOCK:   -5.05 KCAL/MOL
REMARK 922        TOTAL FREE ENERGY PREDICTED BY IDOCK:   -9.81 KCAL/MOL
REMARK 923 INTER-LIGAND FREE ENERGY PREDICTED BY IDOCK:   -7.85 KCAL/MOL
REMARK 924 INTRA-LIGAND FREE ENERGY PREDICTED BY IDOCK:   -1.97 KCAL/MOL
REMARK 927      BINDING AFFINITY PREDICTED BY RF-SCORE:    0.00 PKD
ROOT
HETATM    1  C   UNL     1      -9.364   5.963  67.651  1.00  0.00    -0.107 C  
HETATM    2  C   UNL     1     -10.803   6.022  68.111  1.00  0.00    -0.281 C  
ENDROOT
BRANCH   2   3
HETATM    3  O   UNL     1     -10.850   5.839  69.541  1.00  0.00    -0.325 OA 
BRANCH   3   4
HETATM    4  C   UNL     1     -10.978   7.000  70.262  1.00  0.00    -0.271 A  
HETATM    5  C   UNL     1     -10.973   6.934  71.665  1.00  0.00    -0.262 A  
HETATM    6  C   UNL     1     -11.173   8.115  72.404  1.00  0.00    -0.452 A  
HETATM    7  C   UNL     1     -10.797   5.674  72.461  1.00  0.00    -0.251 C  
HETATM    8  C   UNL     1     -11.369   9.337  71.765  1.00  0.00    -0.437 A  
HETATM    9  O   UNL     1     -10.893   5.648  73.682  1.00  0.00    -0.276 OA 
HETATM   10  O   UNL     1     -10.500   4.579  71.742  1.00  0.00    -0.152 OA 
HETATM   11  C   UNL     1     -11.347   9.412  70.368  1.00  0.00    -0.295 A  
HETATM   12  C   UNL     1     -11.111   8.248  69.632  1.00  0.00    -0.009 A  
BRANCH  11  13
HETATM   13  C   UNL     1     -11.572  10.720  69.655  1.00  0.00    -0.388 C  
BRANCH  13  14
HETATM   14  C   UNL     1     -10.436  11.099  68.724  1.00  0.00    -0.203 C  
HETATM   15  O   UNL     1      -9.878  12.188  68.841  1.00  0.00    -0.076 OA 
HETATM   16  N   UNL     1     -10.082  10.146  67.784  1.00  0.00    -0.171 N  
HETATM   17  H   UNL     1     -10.628   9.287  67.714  1.00  0.00     0.000 HD 
BRANCH  16  18
HETATM   18  C   UNL     1      -8.933  10.347  66.883  1.00  0.00    -0.139 C  
BRANCH  18  19
HETATM   19  C   UNL     1      -9.255  10.453  65.382  1.00  0.00    -0.233 A  
HETATM   20  C   UNL     1      -9.945  11.564  64.788  1.00  0.00    -0.260 A  
HETATM   21  C   UNL     1     -10.028  11.560  63.368  1.00  0.00    -0.445 A  
HETATM   22  C   UNL     1      -8.686   9.466  64.527  1.00  0.00    -0.233 A  
HETATM   23  C   UNL     1      -9.451  10.583  62.555  1.00  0.00    -0.288 A  
HETATM   24  C   UNL     1      -8.779   9.529  63.136  1.00  0.00    -0.234 A  
BRANCH  20  25
HETATM   25  N   UNL     1     -10.553  12.638  65.448  1.00  0.00    -0.276 NA 
HETATM   26  C   UNL     1      -9.736  13.745  65.994  1.00  0.00    -0.237 C  
HETATM   27  C   UNL     1     -10.365  15.085  65.594  1.00  0.00    -0.374 C  
HETATM   28  C   UNL     1     -11.796  15.186  66.110  1.00  0.00     0.097 C  
HETATM   29  C   UNL     1     -12.611  14.000  65.631  1.00  0.00    -0.542 C  
HETATM   30  C   UNL     1     -11.936  12.667  65.923  1.00  0.00    -0.438 C  
ENDBRANCH  20  25
ENDBRANCH  18  19
BRANCH  18  31
HETATM   31  C   UNL     1      -7.844   9.274  67.080  1.00  0.00    -0.099 C  
HETATM   32  C   UNL     1      -6.763  10.240  69.215  1.00  0.00    -0.063 C  
HETATM   33  C   UNL     1      -7.388   9.021  68.532  1.00  0.00    -0.077 C  
HETATM   34  C   UNL     1      -6.349   7.894  68.530  1.00  0.00    -0.048 C  
ENDBRANCH  18  31
ENDBRANCH  16  18
ENDBRANCH  13  14
ENDBRANCH  11  13
ENDBRANCH   3   4
ENDBRANCH   2   3
TORSDOF 8
ENDMDL
MODEL      146
REMARK 921   NORMALIZED FREE ENERGY PREDICTED BY IDOCK:   -5.05 KCAL/MOL
REMARK 922        TOTAL FREE ENERGY PREDICTED BY IDOCK:   -9.81 KCAL/MOL
REMARK 923 INTER-LIGAND FREE ENERGY PREDICTED BY IDOCK:   -7.77 KCAL/MOL
REMARK 924 INTRA-LIGAND FREE ENERGY PREDICTED BY IDOCK:   -2.04 KCAL/MOL
REMARK 927      BINDING AFFINITY PREDICTED BY RF-SCORE:    0.00 PKD
ROOT
HETATM    1  C   UNL     1      -7.658  16.148  69.136  1.00  0.00    -0.230 C  
HETATM    2  C   UNL     1      -7.361  14.753  68.633  1.00  0.00    -0.123 C  
ENDROOT
BRANCH   2   3
HETATM    3  O   UNL     1      -8.017  14.559  67.363  1.00  0.00    -0.177 OA 
BRANCH   3   4
HETATM    4  C   UNL     1      -9.340  14.203  67.452  1.00  0.00    -0.215 A  
HETATM    5  C   UNL     1     -10.292  14.942  66.731  1.00  0.00    -0.269 A  
HETATM    6  C   UNL     1     -11.655  14.621  66.875  1.00  0.00    -0.374 A  
HETATM    7  C   UNL     1      -9.973  16.091  65.820  1.00  0.00    -0.351 C  
HETATM    8  C   UNL     1     -12.064  13.587  67.713  1.00  0.00    -0.316 A  
HETATM    9  O   UNL     1     -10.842  16.767  65.283  1.00  0.00    -0.497 OA 
HETATM   10  O   UNL     1      -8.664  16.310  65.612  1.00  0.00    -0.329 OA 
HETATM   11  C   UNL     1     -11.117  12.831  68.412  1.00  0.00    -0.293 A  
HETATM   12  C   UNL     1      -9.761  13.122  68.242  1.00  0.00    -0.223 A  
BRANCH  11  13
HETATM   13  C   UNL     1     -11.537  11.717  69.336  1.00  0.00    -0.392 C  
BRANCH  13  14
HETATM   14  C   UNL     1     -11.180  10.338  68.815  1.00  0.00    -0.206 C  
HETATM   15  O   UNL     1     -11.545   9.986  67.695  1.00  0.00    -0.099 OA 
HETATM   16  N   UNL     1     -10.421   9.550  69.664  1.00  0.00    -0.211 N  
HETATM   17  H   UNL     1     -10.201   9.891  70.599  1.00  0.00     0.000 HD 
BRANCH  16  18
HETATM   18  C   UNL     1      -9.924   8.228  69.242  1.00  0.00    -0.192 C  
BRANCH  18  19
HETATM   19  C   UNL     1      -9.314   7.346  70.346  1.00  0.00    -0.161 A  
HETATM   20  C   UNL     1     -10.030   6.920  71.516  1.00  0.00    -0.177 A  
HETATM   21  C   UNL     1      -9.355   5.992  72.356  1.00  0.00    -0.150 A  
HETATM   22  C   UNL     1      -8.023   6.798  70.097  1.00  0.00    -0.112 A  
HETATM   23  C   UNL     1      -8.093   5.464  72.081  1.00  0.00    -0.111 A  
HETATM   24  C   UNL     1      -7.422   5.870  70.948  1.00  0.00    -0.091 A  
BRANCH  20  25
HETATM   25  N   UNL     1     -11.306   7.323  71.926  1.00  0.00    -0.247 NA 
HETATM   26  C   UNL     1     -11.474   8.496  72.813  1.00  0.00    -0.039 C  
HETATM   27  C   UNL     1     -12.589   9.392  72.262  1.00  0.00    -0.378 C  
HETATM   28  C   UNL     1     -13.901   8.622  72.159  1.00  0.00    -0.482 C  
HETATM   29  C   UNL     1     -13.707   7.366  71.330  1.00  0.00    -0.419 C  
HETATM   30  C   UNL     1     -12.527   6.527  71.802  1.00  0.00    -0.240 C  
ENDBRANCH  20  25
ENDBRANCH  18  19
BRANCH  18  31
HETATM   31  C   UNL     1      -8.918   8.329  68.078  1.00  0.00    -0.138 C  
HETATM   32  C   UNL     1      -9.628   6.204  66.798  1.00  0.00    -0.174 C  
HETATM   33  C   UNL     1      -9.360   7.709  66.737  1.00  0.00    -0.218 C  
HETATM   34  C   UNL     1      -8.259   7.953  65.698  1.00  0.00    -0.137 C  
ENDBRANCH  18  31
ENDBRANCH  16  18
ENDBRANCH  13  14
ENDBRANCH  11  13
ENDBRANCH   3   4
ENDBRANCH   2   3
TORSDOF 8
ENDMDL
MODEL      147
REMARK 921   NORMALIZED FREE ENERGY PREDICTED BY IDOCK:   -5.05 KCAL/MOL
REMARK 922        TOTAL FREE ENERGY PREDICTED BY IDOCK:   -9.80 KCAL/MOL
REMARK 923 INTER-LIGAND FREE ENERGY PREDICTED BY IDOCK:   -7.04 KCAL/MOL
REMARK 924 INTRA-LIGAND FREE ENERGY PREDICTED BY IDOCK:   -2.76 KCAL/MOL
REMARK 927      BINDING AFFINITY PREDICTED BY RF-SCORE:    0.00 PKD
ROOT
HETATM    1  C   UNL     1      -9.375   4.895  69.993  1.00  0.00    -0.207 C  
HETATM    2  C   UNL     1      -9.113   6.353  69.687  1.00  0.00    -0.143 C  
ENDROOT
BRANCH   2   3
HETATM    3  O   UNL     1      -7.754   6.674  70.048  1.00  0.00    -0.097 OA 
BRANCH   3   4
HETATM    4  C   UNL     1      -7.366   7.953  69.734  1.00  0.00    -0.078 A  
HETATM    5  C   UNL     1      -6.882   8.787  70.754  1.00  0.00    -0.056 A  
HETATM    6  C   UNL     1      -6.549  10.119  70.446  1.00  0.00    -0.132 A  
HETATM    7  C   UNL     1      -6.714   8.376  72.188  1.00  0.00    -0.085 C  
HETATM    8  C   UNL     1      -6.690  10.612  69.151  1.00  0.00    -0.073 A  
HETATM    9  O   UNL     1      -6.376   9.163  73.064  1.00  0.00    -0.311 OA 
HETATM   10  O   UNL     1      -6.932   7.074  72.440  1.00  0.00    -0.064 OA 
HETATM   11  C   UNL     1      -7.145   9.777  68.126  1.00  0.00    -0.078 A  
HETATM   12  C   UNL     1      -7.440   8.443  68.421  1.00  0.00    -0.095 A  
BRANCH  11  13
HETATM   13  C   UNL     1      -7.319  10.293  66.720  1.00  0.00    -0.106 C  
BRANCH  13  14
HETATM   14  C   UNL     1      -8.768  10.358  66.280  1.00  0.00    -0.153 C  
HETATM   15  O   UNL     1      -9.138   9.752  65.275  1.00  0.00    -0.179 OA 
HETATM   16  N   UNL     1      -9.610  11.109  67.083  1.00  0.00    -0.172 N  
HETATM   17  H   UNL     1      -9.220  11.627  67.870  1.00  0.00     0.000 HD 
BRANCH  16  18
HETATM   18  C   UNL     1     -11.060  11.176  66.823  1.00  0.00    -0.214 C  
BRANCH  18  19
HETATM   19  C   UNL     1     -11.512  12.165  65.733  1.00  0.00    -0.414 A  
HETATM   20  C   UNL     1     -11.210  13.568  65.752  1.00  0.00    -0.297 A  
HETATM   21  C   UNL     1     -11.585  14.302  64.593  1.00  0.00    -0.415 A  
HETATM   22  C   UNL     1     -12.121  11.612  64.570  1.00  0.00    -0.028 A  
HETATM   23  C   UNL     1     -12.171  13.731  63.462  1.00  0.00    -0.236 A  
HETATM   24  C   UNL     1     -12.443  12.380  63.451  1.00  0.00    -0.554 A  
BRANCH  20  25
HETATM   25  N   UNL     1     -10.603  14.294  66.783  1.00  0.00    -0.276 NA 
HETATM   26  C   UNL     1     -11.424  15.064  67.745  1.00  0.00    -0.334 C  
HETATM   27  C   UNL     1     -10.937  14.778  69.170  1.00  0.00    -0.277 C  
HETATM   28  C   UNL     1      -9.467  15.149  69.324  1.00  0.00    -0.212 C  
HETATM   29  C   UNL     1      -8.634  14.435  68.276  1.00  0.00    -0.170 C  
HETATM   30  C   UNL     1      -9.179  14.620  66.866  1.00  0.00    -0.249 C  
ENDBRANCH  20  25
ENDBRANCH  18  19
BRANCH  18  31
HETATM   31  C   UNL     1     -11.869  11.450  68.106  1.00  0.00    -0.288 C  
HETATM   32  C   UNL     1     -10.881   9.569  69.569  1.00  0.00    -0.243 C  
HETATM   33  C   UNL     1     -11.194  11.061  69.437  1.00  0.00    -0.332 C  
HETATM   34  C   UNL     1     -12.122  11.455  70.590  1.00  0.00    -0.469 C  
ENDBRANCH  18  31
ENDBRANCH  16  18
ENDBRANCH  13  14
ENDBRANCH  11  13
ENDBRANCH   3   4
ENDBRANCH   2   3
TORSDOF 8
ENDMDL
MODEL      148
REMARK 921   NORMALIZED FREE ENERGY PREDICTED BY IDOCK:   -5.01 KCAL/MOL
REMARK 922        TOTAL FREE ENERGY PREDICTED BY IDOCK:   -9.76 KCAL/MOL
REMARK 923 INTER-LIGAND FREE ENERGY PREDICTED BY IDOCK:   -8.59 KCAL/MOL
REMARK 924 INTRA-LIGAND FREE ENERGY PREDICTED BY IDOCK:   -1.16 KCAL/MOL
REMARK 927      BINDING AFFINITY PREDICTED BY RF-SCORE:    0.00 PKD
ROOT
HETATM    1  C   UNL     1     -12.265  12.114  63.481  1.00  0.00    -0.670 C  
HETATM    2  C   UNL     1     -10.761  12.231  63.386  1.00  0.00    -0.391 C  
ENDROOT
BRANCH   2   3
HETATM    3  O   UNL     1     -10.278  13.025  64.489  1.00  0.00    -0.354 OA 
BRANCH   3   4
HETATM    4  C   UNL     1     -10.684  12.593  65.727  1.00  0.00    -0.268 A  
HETATM    5  C   UNL     1     -11.082  13.542  66.682  1.00  0.00    -0.309 A  
HETATM    6  C   UNL     1     -11.433  13.104  67.972  1.00  0.00    -0.346 A  
HETATM    7  C   UNL     1     -11.137  15.023  66.445  1.00  0.00    -0.329 C  
HETATM    8  C   UNL     1     -11.395  11.753  68.307  1.00  0.00    -0.343 A  
HETATM    9  O   UNL     1     -11.401  15.822  67.334  1.00  0.00    -0.243 OA 
HETATM   10  O   UNL     1     -10.905  15.409  65.180  1.00  0.00    -0.378 OA 
HETATM   11  C   UNL     1     -11.026  10.801  67.351  1.00  0.00    -0.361 A  
HETATM   12  C   UNL     1     -10.713  11.229  66.057  1.00  0.00    -0.301 A  
BRANCH  11  13
HETATM   13  C   UNL     1     -10.962   9.335  67.694  1.00  0.00    -0.071 C  
BRANCH  13  14
HETATM   14  C   UNL     1     -10.490   9.071  69.111  1.00  0.00    -0.225 C  
HETATM   15  O   UNL     1      -9.639   9.794  69.624  1.00  0.00    -0.193 OA 
HETATM   16  N   UNL     1     -11.090   8.003  69.758  1.00  0.00    -0.433 N  
HETATM   17  H   UNL     1     -11.750   7.416  69.248  1.00  0.00     0.000 HD 
BRANCH  16  18
HETATM   18  C   UNL     1     -10.793   7.697  71.169  1.00  0.00    -0.235 C  
BRANCH  18  19
HETATM   19  C   UNL     1     -10.127   6.337  71.446  1.00  0.00    -0.222 A  
HETATM   20  C   UNL     1      -8.854   5.946  70.911  1.00  0.00    -0.138 A  
HETATM   21  C   UNL     1      -8.329   4.713  71.388  1.00  0.00    -0.108 A  
HETATM   22  C   UNL     1     -10.747   5.500  72.419  1.00  0.00    -0.286 A  
HETATM   23  C   UNL     1      -8.954   3.918  72.350  1.00  0.00    -0.134 A  
HETATM   24  C   UNL     1     -10.170   4.312  72.866  1.00  0.00    -0.227 A  
BRANCH  20  25
HETATM   25  N   UNL     1      -8.080   6.632  69.968  1.00  0.00    -0.119 NA 
HETATM   26  C   UNL     1      -7.236   7.777  70.377  1.00  0.00    -0.058 C  
HETATM   27  C   UNL     1      -5.841   7.625  69.759  1.00  0.00    -0.023 C  
HETATM   28  C   UNL     1      -5.928   7.557  68.238  1.00  0.00    -0.035 C  
HETATM   29  C   UNL     1      -6.871   6.445  67.817  1.00  0.00    -0.070 C  
HETATM   30  C   UNL     1      -8.222   6.523  68.516  1.00  0.00    -0.121 C  
ENDBRANCH  20  25
ENDBRANCH  18  19
BRANCH  18  31
HETATM   31  C   UNL     1     -12.038   7.830  72.068  1.00  0.00    -0.351 C  
HETATM   32  C   UNL     1     -12.690  10.244  71.432  1.00  0.00    -0.547 C  
HETATM   33  C   UNL     1     -13.140   8.788  71.572  1.00  0.00    -0.358 C  
HETATM   34  C   UNL     1     -14.309   8.746  72.563  1.00  0.00    -0.342 C  
ENDBRANCH  18  31
ENDBRANCH  16  18
ENDBRANCH  13  14
ENDBRANCH  11  13
ENDBRANCH   3   4
ENDBRANCH   2   3
TORSDOF 8
ENDMDL
MODEL      149
REMARK 921   NORMALIZED FREE ENERGY PREDICTED BY IDOCK:   -4.98 KCAL/MOL
REMARK 922        TOTAL FREE ENERGY PREDICTED BY IDOCK:   -9.70 KCAL/MOL
REMARK 923 INTER-LIGAND FREE ENERGY PREDICTED BY IDOCK:   -8.42 KCAL/MOL
REMARK 924 INTRA-LIGAND FREE ENERGY PREDICTED BY IDOCK:   -1.29 KCAL/MOL
REMARK 927      BINDING AFFINITY PREDICTED BY RF-SCORE:    0.00 PKD
ROOT
HETATM    1  C   UNL     1      -7.373  16.015  68.642  1.00  0.00    -0.159 C  
HETATM    2  C   UNL     1      -7.124  15.787  67.168  1.00  0.00    -0.190 C  
ENDROOT
BRANCH   2   3
HETATM    3  O   UNL     1      -8.390  15.719  66.480  1.00  0.00    -0.272 OA 
BRANCH   3   4
HETATM    4  C   UNL     1      -9.474  15.510  67.295  1.00  0.00    -0.213 A  
HETATM    5  C   UNL     1     -10.368  16.568  67.522  1.00  0.00    -0.294 A  
HETATM    6  C   UNL     1     -11.441  16.375  68.412  1.00  0.00    -0.181 A  
HETATM    7  C   UNL     1     -10.257  17.930  66.901  1.00  0.00    -0.358 C  
HETATM    8  C   UNL     1     -11.625  15.157  69.061  1.00  0.00    -0.350 A  
HETATM    9  O   UNL     1     -11.006  18.852  67.198  1.00  0.00    -0.410 OA 
HETATM   10  O   UNL     1      -9.294  18.060  65.974  1.00  0.00    -0.505 OA 
HETATM   11  C   UNL     1     -10.752  14.092  68.817  1.00  0.00    -0.272 A  
HETATM   12  C   UNL     1      -9.708  14.267  67.905  1.00  0.00    -0.222 A  
BRANCH  11  13
HETATM   13  C   UNL     1     -10.923  12.769  69.519  1.00  0.00     0.048 C  
BRANCH  13  14
HETATM   14  C   UNL     1     -11.235  11.624  68.575  1.00  0.00    -0.256 C  
HETATM   15  O   UNL     1     -12.387  11.205  68.470  1.00  0.00    -0.561 OA 
HETATM   16  N   UNL     1     -10.163  11.126  67.855  1.00  0.00    -0.176 N  
HETATM   17  H   UNL     1      -9.227  11.489  68.035  1.00  0.00     0.000 HD 
BRANCH  16  18
HETATM   18  C   UNL     1     -10.346  10.080  66.832  1.00  0.00    -0.234 C  
BRANCH  18  19
HETATM   19  C   UNL     1      -9.493   8.809  66.997  1.00  0.00    -0.218 A  
HETATM   20  C   UNL     1      -9.402   8.060  68.219  1.00  0.00    -0.140 A  
HETATM   21  C   UNL     1      -8.682   6.835  68.147  1.00  0.00    -0.122 A  
HETATM   22  C   UNL     1      -8.899   8.271  65.819  1.00  0.00    -0.194 A  
HETATM   23  C   UNL     1      -8.119   6.328  66.975  1.00  0.00    -0.109 A  
HETATM   24  C   UNL     1      -8.225   7.050  65.805  1.00  0.00    -0.132 A  
BRANCH  20  25
HETATM   25  N   UNL     1      -9.928   8.404  69.469  1.00  0.00    -0.186 NA 
HETATM   26  C   UNL     1     -11.372   8.232  69.750  1.00  0.00     0.142 C  
HETATM   27  C   UNL     1     -11.545   7.548  71.111  1.00  0.00    -0.304 C  
HETATM   28  C   UNL     1     -10.891   8.369  72.216  1.00  0.00    -0.422 C  
HETATM   29  C   UNL     1      -9.434   8.631  71.883  1.00  0.00    -0.369 C  
HETATM   30  C   UNL     1      -9.245   9.204  70.485  1.00  0.00    -0.241 C  
ENDBRANCH  20  25
ENDBRANCH  18  19
BRANCH  18  31
HETATM   31  C   UNL     1     -10.152  10.623  65.403  1.00  0.00    -0.356 C  
HETATM   32  C   UNL     1     -12.074  12.343  65.403  1.00  0.00    -0.428 C  
HETATM   33  C   UNL     1     -10.586  12.083  65.161  1.00  0.00    -0.330 C  
HETATM   34  C   UNL     1     -10.269  12.454  63.708  1.00  0.00    -0.404 C  
ENDBRANCH  18  31
ENDBRANCH  16  18
ENDBRANCH  13  14
ENDBRANCH  11  13
ENDBRANCH   3   4
ENDBRANCH   2   3
TORSDOF 8
ENDMDL
MODEL      150
REMARK 921   NORMALIZED FREE ENERGY PREDICTED BY IDOCK:   -4.96 KCAL/MOL
REMARK 922        TOTAL FREE ENERGY PREDICTED BY IDOCK:   -9.68 KCAL/MOL
REMARK 923 INTER-LIGAND FREE ENERGY PREDICTED BY IDOCK:   -7.46 KCAL/MOL
REMARK 924 INTRA-LIGAND FREE ENERGY PREDICTED BY IDOCK:   -2.22 KCAL/MOL
REMARK 927      BINDING AFFINITY PREDICTED BY RF-SCORE:    0.00 PKD
ROOT
HETATM    1  C   UNL     1     -12.125   6.635  70.806  1.00  0.00    -0.364 C  
HETATM    2  C   UNL     1     -11.410   6.456  69.486  1.00  0.00    -0.393 C  
ENDROOT
BRANCH   2   3
HETATM    3  O   UNL     1     -10.194   5.712  69.704  1.00  0.00    -0.204 OA 
BRANCH   3   4
HETATM    4  C   UNL     1      -9.076   6.486  69.891  1.00  0.00    -0.143 A  
HETATM    5  C   UNL     1      -8.258   6.244  71.006  1.00  0.00    -0.123 A  
HETATM    6  C   UNL     1      -7.150   7.081  71.234  1.00  0.00    -0.073 A  
HETATM    7  C   UNL     1      -8.488   5.157  72.015  1.00  0.00    -0.126 C  
HETATM    8  C   UNL     1      -6.858   8.136  70.372  1.00  0.00    -0.037 A  
HETATM    9  O   UNL     1      -7.804   5.039  73.023  1.00  0.00    -0.095 OA 
HETATM   10  O   UNL     1      -9.483   4.303  71.721  1.00  0.00    -0.130 OA 
HETATM   11  C   UNL     1      -7.654   8.364  69.245  1.00  0.00    -0.089 A  
HETATM   12  C   UNL     1      -8.732   7.511  68.994  1.00  0.00    -0.136 A  
BRANCH  11  13
HETATM   13  C   UNL     1      -7.365   9.507  68.306  1.00  0.00    -0.077 C  
BRANCH  13  14
HETATM   14  C   UNL     1      -8.244  10.719  68.548  1.00  0.00    -0.136 C  
HETATM   15  O   UNL     1      -7.746  11.783  68.909  1.00  0.00    -0.116 OA 
HETATM   16  N   UNL     1      -9.598  10.538  68.317  1.00  0.00    -0.154 N  
HETATM   17  H   UNL     1      -9.943   9.611  68.070  1.00  0.00     0.000 HD 
BRANCH  16  18
HETATM   18  C   UNL     1     -10.549  11.660  68.420  1.00  0.00    -0.211 C  
BRANCH  18  19
HETATM   19  C   UNL     1     -11.403  11.713  69.700  1.00  0.00    -0.308 A  
HETATM   20  C   UNL     1     -11.962  12.922  70.238  1.00  0.00    -0.283 A  
HETATM   21  C   UNL     1     -12.841  12.762  71.345  1.00  0.00    -0.371 A  
HETATM   22  C   UNL     1     -11.783  10.467  70.277  1.00  0.00    -0.420 A  
HETATM   23  C   UNL     1     -13.204  11.526  71.883  1.00  0.00    -0.479 A  
HETATM   24  C   UNL     1     -12.671  10.373  71.348  1.00  0.00    -0.551 A  
BRANCH  20  25
HETATM   25  N   UNL     1     -11.730  14.232  69.807  1.00  0.00    -0.292 NA 
HETATM   26  C   UNL     1     -11.006  15.192  70.671  1.00  0.00    -0.225 C  
HETATM   27  C   UNL     1      -9.942  15.918  69.841  1.00  0.00    -0.143 C  
HETATM   28  C   UNL     1     -10.580  16.651  68.665  1.00  0.00    -0.337 C  
HETATM   29  C   UNL     1     -11.403  15.688  67.832  1.00  0.00    -0.302 C  
HETATM   30  C   UNL     1     -12.385  14.877  68.668  1.00  0.00     0.058 C  
ENDBRANCH  20  25
ENDBRANCH  18  19
BRANCH  18  31
HETATM   31  C   UNL     1     -11.485  11.743  67.198  1.00  0.00    -0.366 C  
HETATM   32  C   UNL     1      -9.984  13.201  65.689  1.00  0.00    -0.237 C  
HETATM   33  C   UNL     1     -10.804  11.916  65.825  1.00  0.00    -0.341 C  
HETATM   34  C   UNL     1     -11.886  11.925  64.740  1.00  0.00    -0.259 C  
ENDBRANCH  18  31
ENDBRANCH  16  18
ENDBRANCH  13  14
ENDBRANCH  11  13
ENDBRANCH   3   4
ENDBRANCH   2   3
TORSDOF 8
ENDMDL
MODEL      151
REMARK 921   NORMALIZED FREE ENERGY PREDICTED BY IDOCK:   -4.96 KCAL/MOL
REMARK 922        TOTAL FREE ENERGY PREDICTED BY IDOCK:   -9.68 KCAL/MOL
REMARK 923 INTER-LIGAND FREE ENERGY PREDICTED BY IDOCK:   -7.66 KCAL/MOL
REMARK 924 INTRA-LIGAND FREE ENERGY PREDICTED BY IDOCK:   -2.02 KCAL/MOL
REMARK 927      BINDING AFFINITY PREDICTED BY RF-SCORE:    0.00 PKD
ROOT
HETATM    1  C   UNL     1     -13.867  15.278  71.502  1.00  0.00    -0.617 C  
HETATM    2  C   UNL     1     -12.428  14.971  71.153  1.00  0.00    -0.334 C  
ENDROOT
BRANCH   2   3
HETATM    3  O   UNL     1     -12.136  15.500  69.843  1.00  0.00    -0.341 OA 
BRANCH   3   4
HETATM    4  C   UNL     1     -11.578  14.596  68.973  1.00  0.00    -0.298 A  
HETATM    5  C   UNL     1     -10.754  15.068  67.939  1.00  0.00    -0.268 A  
HETATM    6  C   UNL     1     -10.236  14.149  67.007  1.00  0.00    -0.260 A  
HETATM    7  C   UNL     1     -10.392  16.508  67.722  1.00  0.00    -0.291 C  
HETATM    8  C   UNL     1     -10.528  12.790  67.100  1.00  0.00    -0.240 A  
HETATM    9  O   UNL     1      -9.746  16.886  66.753  1.00  0.00    -0.246 OA 
HETATM   10  O   UNL     1     -10.804  17.353  68.682  1.00  0.00    -0.288 OA 
HETATM   11  C   UNL     1     -11.326  12.313  68.145  1.00  0.00    -0.349 A  
HETATM   12  C   UNL     1     -11.810  13.217  69.095  1.00  0.00    -0.378 A  
BRANCH  11  13
HETATM   13  C   UNL     1     -11.667  10.849  68.258  1.00  0.00    -0.259 C  
BRANCH  13  14
HETATM   14  C   UNL     1     -10.454   9.965  68.473  1.00  0.00    -0.205 C  
HETATM   15  O   UNL     1      -9.862   9.483  67.510  1.00  0.00    -0.153 OA 
HETATM   16  N   UNL     1     -10.072   9.773  69.790  1.00  0.00    -0.223 N  
HETATM   17  H   UNL     1     -10.645  10.163  70.539  1.00  0.00     0.000 HD 
BRANCH  16  18
HETATM   18  C   UNL     1      -8.854   9.016  70.133  1.00  0.00    -0.182 C  
BRANCH  18  19
HETATM   19  C   UNL     1      -8.992   7.980  71.263  1.00  0.00    -0.166 A  
HETATM   20  C   UNL     1      -9.282   6.591  71.043  1.00  0.00    -0.160 A  
HETATM   21  C   UNL     1      -9.230   5.754  72.192  1.00  0.00    -0.154 A  
HETATM   22  C   UNL     1      -8.648   8.407  72.578  1.00  0.00    -0.253 A  
HETATM   23  C   UNL     1      -8.880   6.199  73.467  1.00  0.00    -0.124 A  
HETATM   24  C   UNL     1      -8.590   7.532  73.663  1.00  0.00    -0.242 A  
BRANCH  20  25
HETATM   25  N   UNL     1      -9.621   5.974  69.833  1.00  0.00    -0.156 NA 
HETATM   26  C   UNL     1     -11.035   5.886  69.405  1.00  0.00    -0.350 C  
HETATM   27  C   UNL     1     -11.146   6.305  67.934  1.00  0.00    -0.360 C  
HETATM   28  C   UNL     1     -10.276   5.417  67.052  1.00  0.00    -0.274 C  
HETATM   29  C   UNL     1      -8.843   5.428  67.549  1.00  0.00    -0.105 C  
HETATM   30  C   UNL     1      -8.734   5.126  69.037  1.00  0.00    -0.092 C  
ENDBRANCH  20  25
ENDBRANCH  18  19
BRANCH  18  31
HETATM   31  C   UNL     1      -7.665   9.943  70.455  1.00  0.00    -0.094 C  
HETATM   32  C   UNL     1      -6.104   9.210  68.535  1.00  0.00    -0.045 C  
HETATM   33  C   UNL     1      -6.789  10.371  69.259  1.00  0.00    -0.073 C  
HETATM   34  C   UNL     1      -5.700  11.323  69.766  1.00  0.00    -0.077 C  
ENDBRANCH  18  31
ENDBRANCH  16  18
ENDBRANCH  13  14
ENDBRANCH  11  13
ENDBRANCH   3   4
ENDBRANCH   2   3
TORSDOF 8
ENDMDL
MODEL      152
REMARK 921   NORMALIZED FREE ENERGY PREDICTED BY IDOCK:   -4.95 KCAL/MOL
REMARK 922        TOTAL FREE ENERGY PREDICTED BY IDOCK:   -9.66 KCAL/MOL
REMARK 923 INTER-LIGAND FREE ENERGY PREDICTED BY IDOCK:   -7.77 KCAL/MOL
REMARK 924 INTRA-LIGAND FREE ENERGY PREDICTED BY IDOCK:   -1.89 KCAL/MOL
REMARK 927      BINDING AFFINITY PREDICTED BY RF-SCORE:    0.00 PKD
ROOT
HETATM    1  C   UNL     1     -10.793   5.203  66.126  1.00  0.00    -0.163 C  
HETATM    2  C   UNL     1     -10.213   4.861  67.480  1.00  0.00    -0.096 C  
ENDROOT
BRANCH   2   3
HETATM    3  O   UNL     1     -10.757   5.761  68.468  1.00  0.00    -0.236 OA 
BRANCH   3   4
HETATM    4  C   UNL     1      -9.932   6.803  68.809  1.00  0.00    -0.147 A  
HETATM    5  C   UNL     1      -9.666   7.045  70.165  1.00  0.00    -0.176 A  
HETATM    6  C   UNL     1      -8.875   8.155  70.518  1.00  0.00    -0.144 A  
HETATM    7  C   UNL     1     -10.190   6.216  71.301  1.00  0.00    -0.207 C  
HETATM    8  C   UNL     1      -8.356   9.005  69.544  1.00  0.00    -0.117 A  
HETATM    9  O   UNL     1     -10.010   6.517  72.474  1.00  0.00    -0.170 OA 
HETATM   10  O   UNL     1     -10.849   5.102  70.941  1.00  0.00    -0.127 OA 
HETATM   11  C   UNL     1      -8.596   8.752  68.190  1.00  0.00    -0.134 A  
HETATM   12  C   UNL     1      -9.348   7.629  67.834  1.00  0.00    -0.146 A  
BRANCH  11  13
HETATM   13  C   UNL     1      -8.057   9.666  67.119  1.00  0.00    -0.110 C  
BRANCH  13  14
HETATM   14  C   UNL     1      -8.641  11.064  67.174  1.00  0.00    -0.136 C  
HETATM   15  O   UNL     1      -7.899  12.045  67.167  1.00  0.00    -0.161 OA 
HETATM   16  N   UNL     1     -10.023  11.141  67.211  1.00  0.00    -0.182 N  
HETATM   17  H   UNL     1     -10.570  10.282  67.268  1.00  0.00     0.000 HD 
BRANCH  16  18
HETATM   18  C   UNL     1     -10.720  12.439  67.169  1.00  0.00    -0.235 C  
BRANCH  18  19
HETATM   19  C   UNL     1     -11.213  12.992  68.518  1.00  0.00    -0.309 A  
HETATM   20  C   UNL     1     -11.053  14.359  68.929  1.00  0.00    -0.259 A  
HETATM   21  C   UNL     1     -11.696  14.724  70.144  1.00  0.00    -0.352 A  
HETATM   22  C   UNL     1     -12.012  12.126  69.319  1.00  0.00    -0.318 A  
HETATM   23  C   UNL     1     -12.482  13.855  70.903  1.00  0.00    -0.447 A  
HETATM   24  C   UNL     1     -12.639  12.550  70.491  1.00  0.00    -0.177 A  
BRANCH  20  25
HETATM   25  N   UNL     1     -10.329  15.364  68.277  1.00  0.00    -0.234 NA 
HETATM   26  C   UNL     1      -8.849  15.346  68.280  1.00  0.00    -0.176 C  
HETATM   27  C   UNL     1      -8.336  15.605  66.859  1.00  0.00    -0.287 C  
HETATM   28  C   UNL     1      -8.842  16.945  66.338  1.00  0.00    -0.322 C  
HETATM   29  C   UNL     1     -10.355  17.004  66.425  1.00  0.00    -0.304 C  
HETATM   30  C   UNL     1     -10.879  16.634  67.806  1.00  0.00    -0.292 C  
ENDBRANCH  20  25
ENDBRANCH  18  19
BRANCH  18  31
HETATM   31  C   UNL     1     -11.899  12.435  66.176  1.00  0.00    -0.442 C  
HETATM   32  C   UNL     1     -10.565  12.924  64.023  1.00  0.00    -0.418 C  
HETATM   33  C   UNL     1     -11.573  12.014  64.728  1.00  0.00    -0.344 C  
HETATM   34  C   UNL     1     -12.870  12.021  63.912  1.00  0.00    -0.400 C  
ENDBRANCH  18  31
ENDBRANCH  16  18
ENDBRANCH  13  14
ENDBRANCH  11  13
ENDBRANCH   3   4
ENDBRANCH   2   3
TORSDOF 8
ENDMDL
MODEL      153
REMARK 921   NORMALIZED FREE ENERGY PREDICTED BY IDOCK:   -4.95 KCAL/MOL
REMARK 922        TOTAL FREE ENERGY PREDICTED BY IDOCK:   -9.66 KCAL/MOL
REMARK 923 INTER-LIGAND FREE ENERGY PREDICTED BY IDOCK:   -8.34 KCAL/MOL
REMARK 924 INTRA-LIGAND FREE ENERGY PREDICTED BY IDOCK:   -1.31 KCAL/MOL
REMARK 927      BINDING AFFINITY PREDICTED BY RF-SCORE:    0.00 PKD
ROOT
HETATM    1  C   UNL     1      -5.177  10.597  63.812  1.00  0.00    -0.156 C  
HETATM    2  C   UNL     1      -5.848   9.718  64.844  1.00  0.00    -0.085 C  
ENDROOT
BRANCH   2   3
HETATM    3  O   UNL     1      -7.254  10.033  64.890  1.00  0.00    -0.131 OA 
BRANCH   3   4
HETATM    4  C   UNL     1      -7.722  10.380  66.133  1.00  0.00    -0.129 A  
HETATM    5  C   UNL     1      -8.739   9.609  66.718  1.00  0.00    -0.144 A  
HETATM    6  C   UNL     1      -9.266  10.005  67.961  1.00  0.00    -0.139 A  
HETATM    7  C   UNL     1      -9.346   8.384  66.100  1.00  0.00    -0.201 C  
HETATM    8  C   UNL     1      -8.791  11.141  68.613  1.00  0.00    -0.155 A  
HETATM    9  O   UNL     1     -10.295   7.794  66.601  1.00  0.00    -0.281 OA 
HETATM   10  O   UNL     1      -8.757   7.961  64.969  1.00  0.00    -0.051 OA 
HETATM   11  C   UNL     1      -7.759  11.896  68.048  1.00  0.00    -0.132 A  
HETATM   12  C   UNL     1      -7.207  11.484  66.831  1.00  0.00    -0.137 A  
BRANCH  11  13
HETATM   13  C   UNL     1      -7.239  13.137  68.727  1.00  0.00    -0.085 C  
BRANCH  13  14
HETATM   14  C   UNL     1      -8.251  14.265  68.772  1.00  0.00    -0.102 C  
HETATM   15  O   UNL     1      -7.873  15.434  68.835  1.00  0.00    -0.148 OA 
HETATM   16  N   UNL     1      -9.582  13.886  68.717  1.00  0.00    -0.390 N  
HETATM   17  H   UNL     1      -9.819  12.894  68.719  1.00  0.00     0.000 HD 
BRANCH  16  18
HETATM   18  C   UNL     1     -10.663  14.887  68.654  1.00  0.00    -0.250 C  
BRANCH  18  19
HETATM   19  C   UNL     1     -10.546  15.947  67.545  1.00  0.00    -0.315 A  
HETATM   20  C   UNL     1     -10.795  15.683  66.156  1.00  0.00    -0.264 A  
HETATM   21  C   UNL     1     -10.778  16.814  65.293  1.00  0.00    -0.183 A  
HETATM   22  C   UNL     1     -10.337  17.295  67.958  1.00  0.00    -0.353 A  
HETATM   23  C   UNL     1     -10.581  18.126  65.729  1.00  0.00    -0.186 A  
HETATM   24  C   UNL     1     -10.357  18.368  67.067  1.00  0.00    -0.419 A  
BRANCH  20  25
HETATM   25  N   UNL     1     -11.038  14.442  65.556  1.00  0.00    -0.314 NA 
HETATM   26  C   UNL     1     -12.414  14.046  65.179  1.00  0.00    -0.452 C  
HETATM   27  C   UNL     1     -12.405  13.477  63.756  1.00  0.00    -0.392 C  
HETATM   28  C   UNL     1     -11.470  12.277  63.659  1.00  0.00    -0.572 C  
HETATM   29  C   UNL     1     -10.081  12.655  64.137  1.00  0.00    -0.293 C  
HETATM   30  C   UNL     1     -10.093  13.327  65.504  1.00  0.00    -0.263 C  
ENDBRANCH  20  25
ENDBRANCH  18  19
BRANCH  18  31
HETATM   31  C   UNL     1     -10.871  15.603  70.003  1.00  0.00    -0.340 C  
HETATM   32  C   UNL     1     -13.032  14.394  70.728  1.00  0.00    -0.388 C  
HETATM   33  C   UNL     1     -11.604  14.801  71.098  1.00  0.00    -0.320 C  
HETATM   34  C   UNL     1     -11.668  15.653  72.370  1.00  0.00    -0.574 C  
ENDBRANCH  18  31
ENDBRANCH  16  18
ENDBRANCH  13  14
ENDBRANCH  11  13
ENDBRANCH   3   4
ENDBRANCH   2   3
TORSDOF 8
ENDMDL
MODEL      154
REMARK 921   NORMALIZED FREE ENERGY PREDICTED BY IDOCK:   -4.93 KCAL/MOL
REMARK 922        TOTAL FREE ENERGY PREDICTED BY IDOCK:   -9.63 KCAL/MOL
REMARK 923 INTER-LIGAND FREE ENERGY PREDICTED BY IDOCK:   -7.64 KCAL/MOL
REMARK 924 INTRA-LIGAND FREE ENERGY PREDICTED BY IDOCK:   -1.99 KCAL/MOL
REMARK 927      BINDING AFFINITY PREDICTED BY RF-SCORE:    0.00 PKD
ROOT
HETATM    1  C   UNL     1     -12.409  16.269  73.758  1.00  0.00    -0.638 C  
HETATM    2  C   UNL     1     -12.830  15.257  72.716  1.00  0.00    -0.413 C  
ENDROOT
BRANCH   2   3
HETATM    3  O   UNL     1     -12.078  15.482  71.506  1.00  0.00    -0.319 OA 
BRANCH   3   4
HETATM    4  C   UNL     1     -11.981  14.390  70.681  1.00  0.00    -0.323 A  
HETATM    5  C   UNL     1     -11.577  14.576  69.350  1.00  0.00    -0.343 A  
HETATM    6  C   UNL     1     -11.544  13.466  68.485  1.00  0.00    -0.368 A  
HETATM    7  C   UNL     1     -11.196  15.898  68.748  1.00  0.00    -0.359 C  
HETATM    8  C   UNL     1     -11.900  12.197  68.933  1.00  0.00    -0.358 A  
HETATM    9  O   UNL     1     -10.940  16.030  67.558  1.00  0.00    -0.321 OA 
HETATM   10  O   UNL     1     -11.129  16.923  69.614  1.00  0.00    -0.152 OA 
HETATM   11  C   UNL     1     -12.277  12.001  70.266  1.00  0.00    -0.348 A  
HETATM   12  C   UNL     1     -12.274  13.095  71.137  1.00  0.00    -0.171 A  
BRANCH  11  13
HETATM   13  C   UNL     1     -12.681  10.640  70.770  1.00  0.00    -0.468 C  
BRANCH  13  14
HETATM   14  C   UNL     1     -11.503   9.713  71.005  1.00  0.00    -0.371 C  
HETATM   15  O   UNL     1     -11.351   9.172  72.099  1.00  0.00    -0.330 OA 
HETATM   16  N   UNL     1     -10.661   9.520  69.923  1.00  0.00    -0.225 N  
HETATM   17  H   UNL     1     -10.823  10.046  69.064  1.00  0.00     0.000 HD 
BRANCH  16  18
HETATM   18  C   UNL     1      -9.536   8.570  69.987  1.00  0.00    -0.164 C  
BRANCH  18  19
HETATM   19  C   UNL     1      -8.126   9.186  70.029  1.00  0.00    -0.130 A  
HETATM   20  C   UNL     1      -6.936   8.441  70.334  1.00  0.00    -0.037 A  
HETATM   21  C   UNL     1      -5.707   9.142  70.186  1.00  0.00    -0.031 A  
HETATM   22  C   UNL     1      -7.994  10.531  69.579  1.00  0.00    -0.119 A  
HETATM   23  C   UNL     1      -5.608  10.458  69.733  1.00  0.00    -0.040 A  
HETATM   24  C   UNL     1      -6.756  11.157  69.430  1.00  0.00    -0.120 A  
BRANCH  20  25
HETATM   25  N   UNL     1      -6.852   7.114  70.771  1.00  0.00    -0.053 NA 
HETATM   26  C   UNL     1      -6.971   6.788  72.210  1.00  0.00    -0.067 C  
HETATM   27  C   UNL     1      -7.936   5.610  72.384  1.00  0.00    -0.103 C  
HETATM   28  C   UNL     1      -7.449   4.391  71.609  1.00  0.00    -0.069 C  
HETATM   29  C   UNL     1      -7.232   4.749  70.151  1.00  0.00    -0.050 C  
HETATM   30  C   UNL     1      -6.366   5.989  69.973  1.00  0.00    -0.031 C  
ENDBRANCH  20  25
ENDBRANCH  18  19
BRANCH  18  31
HETATM   31  C   UNL     1      -9.587   7.530  68.851  1.00  0.00    -0.149 C  
HETATM   32  C   UNL     1     -10.897   5.691  70.099  1.00  0.00    -0.356 C  
HETATM   33  C   UNL     1     -10.797   6.573  68.853  1.00  0.00    -0.354 C  
HETATM   34  C   UNL     1     -10.699   5.657  67.629  1.00  0.00    -0.260 C  
ENDBRANCH  18  31
ENDBRANCH  16  18
ENDBRANCH  13  14
ENDBRANCH  11  13
ENDBRANCH   3   4
ENDBRANCH   2   3
TORSDOF 8
ENDMDL
MODEL      155
REMARK 921   NORMALIZED FREE ENERGY PREDICTED BY IDOCK:   -4.92 KCAL/MOL
REMARK 922        TOTAL FREE ENERGY PREDICTED BY IDOCK:   -9.62 KCAL/MOL
REMARK 923 INTER-LIGAND FREE ENERGY PREDICTED BY IDOCK:   -6.90 KCAL/MOL
REMARK 924 INTRA-LIGAND FREE ENERGY PREDICTED BY IDOCK:   -2.72 KCAL/MOL
REMARK 927      BINDING AFFINITY PREDICTED BY RF-SCORE:    0.00 PKD
ROOT
HETATM    1  C   UNL     1      -8.352   6.786  65.241  1.00  0.00    -0.108 C  
HETATM    2  C   UNL     1      -7.591   7.076  66.515  1.00  0.00    -0.089 C  
ENDROOT
BRANCH   2   3
HETATM    3  O   UNL     1      -8.345   6.579  67.640  1.00  0.00    -0.120 OA 
BRANCH   3   4
HETATM    4  C   UNL     1      -8.616   7.516  68.606  1.00  0.00    -0.129 A  
HETATM    5  C   UNL     1      -9.784   7.384  69.373  1.00  0.00    -0.159 A  
HETATM    6  C   UNL     1     -10.097   8.380  70.316  1.00  0.00    -0.196 A  
HETATM    7  C   UNL     1     -10.765   6.255  69.249  1.00  0.00    -0.305 C  
HETATM    8  C   UNL     1      -9.266   9.484  70.497  1.00  0.00    -0.284 A  
HETATM    9  O   UNL     1     -11.819   6.227  69.873  1.00  0.00    -0.340 OA 
HETATM   10  O   UNL     1     -10.395   5.261  68.425  1.00  0.00    -0.164 OA 
HETATM   11  C   UNL     1      -8.088   9.606  69.754  1.00  0.00    -0.160 A  
HETATM   12  C   UNL     1      -7.754   8.598  68.844  1.00  0.00    -0.100 A  
BRANCH  11  13
HETATM   13  C   UNL     1      -7.181  10.798  69.921  1.00  0.00    -0.059 C  
BRANCH  13  14
HETATM   14  C   UNL     1      -7.196  11.735  68.729  1.00  0.00    -0.113 C  
HETATM   15  O   UNL     1      -6.143  12.051  68.178  1.00  0.00    -0.050 OA 
HETATM   16  N   UNL     1      -8.445  12.170  68.319  1.00  0.00    -0.176 N  
HETATM   17  H   UNL     1      -9.268  11.907  68.859  1.00  0.00     0.000 HD 
BRANCH  16  18
HETATM   18  C   UNL     1      -8.608  13.006  67.115  1.00  0.00    -0.195 C  
BRANCH  18  19
HETATM   19  C   UNL     1      -9.300  14.365  67.318  1.00  0.00    -0.211 A  
HETATM   20  C   UNL     1     -10.536  14.535  68.030  1.00  0.00    -0.236 A  
HETATM   21  C   UNL     1     -10.953  15.878  68.242  1.00  0.00    -0.329 A  
HETATM   22  C   UNL     1      -8.580  15.525  66.912  1.00  0.00    -0.289 A  
HETATM   23  C   UNL     1     -10.221  16.997  67.842  1.00  0.00    -0.317 A  
HETATM   24  C   UNL     1      -9.030  16.820  67.171  1.00  0.00    -0.218 A  
BRANCH  20  25
HETATM   25  N   UNL     1     -11.377  13.532  68.525  1.00  0.00    -0.271 NA 
HETATM   26  C   UNL     1     -11.909  12.485  67.625  1.00  0.00    -0.317 C  
HETATM   27  C   UNL     1     -11.736  11.112  68.285  1.00  0.00    -0.323 C  
HETATM   28  C   UNL     1     -12.457  11.063  69.628  1.00  0.00    -0.208 C  
HETATM   29  C   UNL     1     -11.984  12.197  70.518  1.00  0.00    -0.308 C  
HETATM   30  C   UNL     1     -12.044  13.552  69.827  1.00  0.00    -0.318 C  
ENDBRANCH  20  25
ENDBRANCH  18  19
BRANCH  18  31
HETATM   31  C   UNL     1      -9.323  12.252  65.976  1.00  0.00    -0.142 C  
HETATM   32  C   UNL     1      -7.443  10.578  65.411  1.00  0.00    -0.089 C  
HETATM   33  C   UNL     1      -8.917  10.778  65.770  1.00  0.00    -0.203 C  
HETATM   34  C   UNL     1      -9.766  10.190  64.639  1.00  0.00    -0.377 C  
ENDBRANCH  18  31
ENDBRANCH  16  18
ENDBRANCH  13  14
ENDBRANCH  11  13
ENDBRANCH   3   4
ENDBRANCH   2   3
TORSDOF 8
ENDMDL
MODEL      156
REMARK 921   NORMALIZED FREE ENERGY PREDICTED BY IDOCK:   -4.90 KCAL/MOL
REMARK 922        TOTAL FREE ENERGY PREDICTED BY IDOCK:   -9.59 KCAL/MOL
REMARK 923 INTER-LIGAND FREE ENERGY PREDICTED BY IDOCK:   -8.67 KCAL/MOL
REMARK 924 INTRA-LIGAND FREE ENERGY PREDICTED BY IDOCK:   -0.92 KCAL/MOL
REMARK 927      BINDING AFFINITY PREDICTED BY RF-SCORE:    0.00 PKD
ROOT
HETATM    1  C   UNL     1      -7.587  14.181  68.525  1.00  0.00    -0.129 C  
HETATM    2  C   UNL     1      -7.309  14.864  67.205  1.00  0.00    -0.140 C  
ENDROOT
BRANCH   2   3
HETATM    3  O   UNL     1      -8.557  15.087  66.517  1.00  0.00    -0.253 OA 
BRANCH   3   4
HETATM    4  C   UNL     1      -9.631  15.315  67.340  1.00  0.00    -0.207 A  
HETATM    5  C   UNL     1     -10.065  16.635  67.543  1.00  0.00    -0.273 A  
HETATM    6  C   UNL     1     -11.122  16.875  68.439  1.00  0.00    -0.216 A  
HETATM    7  C   UNL     1      -9.461  17.844  66.889  1.00  0.00    -0.279 C  
HETATM    8  C   UNL     1     -11.740  15.827  69.118  1.00  0.00    -0.398 A  
HETATM    9  O   UNL     1      -9.809  18.985  67.165  1.00  0.00    -0.305 OA 
HETATM   10  O   UNL     1      -8.529  17.585  65.957  1.00  0.00    -0.500 OA 
HETATM   11  C   UNL     1     -11.330  14.509  68.898  1.00  0.00    -0.298 A  
HETATM   12  C   UNL     1     -10.305  14.263  67.979  1.00  0.00    -0.229 A  
BRANCH  11  13
HETATM   13  C   UNL     1     -11.973  13.360  69.632  1.00  0.00    -0.386 C  
BRANCH  13  14
HETATM   14  C   UNL     1     -11.490  12.002  69.162  1.00  0.00    -0.300 C  
HETATM   15  O   UNL     1     -12.252  11.250  68.557  1.00  0.00    -0.588 OA 
HETATM   16  N   UNL     1     -10.167  11.701  69.441  1.00  0.00    -0.411 N  
HETATM   17  H   UNL     1      -9.612  12.354  69.994  1.00  0.00     0.000 HD 
BRANCH  16  18
HETATM   18  C   UNL     1      -9.545  10.456  68.955  1.00  0.00    -0.192 C  
BRANCH  18  19
HETATM   19  C   UNL     1      -8.378   9.905  69.794  1.00  0.00    -0.196 A  
HETATM   20  C   UNL     1      -8.512   8.842  70.750  1.00  0.00    -0.173 A  
HETATM   21  C   UNL     1      -7.303   8.367  71.327  1.00  0.00    -0.088 A  
HETATM   22  C   UNL     1      -7.072  10.376  69.473  1.00  0.00    -0.113 A  
HETATM   23  C   UNL     1      -6.035   8.840  70.986  1.00  0.00    -0.041 A  
HETATM   24  C   UNL     1      -5.919   9.851  70.057  1.00  0.00    -0.049 A  
BRANCH  20  25
HETATM   25  N   UNL     1      -9.695   8.233  71.184  1.00  0.00    -0.159 NA 
HETATM   26  C   UNL     1     -10.768   9.037  71.813  1.00  0.00    -0.367 C  
HETATM   27  C   UNL     1     -12.116   8.656  71.192  1.00  0.00    -0.297 C  
HETATM   28  C   UNL     1     -12.398   7.170  71.380  1.00  0.00    -0.415 C  
HETATM   29  C   UNL     1     -11.254   6.345  70.824  1.00  0.00    -0.386 C  
HETATM   30  C   UNL     1      -9.896   6.793  71.348  1.00  0.00    -0.178 C  
ENDBRANCH  20  25
ENDBRANCH  18  19
BRANCH  18  31
HETATM   31  C   UNL     1      -9.088  10.568  67.487  1.00  0.00    -0.144 C  
HETATM   32  C   UNL     1     -10.042   8.327  66.636  1.00  0.00    -0.351 C  
HETATM   33  C   UNL     1      -9.960   9.842  66.442  1.00  0.00    -0.309 C  
HETATM   34  C   UNL     1      -9.381  10.112  65.049  1.00  0.00    -0.299 C  
ENDBRANCH  18  31
ENDBRANCH  16  18
ENDBRANCH  13  14
ENDBRANCH  11  13
ENDBRANCH   3   4
ENDBRANCH   2   3
TORSDOF 8
ENDMDL
MODEL      157
REMARK 921   NORMALIZED FREE ENERGY PREDICTED BY IDOCK:   -4.88 KCAL/MOL
REMARK 922        TOTAL FREE ENERGY PREDICTED BY IDOCK:   -9.56 KCAL/MOL
REMARK 923 INTER-LIGAND FREE ENERGY PREDICTED BY IDOCK:   -7.57 KCAL/MOL
REMARK 924 INTRA-LIGAND FREE ENERGY PREDICTED BY IDOCK:   -1.99 KCAL/MOL
REMARK 927      BINDING AFFINITY PREDICTED BY RF-SCORE:    0.00 PKD
ROOT
HETATM    1  C   UNL     1     -10.068   9.627  68.363  1.00  0.00    -0.199 C  
HETATM    2  C   UNL     1     -10.534   8.964  67.086  1.00  0.00    -0.274 C  
ENDROOT
BRANCH   2   3
HETATM    3  O   UNL     1      -9.412   8.823  66.190  1.00  0.00    -0.218 OA 
BRANCH   3   4
HETATM    4  C   UNL     1      -9.475   9.609  65.066  1.00  0.00    -0.245 A  
HETATM    5  C   UNL     1      -8.460   9.502  64.103  1.00  0.00    -0.194 A  
HETATM    6  C   UNL     1      -8.488  10.356  62.985  1.00  0.00    -0.180 A  
HETATM    7  C   UNL     1      -7.304   8.548  64.181  1.00  0.00    -0.103 C  
HETATM    8  C   UNL     1      -9.503  11.295  62.824  1.00  0.00    -0.355 A  
HETATM    9  O   UNL     1      -6.390   8.552  63.366  1.00  0.00    -0.084 OA 
HETATM   10  O   UNL     1      -7.354   7.669  65.197  1.00  0.00    -0.069 OA 
HETATM   11  C   UNL     1     -10.532  11.387  63.767  1.00  0.00    -0.456 A  
HETATM   12  C   UNL     1     -10.529  10.514  64.859  1.00  0.00    -0.214 A  
BRANCH  11  13
HETATM   13  C   UNL     1     -11.633  12.405  63.622  1.00  0.00    -0.580 C  
BRANCH  13  14
HETATM   14  C   UNL     1     -11.539  13.539  64.625  1.00  0.00    -0.368 C  
HETATM   15  O   UNL     1     -11.968  14.655  64.339  1.00  0.00    -0.457 OA 
HETATM   16  N   UNL     1     -10.971  13.219  65.846  1.00  0.00    -0.274 N  
HETATM   17  H   UNL     1     -10.589  12.284  65.990  1.00  0.00     0.000 HD 
BRANCH  16  18
HETATM   18  C   UNL     1     -10.907  14.202  66.943  1.00  0.00    -0.296 C  
BRANCH  18  19
HETATM   19  C   UNL     1      -9.650  15.089  66.991  1.00  0.00    -0.233 A  
HETATM   20  C   UNL     1      -8.324  14.586  67.218  1.00  0.00    -0.212 A  
HETATM   21  C   UNL     1      -7.268  15.530  67.087  1.00  0.00    -0.208 A  
HETATM   22  C   UNL     1      -9.809  16.457  66.626  1.00  0.00    -0.272 A  
HETATM   23  C   UNL     1      -7.454  16.863  66.717  1.00  0.00    -0.276 A  
HETATM   24  C   UNL     1      -8.730  17.330  66.488  1.00  0.00    -0.293 A  
BRANCH  20  25
HETATM   25  N   UNL     1      -7.958  13.280  67.566  1.00  0.00    -0.173 NA 
HETATM   26  C   UNL     1      -7.914  12.214  66.540  1.00  0.00     0.152 C  
HETATM   27  C   UNL     1      -6.607  11.426  66.684  1.00  0.00    -0.114 C  
HETATM   28  C   UNL     1      -6.492  10.817  68.077  1.00  0.00    -0.062 C  
HETATM   29  C   UNL     1      -6.635  11.896  69.134  1.00  0.00    -0.103 C  
HETATM   30  C   UNL     1      -7.873  12.759  68.930  1.00  0.00     0.139 C  
ENDBRANCH  20  25
ENDBRANCH  18  19
BRANCH  18  31
HETATM   31  C   UNL     1     -11.102  13.546  68.325  1.00  0.00    -0.287 C  
HETATM   32  C   UNL     1     -12.001  15.610  69.584  1.00  0.00    -0.367 C  
HETATM   33  C   UNL     1     -12.213  14.141  69.214  1.00  0.00    -0.308 C  
HETATM   34  C   UNL     1     -12.289  13.330  70.512  1.00  0.00    -0.389 C  
ENDBRANCH  18  31
ENDBRANCH  16  18
ENDBRANCH  13  14
ENDBRANCH  11  13
ENDBRANCH   3   4
ENDBRANCH   2   3
TORSDOF 8
ENDMDL
MODEL      158
REMARK 921   NORMALIZED FREE ENERGY PREDICTED BY IDOCK:   -4.88 KCAL/MOL
REMARK 922        TOTAL FREE ENERGY PREDICTED BY IDOCK:   -9.56 KCAL/MOL
REMARK 923 INTER-LIGAND FREE ENERGY PREDICTED BY IDOCK:   -8.22 KCAL/MOL
REMARK 924 INTRA-LIGAND FREE ENERGY PREDICTED BY IDOCK:   -1.34 KCAL/MOL
REMARK 927      BINDING AFFINITY PREDICTED BY RF-SCORE:    0.00 PKD
ROOT
HETATM    1  C   UNL     1     -10.823  14.393  69.022  1.00  0.00    -0.267 C  
HETATM    2  C   UNL     1     -10.814  14.408  67.510  1.00  0.00    -0.282 C  
ENDROOT
BRANCH   2   3
HETATM    3  O   UNL     1     -11.550  13.268  67.020  1.00  0.00    -0.322 OA 
BRANCH   3   4
HETATM    4  C   UNL     1     -10.823  12.415  66.228  1.00  0.00    -0.266 A  
HETATM    5  C   UNL     1     -11.347  12.028  64.985  1.00  0.00    -0.365 A  
HETATM    6  C   UNL     1     -10.634  11.101  64.203  1.00  0.00    -0.436 A  
HETATM    7  C   UNL     1     -12.650  12.512  64.418  1.00  0.00    -0.410 C  
HETATM    8  C   UNL     1      -9.425  10.570  64.644  1.00  0.00    -0.316 A  
HETATM    9  O   UNL     1     -13.115  12.078  63.371  1.00  0.00    -0.747 OA 
HETATM   10  O   UNL     1     -13.260  13.477  65.127  1.00  0.00    -0.720 OA 
HETATM   11  C   UNL     1      -8.885  10.973  65.869  1.00  0.00    -0.204 A  
HETATM   12  C   UNL     1      -9.571  11.923  66.631  1.00  0.00    -0.220 A  
BRANCH  11  13
HETATM   13  C   UNL     1      -7.585  10.401  66.374  1.00  0.00    -0.123 C  
BRANCH  13  14
HETATM   14  C   UNL     1      -7.641   8.905  66.616  1.00  0.00    -0.089 C  
HETATM   15  O   UNL     1      -6.723   8.182  66.232  1.00  0.00    -0.053 OA 
HETATM   16  N   UNL     1      -8.756   8.444  67.295  1.00  0.00    -0.126 N  
HETATM   17  H   UNL     1      -9.501   9.098  67.535  1.00  0.00     0.000 HD 
BRANCH  16  18
HETATM   18  C   UNL     1      -8.888   7.027  67.680  1.00  0.00    -0.119 C  
BRANCH  18  19
HETATM   19  C   UNL     1      -8.335   6.643  69.064  1.00  0.00    -0.120 A  
HETATM   20  C   UNL     1      -9.069   6.794  70.289  1.00  0.00    -0.153 A  
HETATM   21  C   UNL     1      -8.456   6.254  71.453  1.00  0.00    -0.127 A  
HETATM   22  C   UNL     1      -7.089   5.951  69.094  1.00  0.00    -0.069 A  
HETATM   23  C   UNL     1      -7.239   5.571  71.451  1.00  0.00    -0.073 A  
HETATM   24  C   UNL     1      -6.551   5.421  70.266  1.00  0.00    -0.039 A  
BRANCH  20  25
HETATM   25  N   UNL     1     -10.308   7.420  70.466  1.00  0.00    -0.212 NA 
HETATM   26  C   UNL     1     -11.564   6.640  70.386  1.00  0.00    -0.398 C  
HETATM   27  C   UNL     1     -12.465   7.007  71.569  1.00  0.00    -0.426 C  
HETATM   28  C   UNL     1     -12.776   8.500  71.571  1.00  0.00    -0.340 C  
HETATM   29  C   UNL     1     -11.489   9.303  71.555  1.00  0.00    -0.454 C  
HETATM   30  C   UNL     1     -10.536   8.865  70.450  1.00  0.00    -0.217 C  
ENDBRANCH  20  25
ENDBRANCH  18  19
BRANCH  18  31
HETATM   31  C   UNL     1      -8.283   6.079  66.626  1.00  0.00    -0.106 C  
HETATM   32  C   UNL     1     -10.035   4.192  66.785  1.00  0.00    -0.140 C  
HETATM   33  C   UNL     1      -9.275   5.164  65.880  1.00  0.00    -0.163 C  
HETATM   34  C   UNL     1      -8.500   4.341  64.845  1.00  0.00    -0.118 C  
ENDBRANCH  18  31
ENDBRANCH  16  18
ENDBRANCH  13  14
ENDBRANCH  11  13
ENDBRANCH   3   4
ENDBRANCH   2   3
TORSDOF 8
ENDMDL
MODEL      159
REMARK 921   NORMALIZED FREE ENERGY PREDICTED BY IDOCK:   -4.86 KCAL/MOL
REMARK 922        TOTAL FREE ENERGY PREDICTED BY IDOCK:   -9.52 KCAL/MOL
REMARK 923 INTER-LIGAND FREE ENERGY PREDICTED BY IDOCK:   -7.40 KCAL/MOL
REMARK 924 INTRA-LIGAND FREE ENERGY PREDICTED BY IDOCK:   -2.12 KCAL/MOL
REMARK 927      BINDING AFFINITY PREDICTED BY RF-SCORE:    0.00 PKD
ROOT
HETATM    1  C   UNL     1     -10.628   5.404  74.014  1.00  0.00    -0.305 C  
HETATM    2  C   UNL     1     -11.060   5.197  72.580  1.00  0.00    -0.234 C  
ENDROOT
BRANCH   2   3
HETATM    3  O   UNL     1      -9.946   4.689  71.819  1.00  0.00    -0.178 OA 
BRANCH   3   4
HETATM    4  C   UNL     1      -9.427   5.573  70.905  1.00  0.00    -0.166 A  
HETATM    5  C   UNL     1      -8.094   5.990  71.044  1.00  0.00    -0.121 A  
HETATM    6  C   UNL     1      -7.582   6.947  70.149  1.00  0.00    -0.099 A  
HETATM    7  C   UNL     1      -7.154   5.510  72.111  1.00  0.00    -0.086 C  
HETATM    8  C   UNL     1      -8.375   7.478  69.134  1.00  0.00    -0.135 A  
HETATM    9  O   UNL     1      -6.027   5.969  72.252  1.00  0.00    -0.035 OA 
HETATM   10  O   UNL     1      -7.625   4.518  72.886  1.00  0.00    -0.082 OA 
HETATM   11  C   UNL     1      -9.696   7.045  68.975  1.00  0.00    -0.145 A  
HETATM   12  C   UNL     1     -10.195   6.065  69.839  1.00  0.00    -0.265 A  
BRANCH  11  13
HETATM   13  C   UNL     1     -10.578   7.615  67.894  1.00  0.00    -0.233 C  
BRANCH  13  14
HETATM   14  C   UNL     1     -10.622   9.130  67.893  1.00  0.00    -0.214 C  
HETATM   15  O   UNL     1     -11.076   9.736  68.862  1.00  0.00    -0.191 OA 
HETATM   16  N   UNL     1     -10.110   9.749  66.765  1.00  0.00    -0.218 N  
HETATM   17  H   UNL     1      -9.799   9.178  65.980  1.00  0.00     0.000 HD 
BRANCH  16  18
HETATM   18  C   UNL     1     -10.004  11.217  66.677  1.00  0.00    -0.207 C  
BRANCH  18  19
HETATM   19  C   UNL     1     -10.867  11.899  65.600  1.00  0.00    -0.333 A  
HETATM   20  C   UNL     1     -11.430  13.212  65.739  1.00  0.00    -0.325 A  
HETATM   21  C   UNL     1     -12.078  13.738  64.588  1.00  0.00    -0.452 A  
HETATM   22  C   UNL     1     -10.965  11.242  64.339  1.00  0.00    -0.331 A  
HETATM   23  C   UNL     1     -12.150  13.076  63.361  1.00  0.00    -0.591 A  
HETATM   24  C   UNL     1     -11.593  11.821  63.236  1.00  0.00    -0.325 A  
BRANCH  20  25
HETATM   25  N   UNL     1     -11.424  14.024  66.880  1.00  0.00    -0.338 NA 
HETATM   26  C   UNL     1     -12.244  13.668  68.060  1.00  0.00    -0.140 C  
HETATM   27  C   UNL     1     -11.392  13.800  69.327  1.00  0.00    -0.325 C  
HETATM   28  C   UNL     1     -10.854  15.220  69.472  1.00  0.00    -0.275 C  
HETATM   29  C   UNL     1     -10.096  15.623  68.222  1.00  0.00    -0.218 C  
HETATM   30  C   UNL     1     -10.895  15.386  66.947  1.00  0.00    -0.313 C  
ENDBRANCH  20  25
ENDBRANCH  18  19
BRANCH  18  31
HETATM   31  C   UNL     1      -8.545  11.687  66.512  1.00  0.00    -0.164 C  
HETATM   32  C   UNL     1      -7.771  11.332  68.948  1.00  0.00    -0.125 C  
HETATM   33  C   UNL     1      -7.511  11.054  67.466  1.00  0.00    -0.102 C  
HETATM   34  C   UNL     1      -6.123  11.602  67.116  1.00  0.00    -0.130 C  
ENDBRANCH  18  31
ENDBRANCH  16  18
ENDBRANCH  13  14
ENDBRANCH  11  13
ENDBRANCH   3   4
ENDBRANCH   2   3
TORSDOF 8
ENDMDL
MODEL      160
REMARK 921   NORMALIZED FREE ENERGY PREDICTED BY IDOCK:   -4.84 KCAL/MOL
REMARK 922        TOTAL FREE ENERGY PREDICTED BY IDOCK:   -9.50 KCAL/MOL
REMARK 923 INTER-LIGAND FREE ENERGY PREDICTED BY IDOCK:   -8.76 KCAL/MOL
REMARK 924 INTRA-LIGAND FREE ENERGY PREDICTED BY IDOCK:   -0.74 KCAL/MOL
REMARK 927      BINDING AFFINITY PREDICTED BY RF-SCORE:    0.00 PKD
ROOT
HETATM    1  C   UNL     1      -7.181  15.781  68.956  1.00  0.00    -0.168 C  
HETATM    2  C   UNL     1      -6.614  15.809  67.555  1.00  0.00    -0.183 C  
ENDROOT
BRANCH   2   3
HETATM    3  O   UNL     1      -7.699  15.817  66.605  1.00  0.00    -0.217 OA 
BRANCH   3   4
HETATM    4  C   UNL     1      -8.931  16.086  67.147  1.00  0.00    -0.202 A  
HETATM    5  C   UNL     1      -9.417  17.402  67.115  1.00  0.00    -0.257 A  
HETATM    6  C   UNL     1     -10.649  17.690  67.731  1.00  0.00    -0.380 A  
HETATM    7  C   UNL     1      -8.701  18.563  66.488  1.00  0.00    -0.286 C  
HETATM    8  C   UNL     1     -11.386  16.692  68.363  1.00  0.00    -0.142 A  
HETATM    9  O   UNL     1      -9.117  19.712  66.564  1.00  0.00    -0.337 OA 
HETATM   10  O   UNL     1      -7.583  18.249  65.812  1.00  0.00    -0.509 OA 
HETATM   11  C   UNL     1     -10.919  15.373  68.374  1.00  0.00    -0.284 A  
HETATM   12  C   UNL     1      -9.715  15.077  67.729  1.00  0.00    -0.215 A  
BRANCH  11  13
HETATM   13  C   UNL     1     -11.692  14.279  69.064  1.00  0.00    -0.352 C  
BRANCH  13  14
HETATM   14  C   UNL     1     -11.399  12.897  68.512  1.00  0.00    -0.289 C  
HETATM   15  O   UNL     1     -12.147  12.393  67.676  1.00  0.00    -0.470 OA 
HETATM   16  N   UNL     1     -10.254  12.285  68.993  1.00  0.00    -0.425 N  
HETATM   17  H   UNL     1      -9.712  12.744  69.725  1.00  0.00     0.000 HD 
BRANCH  16  18
HETATM   18  C   UNL     1      -9.801  10.984  68.468  1.00  0.00    -0.192 C  
BRANCH  18  19
HETATM   19  C   UNL     1      -8.706  10.267  69.276  1.00  0.00    -0.182 A  
HETATM   20  C   UNL     1      -8.959   9.168  70.166  1.00  0.00    -0.198 A  
HETATM   21  C   UNL     1      -7.810   8.537  70.719  1.00  0.00    -0.097 A  
HETATM   22  C   UNL     1      -7.355  10.618  68.990  1.00  0.00    -0.108 A  
HETATM   23  C   UNL     1      -6.497   8.896  70.412  1.00  0.00    -0.043 A  
HETATM   24  C   UNL     1      -6.268   9.943  69.545  1.00  0.00    -0.045 A  
BRANCH  20  25
HETATM   25  N   UNL     1     -10.202   8.660  70.558  1.00  0.00    -0.191 NA 
HETATM   26  C   UNL     1     -10.840   7.562  69.797  1.00  0.00    -0.225 C  
HETATM   27  C   UNL     1     -11.349   6.496  70.774  1.00  0.00    -0.399 C  
HETATM   28  C   UNL     1     -12.345   7.097  71.760  1.00  0.00    -0.385 C  
HETATM   29  C   UNL     1     -11.726   8.284  72.472  1.00  0.00    -0.451 C  
HETATM   30  C   UNL     1     -11.115   9.294  71.509  1.00  0.00    -0.373 C  
ENDBRANCH  20  25
ENDBRANCH  18  19
BRANCH  18  31
HETATM   31  C   UNL     1      -9.349  11.076  66.997  1.00  0.00    -0.186 C  
HETATM   32  C   UNL     1      -9.885   8.651  66.299  1.00  0.00    -0.320 C  
HETATM   33  C   UNL     1     -10.066  10.141  66.001  1.00  0.00    -0.317 C  
HETATM   34  C   UNL     1      -9.522  10.413  64.595  1.00  0.00    -0.336 C  
ENDBRANCH  18  31
ENDBRANCH  16  18
ENDBRANCH  13  14
ENDBRANCH  11  13
ENDBRANCH   3   4
ENDBRANCH   2   3
TORSDOF 8
ENDMDL
MODEL      161
REMARK 921   NORMALIZED FREE ENERGY PREDICTED BY IDOCK:   -4.83 KCAL/MOL
REMARK 922        TOTAL FREE ENERGY PREDICTED BY IDOCK:   -9.49 KCAL/MOL
REMARK 923 INTER-LIGAND FREE ENERGY PREDICTED BY IDOCK:   -7.10 KCAL/MOL
REMARK 924 INTRA-LIGAND FREE ENERGY PREDICTED BY IDOCK:   -2.39 KCAL/MOL
REMARK 927      BINDING AFFINITY PREDICTED BY RF-SCORE:    0.00 PKD
ROOT
HETATM    1  C   UNL     1      -6.299   8.795  63.833  1.00  0.00    -0.076 C  
HETATM    2  C   UNL     1      -7.544   8.294  64.530  1.00  0.00    -0.108 C  
ENDROOT
BRANCH   2   3
HETATM    3  O   UNL     1      -7.874   6.984  64.023  1.00  0.00    -0.118 OA 
BRANCH   3   4
HETATM    4  C   UNL     1      -8.531   6.174  64.916  1.00  0.00    -0.036 A  
HETATM    5  C   UNL     1      -8.377   4.783  64.814  1.00  0.00    -0.132 A  
HETATM    6  C   UNL     1      -9.103   3.950  65.686  1.00  0.00    -0.144 A  
HETATM    7  C   UNL     1      -7.502   4.091  63.810  1.00  0.00    -0.055 C  
HETATM    8  C   UNL     1      -9.962   4.487  66.641  1.00  0.00    -0.253 A  
HETATM    9  O   UNL     1      -7.468   2.872  63.695  1.00  0.00    -0.059 OA 
HETATM   10  O   UNL     1      -6.735   4.902  63.062  1.00  0.00    -0.029 OA 
HETATM   11  C   UNL     1     -10.098   5.873  66.765  1.00  0.00    -0.235 A  
HETATM   12  C   UNL     1      -9.349   6.704  65.927  1.00  0.00     0.040 A  
BRANCH  11  13
HETATM   13  C   UNL     1     -11.033   6.477  67.782  1.00  0.00    -0.407 C  
BRANCH  13  14
HETATM   14  C   UNL     1     -10.400   7.592  68.591  1.00  0.00    -0.200 C  
HETATM   15  O   UNL     1      -9.332   7.406  69.171  1.00  0.00    -0.147 OA 
HETATM   16  N   UNL     1     -11.088   8.794  68.604  1.00  0.00    -0.422 N  
HETATM   17  H   UNL     1     -11.995   8.855  68.142  1.00  0.00     0.000 HD 
BRANCH  16  18
HETATM   18  C   UNL     1     -10.535   9.986  69.271  1.00  0.00    -0.225 C  
BRANCH  18  19
HETATM   19  C   UNL     1     -11.541  10.872  70.028  1.00  0.00    -0.424 A  
HETATM   20  C   UNL     1     -12.262  10.445  71.194  1.00  0.00    -0.394 A  
HETATM   21  C   UNL     1     -13.040  11.442  71.845  1.00  0.00    -0.505 A  
HETATM   22  C   UNL     1     -11.626  12.238  69.633  1.00  0.00    -0.348 A  
HETATM   23  C   UNL     1     -13.096  12.777  71.441  1.00  0.00    -0.318 A  
HETATM   24  C   UNL     1     -12.387  13.177  70.328  1.00  0.00    -0.319 A  
BRANCH  20  25
HETATM   25  N   UNL     1     -12.296   9.162  71.751  1.00  0.00    -0.347 NA 
HETATM   26  C   UNL     1     -13.557   8.387  71.779  1.00  0.00    -0.377 C  
HETATM   27  C   UNL     1     -13.285   6.958  71.298  1.00  0.00    -0.237 C  
HETATM   28  C   UNL     1     -12.236   6.282  72.175  1.00  0.00    -0.255 C  
HETATM   29  C   UNL     1     -10.975   7.124  72.228  1.00  0.00    -0.277 C  
HETATM   30  C   UNL     1     -11.253   8.576  72.593  1.00  0.00    -0.159 C  
ENDBRANCH  20  25
ENDBRANCH  18  19
BRANCH  18  31
HETATM   31  C   UNL     1      -9.727  10.873  68.302  1.00  0.00    -0.171 C  
HETATM   32  C   UNL     1      -7.363  10.263  69.134  1.00  0.00    -0.096 C  
HETATM   33  C   UNL     1      -8.312  10.378  67.940  1.00  0.00    -0.114 C  
HETATM   34  C   UNL     1      -7.694  11.356  66.935  1.00  0.00    -0.155 C  
ENDBRANCH  18  31
ENDBRANCH  16  18
ENDBRANCH  13  14
ENDBRANCH  11  13
ENDBRANCH   3   4
ENDBRANCH   2   3
TORSDOF 8
ENDMDL
MODEL      162
REMARK 921   NORMALIZED FREE ENERGY PREDICTED BY IDOCK:   -4.80 KCAL/MOL
REMARK 922        TOTAL FREE ENERGY PREDICTED BY IDOCK:   -9.44 KCAL/MOL
REMARK 923 INTER-LIGAND FREE ENERGY PREDICTED BY IDOCK:   -8.27 KCAL/MOL
REMARK 924 INTRA-LIGAND FREE ENERGY PREDICTED BY IDOCK:   -1.17 KCAL/MOL
REMARK 927      BINDING AFFINITY PREDICTED BY RF-SCORE:    0.00 PKD
ROOT
HETATM    1  C   UNL     1     -13.117  11.652  71.784  1.00  0.00    -0.487 C  
HETATM    2  C   UNL     1     -12.276  11.427  70.548  1.00  0.00    -0.386 C  
ENDROOT
BRANCH   2   3
HETATM    3  O   UNL     1     -11.875  10.042  70.496  1.00  0.00    -0.280 OA 
BRANCH   3   4
HETATM    4  C   UNL     1     -10.538   9.843  70.256  1.00  0.00    -0.301 A  
HETATM    5  C   UNL     1      -9.784   9.102  71.180  1.00  0.00    -0.360 A  
HETATM    6  C   UNL     1      -8.400   8.956  70.969  1.00  0.00    -0.233 A  
HETATM    7  C   UNL     1     -10.338   8.462  72.418  1.00  0.00    -0.329 C  
HETATM    8  C   UNL     1      -7.778   9.530  69.862  1.00  0.00    -0.129 A  
HETATM    9  O   UNL     1      -9.628   7.904  73.245  1.00  0.00    -0.267 OA 
HETATM   10  O   UNL     1     -11.674   8.519  72.544  1.00  0.00    -0.380 OA 
HETATM   11  C   UNL     1      -8.530  10.245  68.925  1.00  0.00    -0.138 A  
HETATM   12  C   UNL     1      -9.911  10.360  69.111  1.00  0.00    -0.237 A  
BRANCH  11  13
HETATM   13  C   UNL     1      -7.876  10.887  67.728  1.00  0.00    -0.109 C  
BRANCH  13  14
HETATM   14  C   UNL     1      -7.998  12.398  67.717  1.00  0.00    -0.156 C  
HETATM   15  O   UNL     1      -7.555  13.048  66.771  1.00  0.00     0.151 OA 
HETATM   16  N   UNL     1      -8.642  12.961  68.806  1.00  0.00    -0.370 N  
HETATM   17  H   UNL     1      -8.935  12.362  69.577  1.00  0.00     0.000 HD 
BRANCH  16  18
HETATM   18  C   UNL     1      -8.913  14.409  68.873  1.00  0.00    -0.067 C  
BRANCH  18  19
HETATM   19  C   UNL     1     -10.324  14.817  69.332  1.00  0.00    -0.171 A  
HETATM   20  C   UNL     1     -11.522  14.519  68.597  1.00  0.00    -0.293 A  
HETATM   21  C   UNL     1     -12.746  14.847  69.242  1.00  0.00     0.253 A  
HETATM   22  C   UNL     1     -10.444  15.377  70.637  1.00  0.00    -0.055 A  
HETATM   23  C   UNL     1     -12.833  15.385  70.527  1.00  0.00    -0.425 A  
HETATM   24  C   UNL     1     -11.677  15.654  71.227  1.00  0.00    -0.478 A  
BRANCH  20  25
HETATM   25  N   UNL     1     -11.618  13.957  67.319  1.00  0.00    -0.344 NA 
HETATM   26  C   UNL     1     -11.763  14.821  66.126  1.00  0.00    -0.255 C  
HETATM   27  C   UNL     1     -10.788  14.354  65.040  1.00  0.00    -0.420 C  
HETATM   28  C   UNL     1     -11.050  12.900  64.667  1.00  0.00    -0.352 C  
HETATM   29  C   UNL     1     -10.998  12.023  65.904  1.00  0.00    -0.342 C  
HETATM   30  C   UNL     1     -11.878  12.546  67.032  1.00  0.00    -0.323 C  
ENDBRANCH  20  25
ENDBRANCH  18  19
BRANCH  18  31
HETATM   31  C   UNL     1      -8.600  15.122  67.543  1.00  0.00    -0.193 C  
HETATM   32  C   UNL     1      -8.773  17.554  68.384  1.00  0.00    -0.276 C  
HETATM   33  C   UNL     1      -7.932  16.508  67.650  1.00  0.00    -0.178 C  
HETATM   34  C   UNL     1      -7.654  17.028  66.236  1.00  0.00    -0.340 C  
ENDBRANCH  18  31
ENDBRANCH  16  18
ENDBRANCH  13  14
ENDBRANCH  11  13
ENDBRANCH   3   4
ENDBRANCH   2   3
TORSDOF 8
ENDMDL
MODEL      163
REMARK 921   NORMALIZED FREE ENERGY PREDICTED BY IDOCK:   -4.78 KCAL/MOL
REMARK 922        TOTAL FREE ENERGY PREDICTED BY IDOCK:   -9.42 KCAL/MOL
REMARK 923 INTER-LIGAND FREE ENERGY PREDICTED BY IDOCK:   -7.35 KCAL/MOL
REMARK 924 INTRA-LIGAND FREE ENERGY PREDICTED BY IDOCK:   -2.07 KCAL/MOL
REMARK 927      BINDING AFFINITY PREDICTED BY RF-SCORE:    0.00 PKD
ROOT
HETATM    1  C   UNL     1      -6.830  14.213  68.549  1.00  0.00    -0.102 C  
HETATM    2  C   UNL     1      -8.260  13.738  68.430  1.00  0.00    -0.151 C  
ENDROOT
BRANCH   2   3
HETATM    3  O   UNL     1      -8.374  12.861  67.291  1.00  0.00    -0.178 OA 
BRANCH   3   4
HETATM    4  C   UNL     1      -8.991  11.662  67.551  1.00  0.00    -0.165 A  
HETATM    5  C   UNL     1     -10.287  11.443  67.058  1.00  0.00    -0.258 A  
HETATM    6  C   UNL     1     -10.945  10.242  67.382  1.00  0.00    -0.317 A  
HETATM    7  C   UNL     1     -11.058  12.417  66.217  1.00  0.00    -0.303 C  
HETATM    8  C   UNL     1     -10.330   9.278  68.176  1.00  0.00    -0.261 A  
HETATM    9  O   UNL     1     -12.222  12.225  65.886  1.00  0.00    -0.634 OA 
HETATM   10  O   UNL     1     -10.374  13.506  65.828  1.00  0.00    -0.280 OA 
HETATM   11  C   UNL     1      -9.029   9.480  68.647  1.00  0.00    -0.132 A  
HETATM   12  C   UNL     1      -8.357  10.654  68.295  1.00  0.00    -0.122 A  
BRANCH  11  13
HETATM   13  C   UNL     1      -8.348   8.457  69.519  1.00  0.00    -0.120 C  
BRANCH  13  14
HETATM   14  C   UNL     1      -8.858   7.046  69.299  1.00  0.00    -0.139 C  
HETATM   15  O   UNL     1      -9.247   6.695  68.187  1.00  0.00    -0.120 OA 
HETATM   16  N   UNL     1      -8.830   6.214  70.406  1.00  0.00    -0.148 N  
HETATM   17  H   UNL     1      -8.543   6.593  71.308  1.00  0.00     0.000 HD 
BRANCH  16  18
HETATM   18  C   UNL     1      -9.206   4.792  70.306  1.00  0.00    -0.132 C  
BRANCH  18  19
HETATM   19  C   UNL     1      -9.782   4.149  71.580  1.00  0.00    -0.243 A  
HETATM   20  C   UNL     1     -10.723   4.798  72.449  1.00  0.00    -0.149 A  
HETATM   21  C   UNL     1     -11.255   4.000  73.499  1.00  0.00    -0.325 A  
HETATM   22  C   UNL     1      -9.479   2.775  71.805  1.00  0.00    -0.206 A  
HETATM   23  C   UNL     1     -10.947   2.652  73.689  1.00  0.00    -0.312 A  
HETATM   24  C   UNL     1     -10.054   2.036  72.839  1.00  0.00    -0.191 A  
BRANCH  20  25
HETATM   25  N   UNL     1     -11.163   6.125  72.387  1.00  0.00    -0.272 NA 
HETATM   26  C   UNL     1     -10.672   7.127  73.360  1.00  0.00    -0.368 C  
HETATM   27  C   UNL     1     -10.262   8.401  72.613  1.00  0.00    -0.320 C  
HETATM   28  C   UNL     1     -11.438   8.969  71.827  1.00  0.00    -0.442 C  
HETATM   29  C   UNL     1     -12.006   7.913  70.897  1.00  0.00    -0.211 C  
HETATM   30  C   UNL     1     -12.308   6.602  71.612  1.00  0.00    -0.332 C  
ENDBRANCH  20  25
ENDBRANCH  18  19
BRANCH  18  31
HETATM   31  C   UNL     1      -8.045   3.918  69.792  1.00  0.00    -0.061 C  
HETATM   32  C   UNL     1      -9.428   2.287  68.349  1.00  0.00    -0.226 C  
HETATM   33  C   UNL     1      -8.245   3.256  68.414  1.00  0.00    -0.085 C  
HETATM   34  C   UNL     1      -6.975   2.478  68.055  1.00  0.00    -0.048 C  
ENDBRANCH  18  31
ENDBRANCH  16  18
ENDBRANCH  13  14
ENDBRANCH  11  13
ENDBRANCH   3   4
ENDBRANCH   2   3
TORSDOF 8
ENDMDL
MODEL      164
REMARK 921   NORMALIZED FREE ENERGY PREDICTED BY IDOCK:   -4.78 KCAL/MOL
REMARK 922        TOTAL FREE ENERGY PREDICTED BY IDOCK:   -9.41 KCAL/MOL
REMARK 923 INTER-LIGAND FREE ENERGY PREDICTED BY IDOCK:   -7.78 KCAL/MOL
REMARK 924 INTRA-LIGAND FREE ENERGY PREDICTED BY IDOCK:   -1.63 KCAL/MOL
REMARK 927      BINDING AFFINITY PREDICTED BY RF-SCORE:    0.00 PKD
ROOT
HETATM    1  C   UNL     1     -11.744  14.569  69.020  1.00  0.00    -0.346 C  
HETATM    2  C   UNL     1     -10.762  13.771  68.192  1.00  0.00    -0.248 C  
ENDROOT
BRANCH   2   3
HETATM    3  O   UNL     1     -11.395  13.380  66.956  1.00  0.00    -0.295 OA 
BRANCH   3   4
HETATM    4  C   UNL     1     -10.720  12.418  66.248  1.00  0.00    -0.256 A  
HETATM    5  C   UNL     1     -11.228  12.005  65.006  1.00  0.00    -0.374 A  
HETATM    6  C   UNL     1     -10.573  10.971  64.311  1.00  0.00    -0.402 A  
HETATM    7  C   UNL     1     -12.457  12.568  64.354  1.00  0.00    -0.446 C  
HETATM    8  C   UNL     1      -9.436  10.361  64.836  1.00  0.00    -0.320 A  
HETATM    9  O   UNL     1     -12.917  12.114  63.314  1.00  0.00    -0.735 OA 
HETATM   10  O   UNL     1     -13.002  13.625  64.979  1.00  0.00    -0.724 OA 
HETATM   11  C   UNL     1      -8.911  10.788  66.059  1.00  0.00    -0.192 A  
HETATM   12  C   UNL     1      -9.535  11.841  66.734  1.00  0.00    -0.202 A  
BRANCH  11  13
HETATM   13  C   UNL     1      -7.690  10.133  66.654  1.00  0.00    -0.106 C  
BRANCH  13  14
HETATM   14  C   UNL     1      -7.971   8.768  67.251  1.00  0.00    -0.097 C  
HETATM   15  O   UNL     1      -7.885   7.759  66.554  1.00  0.00    -0.097 OA 
HETATM   16  N   UNL     1      -8.300   8.753  68.596  1.00  0.00    -0.127 N  
HETATM   17  H   UNL     1      -8.404   9.636  69.095  1.00  0.00     0.000 HD 
BRANCH  16  18
HETATM   18  C   UNL     1      -8.502   7.486  69.321  1.00  0.00    -0.136 C  
BRANCH  18  19
HETATM   19  C   UNL     1      -9.594   7.488  70.406  1.00  0.00    -0.168 A  
HETATM   20  C   UNL     1      -9.973   6.328  71.163  1.00  0.00    -0.181 A  
HETATM   21  C   UNL     1     -10.898   6.549  72.221  1.00  0.00    -0.262 A  
HETATM   22  C   UNL     1     -10.132   8.754  70.779  1.00  0.00    -0.261 A  
HETATM   23  C   UNL     1     -11.401   7.803  72.570  1.00  0.00    -0.429 A  
HETATM   24  C   UNL     1     -11.018   8.911  71.845  1.00  0.00    -0.439 A  
BRANCH  20  25
HETATM   25  N   UNL     1      -9.546   5.009  70.969  1.00  0.00    -0.161 NA 
HETATM   26  C   UNL     1      -9.880   4.288  69.720  1.00  0.00    -0.187 C  
HETATM   27  C   UNL     1      -8.623   3.592  69.186  1.00  0.00    -0.113 C  
HETATM   28  C   UNL     1      -8.062   2.620  70.218  1.00  0.00    -0.056 C  
HETATM   29  C   UNL     1      -7.811   3.337  71.531  1.00  0.00    -0.056 C  
HETATM   30  C   UNL     1      -9.022   4.127  72.011  1.00  0.00    -0.119 C  
ENDBRANCH  20  25
ENDBRANCH  18  19
BRANCH  18  31
HETATM   31  C   UNL     1      -7.194   6.953  69.939  1.00  0.00    -0.076 C  
HETATM   32  C   UNL     1      -6.638   8.987  71.426  1.00  0.00    -0.081 C  
HETATM   33  C   UNL     1      -6.841   7.472  71.348  1.00  0.00    -0.050 C  
HETATM   34  C   UNL     1      -5.546   6.795  71.809  1.00  0.00    -0.036 C  
ENDBRANCH  18  31
ENDBRANCH  16  18
ENDBRANCH  13  14
ENDBRANCH  11  13
ENDBRANCH   3   4
ENDBRANCH   2   3
TORSDOF 8
ENDMDL
MODEL      165
REMARK 921   NORMALIZED FREE ENERGY PREDICTED BY IDOCK:   -4.76 KCAL/MOL
REMARK 922        TOTAL FREE ENERGY PREDICTED BY IDOCK:   -9.39 KCAL/MOL
REMARK 923 INTER-LIGAND FREE ENERGY PREDICTED BY IDOCK:   -7.46 KCAL/MOL
REMARK 924 INTRA-LIGAND FREE ENERGY PREDICTED BY IDOCK:   -1.93 KCAL/MOL
REMARK 927      BINDING AFFINITY PREDICTED BY RF-SCORE:    0.00 PKD
ROOT
HETATM    1  C   UNL     1     -11.884  16.013  71.615  1.00  0.00    -0.582 C  
HETATM    2  C   UNL     1     -10.964  15.568  70.501  1.00  0.00    -0.344 C  
ENDROOT
BRANCH   2   3
HETATM    3  O   UNL     1     -11.737  15.374  69.299  1.00  0.00    -0.310 OA 
BRANCH   3   4
HETATM    4  C   UNL     1     -11.786  14.076  68.854  1.00  0.00    -0.355 A  
HETATM    5  C   UNL     1     -11.689  13.824  67.477  1.00  0.00    -0.410 A  
HETATM    6  C   UNL     1     -11.809  12.500  67.016  1.00  0.00    -0.394 A  
HETATM    7  C   UNL     1     -11.492  14.878  66.427  1.00  0.00    -0.280 C  
HETATM    8  C   UNL     1     -12.017  11.447  67.903  1.00  0.00    -0.120 A  
HETATM    9  O   UNL     1     -11.506  14.624  65.228  1.00  0.00    -0.342 OA 
HETATM   10  O   UNL     1     -11.271  16.118  66.894  1.00  0.00    -0.076 OA 
HETATM   11  C   UNL     1     -12.087  11.690  69.278  1.00  0.00    -0.323 A  
HETATM   12  C   UNL     1     -11.930  12.998  69.743  1.00  0.00    -0.377 A  
BRANCH  11  13
HETATM   13  C   UNL     1     -12.326  10.568  70.256  1.00  0.00    -0.377 C  
BRANCH  13  14
HETATM   14  C   UNL     1     -11.119   9.670  70.446  1.00  0.00    -0.290 C  
HETATM   15  O   UNL     1     -10.049  10.143  70.823  1.00  0.00     0.001 OA 
HETATM   16  N   UNL     1     -11.321   8.324  70.189  1.00  0.00    -0.439 N  
HETATM   17  H   UNL     1     -12.223   8.014  69.828  1.00  0.00     0.000 HD 
BRANCH  16  18
HETATM   18  C   UNL     1     -10.259   7.330  70.427  1.00  0.00    -0.194 C  
BRANCH  18  19
HETATM   19  C   UNL     1      -9.620   6.703  69.175  1.00  0.00    -0.136 A  
HETATM   20  C   UNL     1      -8.270   6.954  68.755  1.00  0.00    -0.121 A  
HETATM   21  C   UNL     1      -7.804   6.178  67.658  1.00  0.00    -0.105 A  
HETATM   22  C   UNL     1     -10.370   5.696  68.501  1.00  0.00    -0.265 A  
HETATM   23  C   UNL     1      -8.558   5.191  67.023  1.00  0.00    -0.105 A  
HETATM   24  C   UNL     1      -9.848   4.949  67.445  1.00  0.00    -0.213 A  
BRANCH  20  25
HETATM   25  N   UNL     1      -7.370   7.881  69.294  1.00  0.00    -0.081 NA 
HETATM   26  C   UNL     1      -6.971   9.079  68.521  1.00  0.00    -0.064 C  
HETATM   27  C   UNL     1      -7.054  10.315  69.423  1.00  0.00    -0.094 C  
HETATM   28  C   UNL     1      -6.153  10.156  70.643  1.00  0.00    -0.106 C  
HETATM   29  C   UNL     1      -6.494   8.877  71.384  1.00  0.00    -0.076 C  
HETATM   30  C   UNL     1      -6.528   7.659  70.469  1.00  0.00    -0.038 C  
ENDBRANCH  20  25
ENDBRANCH  18  19
BRANCH  18  31
HETATM   31  C   UNL     1     -10.721   6.198  71.366  1.00  0.00    -0.308 C  
HETATM   32  C   UNL     1      -9.854   7.187  73.585  1.00  0.00    -0.342 C  
HETATM   33  C   UNL     1     -11.043   6.602  72.819  1.00  0.00    -0.283 C  
HETATM   34  C   UNL     1     -11.531   5.363  73.576  1.00  0.00     0.087 C  
ENDBRANCH  18  31
ENDBRANCH  16  18
ENDBRANCH  13  14
ENDBRANCH  11  13
ENDBRANCH   3   4
ENDBRANCH   2   3
TORSDOF 8
ENDMDL
MODEL      166
REMARK 921   NORMALIZED FREE ENERGY PREDICTED BY IDOCK:   -4.76 KCAL/MOL
REMARK 922        TOTAL FREE ENERGY PREDICTED BY IDOCK:   -9.39 KCAL/MOL
REMARK 923 INTER-LIGAND FREE ENERGY PREDICTED BY IDOCK:   -8.01 KCAL/MOL
REMARK 924 INTRA-LIGAND FREE ENERGY PREDICTED BY IDOCK:   -1.38 KCAL/MOL
REMARK 927      BINDING AFFINITY PREDICTED BY RF-SCORE:    0.00 PKD
ROOT
HETATM    1  C   UNL     1      -9.230   4.125  68.696  1.00  0.00    -0.203 C  
HETATM    2  C   UNL     1      -9.894   5.462  68.935  1.00  0.00    -0.166 C  
ENDROOT
BRANCH   2   3
HETATM    3  O   UNL     1     -10.802   5.347  70.050  1.00  0.00    -0.293 OA 
BRANCH   3   4
HETATM    4  C   UNL     1     -10.961   6.498  70.781  1.00  0.00    -0.276 A  
HETATM    5  C   UNL     1     -10.770   6.454  72.171  1.00  0.00    -0.259 A  
HETATM    6  C   UNL     1     -11.000   7.618  72.928  1.00  0.00    -0.456 A  
HETATM    7  C   UNL     1     -10.360   5.232  72.939  1.00  0.00    -0.196 C  
HETATM    8  C   UNL     1     -11.407   8.802  72.318  1.00  0.00    -0.356 A  
HETATM    9  O   UNL     1     -10.295   5.214  74.162  1.00  0.00    -0.226 OA 
HETATM   10  O   UNL     1     -10.040   4.164  72.189  1.00  0.00    -0.177 OA 
HETATM   11  C   UNL     1     -11.571   8.858  70.930  1.00  0.00    -0.331 A  
HETATM   12  C   UNL     1     -11.307   7.714  70.171  1.00  0.00    -0.147 A  
BRANCH  11  13
HETATM   13  C   UNL     1     -12.024  10.124  70.250  1.00  0.00    -0.315 C  
BRANCH  13  14
HETATM   14  C   UNL     1     -11.041  10.634  69.214  1.00  0.00    -0.252 C  
HETATM   15  O   UNL     1      -9.831  10.567  69.424  1.00  0.00    -0.221 OA 
HETATM   16  N   UNL     1     -11.597  11.140  68.051  1.00  0.00    -0.288 N  
HETATM   17  H   UNL     1     -12.612  11.211  67.972  1.00  0.00     0.000 HD 
BRANCH  16  18
HETATM   18  C   UNL     1     -10.753  11.578  66.925  1.00  0.00    -0.263 C  
BRANCH  18  19
HETATM   19  C   UNL     1      -9.490  12.377  67.291  1.00  0.00    -0.191 A  
HETATM   20  C   UNL     1      -8.152  11.897  67.084  1.00  0.00    -0.172 A  
HETATM   21  C   UNL     1      -7.108  12.827  67.348  1.00  0.00    -0.134 A  
HETATM   22  C   UNL     1      -9.676  13.727  67.705  1.00  0.00    -0.230 A  
HETATM   23  C   UNL     1      -7.322  14.149  67.744  1.00  0.00    -0.177 A  
HETATM   24  C   UNL     1      -8.611  14.601  67.925  1.00  0.00    -0.165 A  
BRANCH  20  25
HETATM   25  N   UNL     1      -7.761  10.620  66.665  1.00  0.00    -0.125 NA 
HETATM   26  C   UNL     1      -7.094   9.692  67.606  1.00  0.00    -0.088 C  
HETATM   27  C   UNL     1      -7.745   8.308  67.500  1.00  0.00    -0.099 C  
HETATM   28  C   UNL     1      -7.645   7.772  66.076  1.00  0.00    -0.087 C  
HETATM   29  C   UNL     1      -8.241   8.766  65.098  1.00  0.00    -0.149 C  
HETATM   30  C   UNL     1      -7.682  10.172  65.275  1.00  0.00    -0.144 C  
ENDBRANCH  20  25
ENDBRANCH  18  19
BRANCH  18  31
HETATM   31  C   UNL     1     -11.552  12.372  65.873  1.00  0.00    -0.449 C  
HETATM   32  C   UNL     1     -10.074  11.850  63.823  1.00  0.00    -0.423 C  
HETATM   33  C   UNL     1     -11.482  11.849  64.423  1.00  0.00    -0.393 C  
HETATM   34  C   UNL     1     -12.374  12.729  63.541  1.00  0.00    -0.559 C  
ENDBRANCH  18  31
ENDBRANCH  16  18
ENDBRANCH  13  14
ENDBRANCH  11  13
ENDBRANCH   3   4
ENDBRANCH   2   3
TORSDOF 8
ENDMDL
MODEL      167
REMARK 921   NORMALIZED FREE ENERGY PREDICTED BY IDOCK:   -4.75 KCAL/MOL
REMARK 922        TOTAL FREE ENERGY PREDICTED BY IDOCK:   -9.37 KCAL/MOL
REMARK 923 INTER-LIGAND FREE ENERGY PREDICTED BY IDOCK:   -7.70 KCAL/MOL
REMARK 924 INTRA-LIGAND FREE ENERGY PREDICTED BY IDOCK:   -1.67 KCAL/MOL
REMARK 927      BINDING AFFINITY PREDICTED BY RF-SCORE:    0.00 PKD
ROOT
HETATM    1  C   UNL     1      -7.768  10.012  63.299  1.00  0.00    -0.147 C  
HETATM    2  C   UNL     1      -7.772   8.655  63.968  1.00  0.00    -0.134 C  
ENDROOT
BRANCH   2   3
HETATM    3  O   UNL     1      -7.189   8.774  65.282  1.00  0.00    -0.082 OA 
BRANCH   3   4
HETATM    4  C   UNL     1      -8.094   8.740  66.314  1.00  0.00    -0.107 A  
HETATM    5  C   UNL     1      -7.961   7.753  67.303  1.00  0.00    -0.118 A  
HETATM    6  C   UNL     1      -8.928   7.675  68.323  1.00  0.00    -0.127 A  
HETATM    7  C   UNL     1      -6.864   6.730  67.348  1.00  0.00    -0.073 C  
HETATM    8  C   UNL     1     -10.001   8.562  68.363  1.00  0.00    -0.208 A  
HETATM    9  O   UNL     1      -6.839   5.828  68.176  1.00  0.00    -0.062 OA 
HETATM   10  O   UNL     1      -5.895   6.888  66.432  1.00  0.00    -0.028 OA 
HETATM   11  C   UNL     1     -10.122   9.564  67.396  1.00  0.00    -0.262 A  
HETATM   12  C   UNL     1      -9.143   9.669  66.404  1.00  0.00    -0.191 A  
BRANCH  11  13
HETATM   13  C   UNL     1     -11.283  10.526  67.411  1.00  0.00    -0.249 C  
BRANCH  13  14
HETATM   14  C   UNL     1     -10.982  11.819  68.144  1.00  0.00    -0.228 C  
HETATM   15  O   UNL     1      -9.874  12.001  68.646  1.00  0.00    -0.194 OA 
HETATM   16  N   UNL     1     -12.009  12.746  68.179  1.00  0.00    -0.308 N  
HETATM   17  H   UNL     1     -12.918  12.501  67.786  1.00  0.00     0.000 HD 
BRANCH  16  18
HETATM   18  C   UNL     1     -11.817  14.081  68.774  1.00  0.00    -0.361 C  
BRANCH  18  19
HETATM   19  C   UNL     1     -10.675  14.930  68.188  1.00  0.00    -0.251 A  
HETATM   20  C   UNL     1     -10.410  15.054  66.782  1.00  0.00    -0.270 A  
HETATM   21  C   UNL     1      -9.405  15.993  66.417  1.00  0.00    -0.329 A  
HETATM   22  C   UNL     1      -9.953  15.759  69.095  1.00  0.00    -0.241 A  
HETATM   23  C   UNL     1      -8.722  16.799  67.328  1.00  0.00    -0.214 A  
HETATM   24  C   UNL     1      -8.994  16.680  68.674  1.00  0.00    -0.246 A  
BRANCH  20  25
HETATM   25  N   UNL     1     -11.018  14.350  65.737  1.00  0.00    -0.305 NA 
HETATM   26  C   UNL     1     -10.201  13.755  64.655  1.00  0.00    -0.284 C  
HETATM   27  C   UNL     1     -10.662  12.315  64.404  1.00  0.00    -0.369 C  
HETATM   28  C   UNL     1     -12.138  12.278  64.025  1.00  0.00    -0.563 C  
HETATM   29  C   UNL     1     -12.970  12.974  65.086  1.00  0.00    -0.159 C  
HETATM   30  C   UNL     1     -12.447  14.364  65.424  1.00  0.00    -0.350 C  
ENDBRANCH  20  25
ENDBRANCH  18  19
BRANCH  18  31
HETATM   31  C   UNL     1     -11.650  14.018  70.305  1.00  0.00    -0.240 C  
HETATM   32  C   UNL     1     -13.766  15.341  70.958  1.00  0.00    -0.452 C  
HETATM   33  C   UNL     1     -12.948  14.061  71.137  1.00  0.00    -0.402 C  
HETATM   34  C   UNL     1     -12.583  13.935  72.620  1.00  0.00    -0.148 C  
ENDBRANCH  18  31
ENDBRANCH  16  18
ENDBRANCH  13  14
ENDBRANCH  11  13
ENDBRANCH   3   4
ENDBRANCH   2   3
TORSDOF 8
ENDMDL
MODEL      168
REMARK 921   NORMALIZED FREE ENERGY PREDICTED BY IDOCK:   -4.74 KCAL/MOL
REMARK 922        TOTAL FREE ENERGY PREDICTED BY IDOCK:   -9.36 KCAL/MOL
REMARK 923 INTER-LIGAND FREE ENERGY PREDICTED BY IDOCK:   -8.68 KCAL/MOL
REMARK 924 INTRA-LIGAND FREE ENERGY PREDICTED BY IDOCK:   -0.68 KCAL/MOL
REMARK 927      BINDING AFFINITY PREDICTED BY RF-SCORE:    0.00 PKD
ROOT
HETATM    1  C   UNL     1     -10.664  16.185  66.863  1.00  0.00    -0.247 C  
HETATM    2  C   UNL     1     -10.357  17.536  66.256  1.00  0.00    -0.335 C  
ENDROOT
BRANCH   2   3
HETATM    3  O   UNL     1      -8.935  17.645  66.041  1.00  0.00    -0.495 OA 
BRANCH   3   4
HETATM    4  C   UNL     1      -8.164  16.967  66.952  1.00  0.00    -0.213 A  
HETATM    5  C   UNL     1      -7.623  17.669  68.041  1.00  0.00    -0.226 A  
HETATM    6  C   UNL     1      -6.777  16.990  68.937  1.00  0.00    -0.203 A  
HETATM    7  C   UNL     1      -7.853  19.126  68.319  1.00  0.00    -0.315 C  
HETATM    8  C   UNL     1      -6.478  15.641  68.760  1.00  0.00    -0.109 A  
HETATM    9  O   UNL     1      -7.286  19.720  69.228  1.00  0.00    -0.327 OA 
HETATM   10  O   UNL     1      -8.747  19.728  67.518  1.00  0.00    -0.310 OA 
HETATM   11  C   UNL     1      -7.037  14.931  67.692  1.00  0.00    -0.208 A  
HETATM   12  C   UNL     1      -7.908  15.593  66.822  1.00  0.00    -0.211 A  
BRANCH  11  13
HETATM   13  C   UNL     1      -6.716  13.475  67.472  1.00  0.00    -0.144 C  
BRANCH  13  14
HETATM   14  C   UNL     1      -7.927  12.570  67.587  1.00  0.00    -0.170 C  
HETATM   15  O   UNL     1      -8.442  12.362  68.684  1.00  0.00    -0.102 OA 
HETATM   16  N   UNL     1      -8.397  12.036  66.399  1.00  0.00    -0.391 N  
HETATM   17  H   UNL     1      -7.884  12.211  65.535  1.00  0.00     0.000 HD 
BRANCH  16  18
HETATM   18  C   UNL     1      -9.623  11.219  66.357  1.00  0.00    -0.198 C  
BRANCH  18  19
HETATM   19  C   UNL     1      -9.446   9.711  66.610  1.00  0.00    -0.221 A  
HETATM   20  C   UNL     1     -10.118   8.990  67.654  1.00  0.00    -0.216 A  
HETATM   21  C   UNL     1      -9.945   7.578  67.648  1.00  0.00    -0.219 A  
HETATM   22  C   UNL     1      -8.697   8.977  65.645  1.00  0.00    -0.205 A  
HETATM   23  C   UNL     1      -9.214   6.885  66.683  1.00  0.00    -0.185 A  
HETATM   24  C   UNL     1      -8.585   7.587  65.677  1.00  0.00    -0.131 A  
BRANCH  20  25
HETATM   25  N   UNL     1     -10.910   9.519  68.679  1.00  0.00    -0.181 NA 
HETATM   26  C   UNL     1     -11.243   8.704  69.869  1.00  0.00    -0.041 C  
HETATM   27  C   UNL     1     -11.014   9.538  71.135  1.00  0.00    -0.438 C  
HETATM   28  C   UNL     1     -11.866  10.802  71.112  1.00  0.00    -0.277 C  
HETATM   29  C   UNL     1     -11.598  11.591  69.844  1.00  0.00    -0.387 C  
HETATM   30  C   UNL     1     -11.711  10.740  68.587  1.00  0.00    -0.219 C  
ENDBRANCH  20  25
ENDBRANCH  18  19
BRANCH  18  31
HETATM   31  C   UNL     1     -10.407  11.411  65.044  1.00  0.00    -0.342 C  
HETATM   32  C   UNL     1     -12.175  13.076  65.915  1.00  0.00    -0.493 C  
HETATM   33  C   UNL     1     -11.109  12.772  64.860  1.00  0.00    -0.324 C  
HETATM   34  C   UNL     1     -11.785  12.792  63.484  1.00  0.00    -0.597 C  
ENDBRANCH  18  31
ENDBRANCH  16  18
ENDBRANCH  13  14
ENDBRANCH  11  13
ENDBRANCH   3   4
ENDBRANCH   2   3
TORSDOF 8
ENDMDL
MODEL      169
REMARK 921   NORMALIZED FREE ENERGY PREDICTED BY IDOCK:   -4.73 KCAL/MOL
REMARK 922        TOTAL FREE ENERGY PREDICTED BY IDOCK:   -9.34 KCAL/MOL
REMARK 923 INTER-LIGAND FREE ENERGY PREDICTED BY IDOCK:   -7.86 KCAL/MOL
REMARK 924 INTRA-LIGAND FREE ENERGY PREDICTED BY IDOCK:   -1.48 KCAL/MOL
REMARK 927      BINDING AFFINITY PREDICTED BY RF-SCORE:    0.00 PKD
ROOT
HETATM    1  C   UNL     1     -12.548  15.481  74.077  1.00  0.00    -0.766 C  
HETATM    2  C   UNL     1     -13.634  15.881  73.104  1.00  0.00    -0.499 C  
ENDROOT
BRANCH   2   3
HETATM    3  O   UNL     1     -14.065  14.716  72.371  1.00  0.00    -0.463 OA 
BRANCH   3   4
HETATM    4  C   UNL     1     -13.293  14.410  71.278  1.00  0.00    -0.343 A  
HETATM    5  C   UNL     1     -12.884  13.081  71.084  1.00  0.00    -0.331 A  
HETATM    6  C   UNL     1     -12.037  12.780  70.001  1.00  0.00    -0.355 A  
HETATM    7  C   UNL     1     -13.261  11.932  71.972  1.00  0.00    -0.356 C  
HETATM    8  C   UNL     1     -11.607  13.776  69.127  1.00  0.00    -0.363 A  
HETATM    9  O   UNL     1     -12.807  10.805  71.819  1.00  0.00    -0.435 OA 
HETATM   10  O   UNL     1     -14.156  12.220  72.932  1.00  0.00     0.286 OA 
HETATM   11  C   UNL     1     -12.034  15.096  69.301  1.00  0.00    -0.322 A  
HETATM   12  C   UNL     1     -12.906  15.392  70.352  1.00  0.00    -0.355 A  
BRANCH  11  13
HETATM   13  C   UNL     1     -11.570  16.193  68.377  1.00  0.00    -0.228 C  
BRANCH  13  14
HETATM   14  C   UNL     1     -10.102  16.089  68.011  1.00  0.00    -0.240 C  
HETATM   15  O   UNL     1      -9.653  16.734  67.066  1.00  0.00    -0.229 OA 
HETATM   16  N   UNL     1      -9.338  15.257  68.812  1.00  0.00    -0.199 N  
HETATM   17  H   UNL     1      -9.793  14.713  69.545  1.00  0.00     0.000 HD 
BRANCH  16  18
HETATM   18  C   UNL     1      -7.880  15.141  68.627  1.00  0.00    -0.140 C  
BRANCH  18  19
HETATM   19  C   UNL     1      -7.232  13.836  69.121  1.00  0.00    -0.016 A  
HETATM   20  C   UNL     1      -7.468  12.550  68.527  1.00  0.00    -0.122 A  
HETATM   21  C   UNL     1      -6.674  11.479  69.023  1.00  0.00    -0.098 A  
HETATM   22  C   UNL     1      -6.221  13.953  70.119  1.00  0.00    -0.123 A  
HETATM   23  C   UNL     1      -5.683  11.626  69.995  1.00  0.00    -0.128 A  
HETATM   24  C   UNL     1      -5.456  12.868  70.547  1.00  0.00    -0.163 A  
BRANCH  20  25
HETATM   25  N   UNL     1      -8.396  12.232  67.529  1.00  0.00    -0.159 NA 
HETATM   26  C   UNL     1      -8.909  10.850  67.393  1.00  0.00    -0.133 C  
HETATM   27  C   UNL     1     -10.433  10.888  67.237  1.00  0.00    -0.275 C  
HETATM   28  C   UNL     1     -10.832  11.716  66.022  1.00  0.00    -0.339 C  
HETATM   29  C   UNL     1     -10.227  13.104  66.111  1.00  0.00    -0.291 C  
HETATM   30  C   UNL     1      -8.728  13.075  66.381  1.00  0.00     0.184 C  
ENDBRANCH  20  25
ENDBRANCH  18  19
BRANCH  18  31
HETATM   31  C   UNL     1      -7.119  16.334  69.239  1.00  0.00    -0.222 C  
HETATM   32  C   UNL     1      -5.878  17.104  67.112  1.00  0.00    -0.192 C  
HETATM   33  C   UNL     1      -6.784  17.496  68.281  1.00  0.00    -0.197 C  
HETATM   34  C   UNL     1      -6.081  18.600  69.077  1.00  0.00    -0.247 C  
ENDBRANCH  18  31
ENDBRANCH  16  18
ENDBRANCH  13  14
ENDBRANCH  11  13
ENDBRANCH   3   4
ENDBRANCH   2   3
TORSDOF 8
ENDMDL
MODEL      170
REMARK 921   NORMALIZED FREE ENERGY PREDICTED BY IDOCK:   -4.72 KCAL/MOL
REMARK 922        TOTAL FREE ENERGY PREDICTED BY IDOCK:   -9.33 KCAL/MOL
REMARK 923 INTER-LIGAND FREE ENERGY PREDICTED BY IDOCK:   -7.27 KCAL/MOL
REMARK 924 INTRA-LIGAND FREE ENERGY PREDICTED BY IDOCK:   -2.06 KCAL/MOL
REMARK 927      BINDING AFFINITY PREDICTED BY RF-SCORE:    0.00 PKD
ROOT
HETATM    1  C   UNL     1      -9.010   9.447  62.346  1.00  0.00    -0.258 C  
HETATM    2  C   UNL     1      -7.710   8.953  62.939  1.00  0.00    -0.116 C  
ENDROOT
BRANCH   2   3
HETATM    3  O   UNL     1      -7.957   7.733  63.669  1.00  0.00    -0.138 OA 
BRANCH   3   4
HETATM    4  C   UNL     1      -7.767   7.829  65.025  1.00  0.00    -0.107 A  
HETATM    5  C   UNL     1      -8.057   6.719  65.833  1.00  0.00    -0.123 A  
HETATM    6  C   UNL     1      -7.927   6.839  67.230  1.00  0.00    -0.114 A  
HETATM    7  C   UNL     1      -8.533   5.390  65.323  1.00  0.00    -0.149 C  
HETATM    8  C   UNL     1      -7.515   8.036  67.812  1.00  0.00    -0.094 A  
HETATM    9  O   UNL     1      -8.864   4.478  66.070  1.00  0.00    -0.116 OA 
HETATM   10  O   UNL     1      -8.545   5.262  63.986  1.00  0.00    -0.130 OA 
HETATM   11  C   UNL     1      -7.198   9.136  67.009  1.00  0.00    -0.090 A  
HETATM   12  C   UNL     1      -7.289   9.008  65.619  1.00  0.00    -0.086 A  
BRANCH  11  13
HETATM   13  C   UNL     1      -6.764  10.445  67.617  1.00  0.00    -0.074 C  
BRANCH  13  14
HETATM   14  C   UNL     1      -7.905  11.424  67.812  1.00  0.00    -0.117 C  
HETATM   15  O   UNL     1      -8.794  11.182  68.627  1.00  0.00    -0.159 OA 
HETATM   16  N   UNL     1      -7.853  12.574  67.044  1.00  0.00    -0.355 N  
HETATM   17  H   UNL     1      -7.112  12.679  66.351  1.00  0.00     0.000 HD 
BRANCH  16  18
HETATM   18  C   UNL     1      -8.847  13.651  67.206  1.00  0.00    -0.224 C  
BRANCH  18  19
HETATM   19  C   UNL     1     -10.204  13.435  66.515  1.00  0.00    -0.282 A  
HETATM   20  C   UNL     1     -11.445  13.967  67.004  1.00  0.00    -0.351 A  
HETATM   21  C   UNL     1     -12.576  13.788  66.160  1.00  0.00    -0.423 A  
HETATM   22  C   UNL     1     -10.186  12.808  65.235  1.00  0.00    -0.296 A  
HETATM   23  C   UNL     1     -12.526  13.179  64.905  1.00  0.00    -0.490 A  
HETATM   24  C   UNL     1     -11.326  12.685  64.441  1.00  0.00    -0.393 A  
BRANCH  20  25
HETATM   25  N   UNL     1     -11.668  14.628  68.217  1.00  0.00    -0.328 NA 
HETATM   26  C   UNL     1     -12.406  13.960  69.313  1.00  0.00    -0.161 C  
HETATM   27  C   UNL     1     -11.645  14.156  70.629  1.00  0.00    -0.169 C  
HETATM   28  C   UNL     1     -11.475  15.638  70.941  1.00  0.00    -0.425 C  
HETATM   29  C   UNL     1     -10.806  16.345  69.777  1.00  0.00    -0.343 C  
HETATM   30  C   UNL     1     -11.489  16.062  68.446  1.00  0.00    -0.331 C  
ENDBRANCH  20  25
ENDBRANCH  18  19
BRANCH  18  31
HETATM   31  C   UNL     1      -8.290  15.025  66.784  1.00  0.00    -0.189 C  
HETATM   32  C   UNL     1      -7.302  15.732  69.060  1.00  0.00    -0.177 C  
HETATM   33  C   UNL     1      -7.059  15.533  67.563  1.00  0.00    -0.220 C  
HETATM   34  C   UNL     1      -6.625  16.877  66.969  1.00  0.00    -0.241 C  
ENDBRANCH  18  31
ENDBRANCH  16  18
ENDBRANCH  13  14
ENDBRANCH  11  13
ENDBRANCH   3   4
ENDBRANCH   2   3
TORSDOF 8
ENDMDL
MODEL      171
REMARK 921   NORMALIZED FREE ENERGY PREDICTED BY IDOCK:   -4.72 KCAL/MOL
REMARK 922        TOTAL FREE ENERGY PREDICTED BY IDOCK:   -9.32 KCAL/MOL
REMARK 923 INTER-LIGAND FREE ENERGY PREDICTED BY IDOCK:   -7.67 KCAL/MOL
REMARK 924 INTRA-LIGAND FREE ENERGY PREDICTED BY IDOCK:   -1.65 KCAL/MOL
REMARK 927      BINDING AFFINITY PREDICTED BY RF-SCORE:    0.00 PKD
ROOT
HETATM    1  C   UNL     1      -9.380   5.701  67.852  1.00  0.00    -0.112 C  
HETATM    2  C   UNL     1     -10.766   5.641  68.452  1.00  0.00    -0.156 C  
ENDROOT
BRANCH   2   3
HETATM    3  O   UNL     1     -10.675   5.151  69.806  1.00  0.00    -0.225 OA 
BRANCH   3   4
HETATM    4  C   UNL     1     -10.886   6.102  70.773  1.00  0.00    -0.288 A  
HETATM    5  C   UNL     1     -10.284   5.938  72.031  1.00  0.00    -0.237 A  
HETATM    6  C   UNL     1     -10.556   6.877  73.044  1.00  0.00    -0.307 A  
HETATM    7  C   UNL     1      -9.375   4.804  72.403  1.00  0.00    -0.130 C  
HETATM    8  C   UNL     1     -11.404   7.957  72.813  1.00  0.00    -0.453 A  
HETATM    9  O   UNL     1      -8.946   4.649  73.539  1.00  0.00    -0.105 OA 
HETATM   10  O   UNL     1      -9.042   3.982  71.394  1.00  0.00    -0.106 OA 
HETATM   11  C   UNL     1     -11.985   8.138  71.554  1.00  0.00    -0.334 A  
HETATM   12  C   UNL     1     -11.687   7.230  70.534  1.00  0.00    -0.264 A  
BRANCH  11  13
HETATM   13  C   UNL     1     -12.918   9.291  71.285  1.00  0.00    -0.342 C  
BRANCH  13  14
HETATM   14  C   UNL     1     -12.262  10.430  70.529  1.00  0.00    -0.323 C  
HETATM   15  O   UNL     1     -12.481  11.596  70.854  1.00  0.00    -0.376 OA 
HETATM   16  N   UNL     1     -11.414  10.062  69.498  1.00  0.00    -0.419 N  
HETATM   17  H   UNL     1     -11.324   9.076  69.253  1.00  0.00     0.000 HD 
BRANCH  16  18
HETATM   18  C   UNL     1     -10.638  11.066  68.747  1.00  0.00    -0.202 C  
BRANCH  18  19
HETATM   19  C   UNL     1     -10.425  10.780  67.250  1.00  0.00    -0.282 A  
HETATM   20  C   UNL     1     -10.396  11.798  66.237  1.00  0.00    -0.224 A  
HETATM   21  C   UNL     1     -10.045  11.366  64.928  1.00  0.00    -0.323 A  
HETATM   22  C   UNL     1     -10.075   9.447  66.888  1.00  0.00    -0.314 A  
HETATM   23  C   UNL     1      -9.697  10.054  64.606  1.00  0.00    -0.339 A  
HETATM   24  C   UNL     1      -9.714   9.089  65.589  1.00  0.00    -0.178 A  
BRANCH  20  25
HETATM   25  N   UNL     1     -10.687  13.159  66.390  1.00  0.00    -0.282 NA 
HETATM   26  C   UNL     1     -12.084  13.613  66.577  1.00  0.00    -0.423 C  
HETATM   27  C   UNL     1     -12.141  14.615  67.736  1.00  0.00    -0.211 C  
HETATM   28  C   UNL     1     -11.234  15.810  67.462  1.00  0.00    -0.218 C  
HETATM   29  C   UNL     1      -9.821  15.341  67.174  1.00  0.00    -0.225 C  
HETATM   30  C   UNL     1      -9.768  14.259  66.102  1.00  0.00    -0.303 C  
ENDBRANCH  20  25
ENDBRANCH  18  19
BRANCH  18  31
HETATM   31  C   UNL     1      -9.270  11.349  69.396  1.00  0.00     0.498 C  
HETATM   32  C   UNL     1      -8.694   8.935  70.102  1.00  0.00    -0.168 C  
HETATM   33  C   UNL     1      -8.245  10.197  69.363  1.00  0.00    -0.171 C  
HETATM   34  C   UNL     1      -6.940  10.683  70.003  1.00  0.00    -0.131 C  
ENDBRANCH  18  31
ENDBRANCH  16  18
ENDBRANCH  13  14
ENDBRANCH  11  13
ENDBRANCH   3   4
ENDBRANCH   2   3
TORSDOF 8
ENDMDL
MODEL      172
REMARK 921   NORMALIZED FREE ENERGY PREDICTED BY IDOCK:   -4.72 KCAL/MOL
REMARK 922        TOTAL FREE ENERGY PREDICTED BY IDOCK:   -9.32 KCAL/MOL
REMARK 923 INTER-LIGAND FREE ENERGY PREDICTED BY IDOCK:   -8.08 KCAL/MOL
REMARK 924 INTRA-LIGAND FREE ENERGY PREDICTED BY IDOCK:   -1.24 KCAL/MOL
REMARK 927      BINDING AFFINITY PREDICTED BY RF-SCORE:    0.00 PKD
ROOT
HETATM    1  C   UNL     1     -10.708  11.894  64.215  1.00  0.00    -0.388 C  
HETATM    2  C   UNL     1     -11.632  11.507  65.347  1.00  0.00     0.082 C  
ENDROOT
BRANCH   2   3
HETATM    3  O   UNL     1     -10.844  11.174  66.508  1.00  0.00    -0.274 OA 
BRANCH   3   4
HETATM    4  C   UNL     1     -11.207  11.835  67.655  1.00  0.00    -0.281 A  
HETATM    5  C   UNL     1     -11.293  11.115  68.857  1.00  0.00    -0.344 A  
HETATM    6  C   UNL     1     -11.731  11.778  70.019  1.00  0.00    -0.386 A  
HETATM    7  C   UNL     1     -10.977   9.655  69.005  1.00  0.00    -0.132 C  
HETATM    8  C   UNL     1     -12.073  13.128  69.990  1.00  0.00    -0.375 A  
HETATM    9  O   UNL     1     -11.155   9.045  70.052  1.00  0.00    -0.239 OA 
HETATM   10  O   UNL     1     -10.458   9.069  67.913  1.00  0.00    -0.231 OA 
HETATM   11  C   UNL     1     -11.963  13.855  68.801  1.00  0.00    -0.393 A  
HETATM   12  C   UNL     1     -11.491  13.210  67.654  1.00  0.00    -0.366 A  
BRANCH  11  13
HETATM   13  C   UNL     1     -12.341  15.313  68.741  1.00  0.00     0.058 C  
BRANCH  13  14
HETATM   14  C   UNL     1     -11.149  16.246  68.828  1.00  0.00    -0.355 C  
HETATM   15  O   UNL     1     -10.858  16.781  69.896  1.00  0.00    -0.309 OA 
HETATM   16  N   UNL     1     -10.432  16.421  67.656  1.00  0.00    -0.296 N  
HETATM   17  H   UNL     1     -10.766  15.986  66.796  1.00  0.00     0.000 HD 
BRANCH  16  18
HETATM   18  C   UNL     1      -9.197  17.224  67.625  1.00  0.00    -0.229 C  
BRANCH  18  19
HETATM   19  C   UNL     1      -7.927  16.542  68.165  1.00  0.00    -0.163 A  
HETATM   20  C   UNL     1      -6.631  17.160  68.178  1.00  0.00    -0.158 A  
HETATM   21  C   UNL     1      -5.603  16.437  68.845  1.00  0.00    -0.122 A  
HETATM   22  C   UNL     1      -8.097  15.295  68.833  1.00  0.00    -0.180 A  
HETATM   23  C   UNL     1      -5.802  15.221  69.500  1.00  0.00    -0.108 A  
HETATM   24  C   UNL     1      -7.054  14.646  69.493  1.00  0.00    -0.152 A  
BRANCH  20  25
HETATM   25  N   UNL     1      -6.264  18.380  67.600  1.00  0.00    -0.178 NA 
HETATM   26  C   UNL     1      -5.870  18.449  66.175  1.00  0.00    -0.174 C  
HETATM   27  C   UNL     1      -6.591  19.624  65.505  1.00  0.00    -0.297 C  
HETATM   28  C   UNL     1      -6.253  20.936  66.205  1.00  0.00    -0.309 C  
HETATM   29  C   UNL     1      -6.565  20.835  67.686  1.00  0.00    -0.390 C  
HETATM   30  C   UNL     1      -5.946  19.604  68.335  1.00  0.00    -0.234 C  
ENDBRANCH  20  25
ENDBRANCH  18  19
BRANCH  18  31
HETATM   31  C   UNL     1      -9.367  18.583  68.334  1.00  0.00    -0.359 C  
HETATM   32  C   UNL     1     -10.298  19.922  66.336  1.00  0.00    -0.611 C  
HETATM   33  C   UNL     1     -10.483  19.500  67.795  1.00  0.00    -0.574 C  
HETATM   34  C   UNL     1     -10.532  20.769  68.653  1.00  0.00     0.394 C  
ENDBRANCH  18  31
ENDBRANCH  16  18
ENDBRANCH  13  14
ENDBRANCH  11  13
ENDBRANCH   3   4
ENDBRANCH   2   3
TORSDOF 8
ENDMDL
MODEL      173
REMARK 921   NORMALIZED FREE ENERGY PREDICTED BY IDOCK:   -4.71 KCAL/MOL
REMARK 922        TOTAL FREE ENERGY PREDICTED BY IDOCK:   -9.31 KCAL/MOL
REMARK 923 INTER-LIGAND FREE ENERGY PREDICTED BY IDOCK:   -7.53 KCAL/MOL
REMARK 924 INTRA-LIGAND FREE ENERGY PREDICTED BY IDOCK:   -1.79 KCAL/MOL
REMARK 927      BINDING AFFINITY PREDICTED BY RF-SCORE:    0.00 PKD
ROOT
HETATM    1  C   UNL     1      -5.564   4.773  68.524  1.00  0.00    -0.016 C  
HETATM    2  C   UNL     1      -6.206   5.277  67.251  1.00  0.00    -0.031 C  
ENDROOT
BRANCH   2   3
HETATM    3  O   UNL     1      -7.447   4.574  67.036  1.00  0.00    -0.079 OA 
BRANCH   3   4
HETATM    4  C   UNL     1      -8.574   5.303  67.323  1.00  0.00    -0.105 A  
HETATM    5  C   UNL     1      -9.711   5.145  66.515  1.00  0.00    -0.184 A  
HETATM    6  C   UNL     1     -10.843   5.941  66.766  1.00  0.00    -0.347 A  
HETATM    7  C   UNL     1      -9.812   4.193  65.359  1.00  0.00    -0.208 C  
HETATM    8  C   UNL     1     -10.849   6.874  67.801  1.00  0.00    -0.312 A  
HETATM    9  O   UNL     1     -10.790   4.153  64.622  1.00  0.00    -0.265 OA 
HETATM   10  O   UNL     1      -8.764   3.366  65.203  1.00  0.00    -0.112 OA 
HETATM   11  C   UNL     1      -9.729   7.016  68.626  1.00  0.00    -0.139 A  
HETATM   12  C   UNL     1      -8.617   6.199  68.403  1.00  0.00    -0.112 A  
BRANCH  11  13
HETATM   13  C   UNL     1      -9.707   8.029  69.742  1.00  0.00    -0.176 C  
BRANCH  13  14
HETATM   14  C   UNL     1     -10.122   9.419  69.299  1.00  0.00    -0.196 C  
HETATM   15  O   UNL     1     -10.965  10.045  69.939  1.00  0.00    -0.253 OA 
HETATM   16  N   UNL     1      -9.483   9.911  68.174  1.00  0.00    -0.138 N  
HETATM   17  H   UNL     1      -8.833   9.311  67.666  1.00  0.00     0.000 HD 
BRANCH  16  18
HETATM   18  C   UNL     1      -9.723  11.284  67.695  1.00  0.00    -0.171 C  
BRANCH  18  19
HETATM   19  C   UNL     1     -10.006  11.441  66.190  1.00  0.00    -0.265 A  
HETATM   20  C   UNL     1     -10.378  12.682  65.571  1.00  0.00    -0.286 A  
HETATM   21  C   UNL     1     -10.460  12.671  64.151  1.00  0.00    -0.438 A  
HETATM   22  C   UNL     1      -9.720  10.320  65.357  1.00  0.00    -0.340 A  
HETATM   23  C   UNL     1     -10.163  11.560  63.360  1.00  0.00    -0.462 A  
HETATM   24  C   UNL     1      -9.793  10.378  63.966  1.00  0.00    -0.355 A  
BRANCH  20  25
HETATM   25  N   UNL     1     -10.680  13.892  66.206  1.00  0.00    -0.284 NA 
HETATM   26  C   UNL     1     -11.993  14.092  66.858  1.00  0.00    -0.447 C  
HETATM   27  C   UNL     1     -11.782  14.702  68.248  1.00  0.00    -0.359 C  
HETATM   28  C   UNL     1     -11.040  16.031  68.148  1.00  0.00    -0.344 C  
HETATM   29  C   UNL     1      -9.737  15.848  67.394  1.00  0.00    -0.227 C  
HETATM   30  C   UNL     1      -9.925  15.137  66.060  1.00  0.00    -0.311 C  
ENDBRANCH  20  25
ENDBRANCH  18  19
BRANCH  18  31
HETATM   31  C   UNL     1      -8.582  12.244  68.086  1.00  0.00    -0.181 C  
HETATM   32  C   UNL     1      -6.601  10.812  67.261  1.00  0.00    -0.075 C  
HETATM   33  C   UNL     1      -7.302  12.171  67.228  1.00  0.00    -0.149 C  
HETATM   34  C   UNL     1      -6.313  13.228  67.732  1.00  0.00    -0.161 C  
ENDBRANCH  18  31
ENDBRANCH  16  18
ENDBRANCH  13  14
ENDBRANCH  11  13
ENDBRANCH   3   4
ENDBRANCH   2   3
TORSDOF 8
ENDMDL
MODEL      174
REMARK 921   NORMALIZED FREE ENERGY PREDICTED BY IDOCK:   -4.70 KCAL/MOL
REMARK 922        TOTAL FREE ENERGY PREDICTED BY IDOCK:   -9.29 KCAL/MOL
REMARK 923 INTER-LIGAND FREE ENERGY PREDICTED BY IDOCK:   -8.01 KCAL/MOL
REMARK 924 INTRA-LIGAND FREE ENERGY PREDICTED BY IDOCK:   -1.28 KCAL/MOL
REMARK 927      BINDING AFFINITY PREDICTED BY RF-SCORE:    0.00 PKD
ROOT
HETATM    1  C   UNL     1      -7.859   6.999  73.235  1.00  0.00    -0.108 C  
HETATM    2  C   UNL     1      -9.136   7.066  74.042  1.00  0.00    -0.208 C  
ENDROOT
BRANCH   2   3
HETATM    3  O   UNL     1     -10.180   6.367  73.334  1.00  0.00    -0.196 OA 
BRANCH   3   4
HETATM    4  C   UNL     1     -10.562   6.953  72.152  1.00  0.00    -0.213 A  
HETATM    5  C   UNL     1     -10.430   6.226  70.959  1.00  0.00    -0.274 A  
HETATM    6  C   UNL     1     -10.757   6.851  69.741  1.00  0.00    -0.276 A  
HETATM    7  C   UNL     1      -9.930   4.814  70.868  1.00  0.00    -0.213 C  
HETATM    8  C   UNL     1     -11.209   8.168  69.708  1.00  0.00     0.027 A  
HETATM    9  O   UNL     1      -9.743   4.249  69.797  1.00  0.00    -0.200 OA 
HETATM   10  O   UNL     1      -9.728   4.200  72.046  1.00  0.00    -0.149 OA 
HETATM   11  C   UNL     1     -11.368   8.886  70.897  1.00  0.00    -0.336 A  
HETATM   12  C   UNL     1     -11.081   8.257  72.112  1.00  0.00    -0.397 A  
BRANCH  11  13
HETATM   13  C   UNL     1     -11.841  10.317  70.885  1.00  0.00    -0.473 C  
BRANCH  13  14
HETATM   14  C   UNL     1     -11.357  11.099  69.680  1.00  0.00    -0.294 C  
HETATM   15  O   UNL     1     -12.148  11.768  69.018  1.00  0.00    -0.305 OA 
HETATM   16  N   UNL     1     -10.001  11.017  69.411  1.00  0.00    -0.429 N  
HETATM   17  H   UNL     1      -9.417  10.399  69.974  1.00  0.00     0.000 HD 
BRANCH  16  18
HETATM   18  C   UNL     1      -9.385  11.805  68.329  1.00  0.00    -0.193 C  
BRANCH  18  19
HETATM   19  C   UNL     1      -9.804  11.437  66.894  1.00  0.00    -0.218 A  
HETATM   20  C   UNL     1     -10.305  12.385  65.939  1.00  0.00    -0.257 A  
HETATM   21  C   UNL     1     -10.507  11.893  64.620  1.00  0.00    -0.340 A  
HETATM   22  C   UNL     1      -9.520  10.111  66.457  1.00  0.00    -0.214 A  
HETATM   23  C   UNL     1     -10.209  10.590  64.218  1.00  0.00    -0.314 A  
HETATM   24  C   UNL     1      -9.715   9.693  65.141  1.00  0.00    -0.287 A  
BRANCH  20  25
HETATM   25  N   UNL     1     -10.628  13.728  66.162  1.00  0.00    -0.287 NA 
HETATM   26  C   UNL     1     -11.933  14.099  66.754  1.00  0.00    -0.447 C  
HETATM   27  C   UNL     1     -11.711  15.127  67.869  1.00  0.00    -0.275 C  
HETATM   28  C   UNL     1     -11.009  16.368  67.330  1.00  0.00    -0.118 C  
HETATM   29  C   UNL     1      -9.717  15.979  66.636  1.00  0.00    -0.261 C  
HETATM   30  C   UNL     1      -9.911  14.875  65.606  1.00  0.00    -0.358 C  
ENDBRANCH  20  25
ENDBRANCH  18  19
BRANCH  18  31
HETATM   31  C   UNL     1      -7.845  11.802  68.410  1.00  0.00    -0.141 C  
HETATM   32  C   UNL     1      -7.563   9.706  69.889  1.00  0.00    -0.138 C  
HETATM   33  C   UNL     1      -7.173  10.426  68.595  1.00  0.00    -0.082 C  
HETATM   34  C   UNL     1      -5.653  10.619  68.600  1.00  0.00    -0.040 C  
ENDBRANCH  18  31
ENDBRANCH  16  18
ENDBRANCH  13  14
ENDBRANCH  11  13
ENDBRANCH   3   4
ENDBRANCH   2   3
TORSDOF 8
ENDMDL
MODEL      175
REMARK 921   NORMALIZED FREE ENERGY PREDICTED BY IDOCK:   -4.69 KCAL/MOL
REMARK 922        TOTAL FREE ENERGY PREDICTED BY IDOCK:   -9.28 KCAL/MOL
REMARK 923 INTER-LIGAND FREE ENERGY PREDICTED BY IDOCK:   -7.73 KCAL/MOL
REMARK 924 INTRA-LIGAND FREE ENERGY PREDICTED BY IDOCK:   -1.55 KCAL/MOL
REMARK 927      BINDING AFFINITY PREDICTED BY RF-SCORE:    0.00 PKD
ROOT
HETATM    1  C   UNL     1      -9.296  11.976  66.898  1.00  0.00    -0.200 C  
HETATM    2  C   UNL     1     -10.505  11.070  66.972  1.00  0.00    -0.240 C  
ENDROOT
BRANCH   2   3
HETATM    3  O   UNL     1     -11.679  11.868  67.230  1.00  0.00    -0.518 OA 
BRANCH   3   4
HETATM    4  C   UNL     1     -11.976  12.035  68.560  1.00  0.00    -0.214 A  
HETATM    5  C   UNL     1     -11.961  13.329  69.103  1.00  0.00    -0.343 A  
HETATM    6  C   UNL     1     -12.199  13.493  70.481  1.00  0.00    -0.433 A  
HETATM    7  C   UNL     1     -11.677  14.581  68.325  1.00  0.00    -0.335 C  
HETATM    8  C   UNL     1     -12.450  12.396  71.301  1.00  0.00    -0.274 A  
HETATM    9  O   UNL     1     -11.583  15.680  68.857  1.00  0.00    -0.343 OA 
HETATM   10  O   UNL     1     -11.562  14.415  66.997  1.00  0.00    -0.352 OA 
HETATM   11  C   UNL     1     -12.493  11.107  70.759  1.00  0.00    -0.479 A  
HETATM   12  C   UNL     1     -12.295  10.945  69.385  1.00  0.00    -0.188 A  
BRANCH  11  13
HETATM   13  C   UNL     1     -12.748   9.904  71.629  1.00  0.00    -0.527 C  
BRANCH  13  14
HETATM   14  C   UNL     1     -11.948   8.684  71.216  1.00  0.00    -0.293 C  
HETATM   15  O   UNL     1     -12.521   7.626  70.960  1.00  0.00    -0.274 OA 
HETATM   16  N   UNL     1     -10.577   8.860  71.135  1.00  0.00    -0.241 N  
HETATM   17  H   UNL     1     -10.170   9.752  71.415  1.00  0.00     0.000 HD 
BRANCH  16  18
HETATM   18  C   UNL     1      -9.693   7.783  70.652  1.00  0.00    -0.177 C  
BRANCH  18  19
HETATM   19  C   UNL     1      -8.429   7.514  71.487  1.00  0.00    -0.120 A  
HETATM   20  C   UNL     1      -7.419   6.559  71.125  1.00  0.00    -0.085 A  
HETATM   21  C   UNL     1      -6.252   6.546  71.939  1.00  0.00    -0.042 A  
HETATM   22  C   UNL     1      -8.185   8.382  72.591  1.00  0.00    -0.190 A  
HETATM   23  C   UNL     1      -6.036   7.417  73.008  1.00  0.00    -0.055 A  
HETATM   24  C   UNL     1      -7.008   8.338  73.338  1.00  0.00    -0.148 A  
BRANCH  20  25
HETATM   25  N   UNL     1      -7.458   5.637  70.073  1.00  0.00    -0.069 NA 
HETATM   26  C   UNL     1      -8.215   4.372  70.210  1.00  0.00    -0.066 C  
HETATM   27  C   UNL     1      -9.066   4.152  68.955  1.00  0.00    -0.186 C  
HETATM   28  C   UNL     1      -8.190   4.105  67.708  1.00  0.00    -0.094 C  
HETATM   29  C   UNL     1      -7.340   5.358  67.617  1.00  0.00    -0.076 C  
HETATM   30  C   UNL     1      -6.579   5.647  68.904  1.00  0.00    -0.048 C  
ENDBRANCH  20  25
ENDBRANCH  18  19
BRANCH  18  31
HETATM   31  C   UNL     1      -9.279   7.986  69.181  1.00  0.00    -0.151 C  
HETATM   32  C   UNL     1     -10.984   6.382  68.098  1.00  0.00    -0.393 C  
HETATM   33  C   UNL     1     -10.386   7.790  68.125  1.00  0.00    -0.248 C  
HETATM   34  C   UNL     1      -9.800   8.084  66.740  1.00  0.00    -0.327 C  
ENDBRANCH  18  31
ENDBRANCH  16  18
ENDBRANCH  13  14
ENDBRANCH  11  13
ENDBRANCH   3   4
ENDBRANCH   2   3
TORSDOF 8
ENDMDL
MODEL      176
REMARK 921   NORMALIZED FREE ENERGY PREDICTED BY IDOCK:   -4.68 KCAL/MOL
REMARK 922        TOTAL FREE ENERGY PREDICTED BY IDOCK:   -9.27 KCAL/MOL
REMARK 923 INTER-LIGAND FREE ENERGY PREDICTED BY IDOCK:   -7.24 KCAL/MOL
REMARK 924 INTRA-LIGAND FREE ENERGY PREDICTED BY IDOCK:   -2.02 KCAL/MOL
REMARK 927      BINDING AFFINITY PREDICTED BY RF-SCORE:    0.00 PKD
ROOT
HETATM    1  C   UNL     1      -8.196   7.815  69.808  1.00  0.00    -0.129 C  
HETATM    2  C   UNL     1      -8.757   7.507  68.438  1.00  0.00    -0.123 C  
ENDROOT
BRANCH   2   3
HETATM    3  O   UNL     1      -8.218   8.446  67.485  1.00  0.00    -0.122 OA 
BRANCH   3   4
HETATM    4  C   UNL     1      -9.131   9.340  66.985  1.00  0.00    -0.130 A  
HETATM    5  C   UNL     1      -9.112   9.637  65.613  1.00  0.00    -0.236 A  
HETATM    6  C   UNL     1     -10.002  10.605  65.112  1.00  0.00    -0.366 A  
HETATM    7  C   UNL     1      -8.178   9.015  64.616  1.00  0.00    -0.160 C  
HETATM    8  C   UNL     1     -10.897  11.262  65.954  1.00  0.00    -0.264 A  
HETATM    9  O   UNL     1      -8.132   9.371  63.445  1.00  0.00    -0.135 OA 
HETATM   10  O   UNL     1      -7.413   8.018  65.092  1.00  0.00    -0.077 OA 
HETATM   11  C   UNL     1     -10.939  10.949  67.316  1.00  0.00    -0.355 A  
HETATM   12  C   UNL     1     -10.082   9.961  67.810  1.00  0.00    -0.221 A  
BRANCH  11  13
HETATM   13  C   UNL     1     -11.887  11.657  68.249  1.00  0.00    -0.335 C  
BRANCH  13  14
HETATM   14  C   UNL     1     -11.903  13.162  68.061  1.00  0.00    -0.358 C  
HETATM   15  O   UNL     1     -12.476  13.659  67.093  1.00  0.00    -0.263 OA 
HETATM   16  N   UNL     1     -11.262  13.899  69.042  1.00  0.00    -0.263 N  
HETATM   17  H   UNL     1     -10.763  13.413  69.787  1.00  0.00     0.000 HD 
BRANCH  16  18
HETATM   18  C   UNL     1     -11.286  15.373  69.032  1.00  0.00    -0.291 C  
BRANCH  18  19
HETATM   19  C   UNL     1     -10.261  16.065  68.115  1.00  0.00    -0.243 A  
HETATM   20  C   UNL     1      -8.910  15.611  67.939  1.00  0.00    -0.171 A  
HETATM   21  C   UNL     1      -8.150  16.287  66.944  1.00  0.00    -0.270 A  
HETATM   22  C   UNL     1     -10.745  17.114  67.280  1.00  0.00    -0.208 A  
HETATM   23  C   UNL     1      -8.654  17.305  66.133  1.00  0.00    -0.207 A  
HETATM   24  C   UNL     1      -9.957  17.722  66.303  1.00  0.00    -0.322 A  
BRANCH  20  25
HETATM   25  N   UNL     1      -8.257  14.591  68.641  1.00  0.00    -0.149 NA 
HETATM   26  C   UNL     1      -8.256  13.204  68.124  1.00  0.00    -0.160 C  
HETATM   27  C   UNL     1      -6.834  12.637  68.196  1.00  0.00    -0.090 C  
HETATM   28  C   UNL     1      -6.314  12.662  69.628  1.00  0.00    -0.095 C  
HETATM   29  C   UNL     1      -6.405  14.066  70.195  1.00  0.00    -0.107 C  
HETATM   30  C   UNL     1      -7.787  14.681  70.023  1.00  0.00     0.454 C  
ENDBRANCH  20  25
ENDBRANCH  18  19
BRANCH  18  31
HETATM   31  C   UNL     1     -11.161  15.968  70.449  1.00  0.00    -0.376 C  
HETATM   32  C   UNL     1     -13.531  15.396  71.294  1.00  0.00    -0.598 C  
HETATM   33  C   UNL     1     -12.024  15.310  71.545  1.00  0.00    -0.429 C  
HETATM   34  C   UNL     1     -11.725  15.997  72.882  1.00  0.00    -0.443 C  
ENDBRANCH  18  31
ENDBRANCH  16  18
ENDBRANCH  13  14
ENDBRANCH  11  13
ENDBRANCH   3   4
ENDBRANCH   2   3
TORSDOF 8
ENDMDL
MODEL      177
REMARK 921   NORMALIZED FREE ENERGY PREDICTED BY IDOCK:   -4.67 KCAL/MOL
REMARK 922        TOTAL FREE ENERGY PREDICTED BY IDOCK:   -9.25 KCAL/MOL
REMARK 923 INTER-LIGAND FREE ENERGY PREDICTED BY IDOCK:   -8.86 KCAL/MOL
REMARK 924 INTRA-LIGAND FREE ENERGY PREDICTED BY IDOCK:   -0.39 KCAL/MOL
REMARK 927      BINDING AFFINITY PREDICTED BY RF-SCORE:    0.00 PKD
ROOT
HETATM    1  C   UNL     1     -12.374  15.297  74.051  1.00  0.00    -0.767 C  
HETATM    2  C   UNL     1     -13.570  15.934  73.381  1.00  0.00    -0.307 C  
ENDROOT
BRANCH   2   3
HETATM    3  O   UNL     1     -14.068  15.045  72.359  1.00  0.00    -0.474 OA 
BRANCH   3   4
HETATM    4  C   UNL     1     -13.190  14.806  71.332  1.00  0.00    -0.371 A  
HETATM    5  C   UNL     1     -12.743  13.494  71.110  1.00  0.00    -0.425 A  
HETATM    6  C   UNL     1     -11.791  13.259  70.101  1.00  0.00    -0.333 A  
HETATM    7  C   UNL     1     -13.186  12.295  71.897  1.00  0.00    -0.376 C  
HETATM    8  C   UNL     1     -11.294  14.303  69.325  1.00  0.00    -0.322 A  
HETATM    9  O   UNL     1     -12.702  11.183  71.732  1.00  0.00    -0.377 OA 
HETATM   10  O   UNL     1     -14.174  12.522  72.780  1.00  0.00    -0.074 OA 
HETATM   11  C   UNL     1     -11.757  15.608  69.524  1.00  0.00    -0.382 A  
HETATM   12  C   UNL     1     -12.731  15.839  70.499  1.00  0.00    -0.277 A  
BRANCH  11  13
HETATM   13  C   UNL     1     -11.223  16.757  68.707  1.00  0.00    -0.148 C  
BRANCH  13  14
HETATM   14  C   UNL     1     -10.573  16.319  67.409  1.00  0.00    -0.307 C  
HETATM   15  O   UNL     1     -10.228  17.156  66.577  1.00  0.00    -0.304 OA 
HETATM   16  N   UNL     1     -10.390  14.955  67.255  1.00  0.00    -0.250 N  
HETATM   17  H   UNL     1     -10.751  14.319  67.966  1.00  0.00     0.000 HD 
BRANCH  16  18
HETATM   18  C   UNL     1      -9.684  14.403  66.085  1.00  0.00    -0.312 C  
BRANCH  18  19
HETATM   19  C   UNL     1     -10.496  13.459  65.181  1.00  0.00    -0.358 A  
HETATM   20  C   UNL     1     -10.609  12.044  65.398  1.00  0.00    -0.278 A  
HETATM   21  C   UNL     1     -11.516  11.353  64.548  1.00  0.00    -0.123 A  
HETATM   22  C   UNL     1     -11.305  14.063  64.176  1.00  0.00    -0.173 A  
HETATM   23  C   UNL     1     -12.304  11.974  63.578  1.00  0.00    -0.661 A  
HETATM   24  C   UNL     1     -12.197  13.335  63.388  1.00  0.00    -0.476 A  
BRANCH  20  25
HETATM   25  N   UNL     1      -9.920  11.270  66.339  1.00  0.00    -0.208 NA 
HETATM   26  C   UNL     1      -8.935  10.255  65.902  1.00  0.00    -0.158 C  
HETATM   27  C   UNL     1      -7.658  10.396  66.737  1.00  0.00    -0.110 C  
HETATM   28  C   UNL     1      -7.961  10.225  68.222  1.00  0.00    -0.106 C  
HETATM   29  C   UNL     1      -9.042  11.199  68.652  1.00  0.00    -0.166 C  
HETATM   30  C   UNL     1     -10.271  11.147  67.754  1.00  0.00    -0.180 C  
ENDBRANCH  20  25
ENDBRANCH  18  19
BRANCH  18  31
HETATM   31  C   UNL     1      -8.368  13.701  66.477  1.00  0.00     0.434 C  
HETATM   32  C   UNL     1      -6.997  15.804  67.072  1.00  0.00    -0.128 C  
HETATM   33  C   UNL     1      -7.490  14.425  67.517  1.00  0.00    -0.206 C  
HETATM   34  C   UNL     1      -6.264  13.555  67.814  1.00  0.00    -0.159 C  
ENDBRANCH  18  31
ENDBRANCH  16  18
ENDBRANCH  13  14
ENDBRANCH  11  13
ENDBRANCH   3   4
ENDBRANCH   2   3
TORSDOF 8
ENDMDL
MODEL      178
REMARK 921   NORMALIZED FREE ENERGY PREDICTED BY IDOCK:   -4.66 KCAL/MOL
REMARK 922        TOTAL FREE ENERGY PREDICTED BY IDOCK:   -9.23 KCAL/MOL
REMARK 923 INTER-LIGAND FREE ENERGY PREDICTED BY IDOCK:   -7.05 KCAL/MOL
REMARK 924 INTRA-LIGAND FREE ENERGY PREDICTED BY IDOCK:   -2.18 KCAL/MOL
REMARK 927      BINDING AFFINITY PREDICTED BY RF-SCORE:    0.00 PKD
ROOT
HETATM    1  C   UNL     1     -11.084  11.353  66.667  1.00  0.00    -0.333 C  
HETATM    2  C   UNL     1     -11.039  10.590  67.972  1.00  0.00    -0.300 C  
ENDROOT
BRANCH   2   3
HETATM    3  O   UNL     1     -10.924  11.526  69.063  1.00  0.00    -0.214 OA 
BRANCH   3   4
HETATM    4  C   UNL     1     -11.789  11.299  70.105  1.00  0.00    -0.364 A  
HETATM    5  C   UNL     1     -12.489  12.384  70.656  1.00  0.00    -0.320 A  
HETATM    6  C   UNL     1     -13.323  12.163  71.768  1.00  0.00    -0.342 A  
HETATM    7  C   UNL     1     -12.399  13.799  70.165  1.00  0.00    -0.323 C  
HETATM    8  C   UNL     1     -13.463  10.891  72.319  1.00  0.00    -0.049 A  
HETATM    9  O   UNL     1     -12.955  14.730  70.733  1.00  0.00    -0.349 OA 
HETATM   10  O   UNL     1     -11.685  13.970  69.039  1.00  0.00    -0.284 OA 
HETATM   11  C   UNL     1     -12.788   9.803  71.756  1.00  0.00    -0.530 A  
HETATM   12  C   UNL     1     -11.989  10.012  70.629  1.00  0.00    -0.401 A  
BRANCH  11  13
HETATM   13  C   UNL     1     -12.912   8.421  72.344  1.00  0.00    -0.297 C  
BRANCH  13  14
HETATM   14  C   UNL     1     -12.220   7.354  71.519  1.00  0.00    -0.337 C  
HETATM   15  O   UNL     1     -12.736   6.942  70.482  1.00  0.00    -0.152 OA 
HETATM   16  N   UNL     1     -10.997   6.915  72.001  1.00  0.00    -0.229 N  
HETATM   17  H   UNL     1     -10.659   7.266  72.896  1.00  0.00     0.000 HD 
BRANCH  16  18
HETATM   18  C   UNL     1     -10.176   5.953  71.245  1.00  0.00    -0.210 C  
BRANCH  18  19
HETATM   19  C   UNL     1      -9.839   4.634  71.962  1.00  0.00    -0.239 A  
HETATM   20  C   UNL     1      -9.058   3.581  71.376  1.00  0.00    -0.114 A  
HETATM   21  C   UNL     1      -8.727   2.497  72.236  1.00  0.00    -0.089 A  
HETATM   22  C   UNL     1     -10.193   4.537  73.339  1.00  0.00    -0.220 A  
HETATM   23  C   UNL     1      -9.078   2.435  73.585  1.00  0.00    -0.081 A  
HETATM   24  C   UNL     1      -9.816   3.459  74.140  1.00  0.00    -0.159 A  
BRANCH  20  25
HETATM   25  N   UNL     1      -8.598   3.496  70.057  1.00  0.00    -0.059 NA 
HETATM   26  C   UNL     1      -9.492   3.014  68.979  1.00  0.00    -0.101 C  
HETATM   27  C   UNL     1      -9.387   3.956  67.775  1.00  0.00    -0.230 C  
HETATM   28  C   UNL     1      -7.950   4.030  67.269  1.00  0.00    -0.092 C  
HETATM   29  C   UNL     1      -7.018   4.430  68.397  1.00  0.00    -0.052 C  
HETATM   30  C   UNL     1      -7.198   3.569  69.641  1.00  0.00    -0.042 C  
ENDBRANCH  20  25
ENDBRANCH  18  19
BRANCH  18  31
HETATM   31  C   UNL     1      -8.867   6.583  70.729  1.00  0.00    -0.144 C  
HETATM   32  C   UNL     1      -9.730   7.394  68.437  1.00  0.00    -0.158 C  
HETATM   33  C   UNL     1      -9.016   7.757  69.741  1.00  0.00    -0.146 C  
HETATM   34  C   UNL     1      -7.619   8.280  69.387  1.00  0.00    -0.096 C  
ENDBRANCH  18  31
ENDBRANCH  16  18
ENDBRANCH  13  14
ENDBRANCH  11  13
ENDBRANCH   3   4
ENDBRANCH   2   3
TORSDOF 8
ENDMDL
MODEL      179
REMARK 921   NORMALIZED FREE ENERGY PREDICTED BY IDOCK:   -4.65 KCAL/MOL
REMARK 922        TOTAL FREE ENERGY PREDICTED BY IDOCK:   -9.23 KCAL/MOL
REMARK 923 INTER-LIGAND FREE ENERGY PREDICTED BY IDOCK:   -7.45 KCAL/MOL
REMARK 924 INTRA-LIGAND FREE ENERGY PREDICTED BY IDOCK:   -1.78 KCAL/MOL
REMARK 927      BINDING AFFINITY PREDICTED BY RF-SCORE:    0.00 PKD
ROOT
HETATM    1  C   UNL     1      -8.113   5.948  66.208  1.00  0.00    -0.104 C  
HETATM    2  C   UNL     1      -8.684   7.091  65.401  1.00  0.00     0.029 C  
ENDROOT
BRANCH   2   3
HETATM    3  O   UNL     1      -9.600   7.841  66.226  1.00  0.00    -0.184 OA 
BRANCH   3   4
HETATM    4  C   UNL     1      -9.004   8.761  67.052  1.00  0.00    -0.131 A  
HETATM    5  C   UNL     1      -9.428   8.854  68.387  1.00  0.00    -0.147 A  
HETATM    6  C   UNL     1      -8.865   9.843  69.214  1.00  0.00    -0.178 A  
HETATM    7  C   UNL     1     -10.477   7.983  69.013  1.00  0.00    -0.199 C  
HETATM    8  C   UNL     1      -7.899  10.721  68.728  1.00  0.00    -0.129 A  
HETATM    9  O   UNL     1     -10.883   8.158  70.155  1.00  0.00    -0.243 OA 
HETATM   10  O   UNL     1     -10.922   6.977  68.241  1.00  0.00    -0.169 OA 
HETATM   11  C   UNL     1      -7.453  10.615  67.407  1.00  0.00    -0.094 A  
HETATM   12  C   UNL     1      -7.982   9.608  66.593  1.00  0.00    -0.109 A  
BRANCH  11  13
HETATM   13  C   UNL     1      -6.419  11.562  66.855  1.00  0.00    -0.144 C  
BRANCH  13  14
HETATM   14  C   UNL     1      -6.560  12.977  67.382  1.00  0.00    -0.107 C  
HETATM   15  O   UNL     1      -5.562  13.620  67.703  1.00  0.00    -0.274 OA 
HETATM   16  N   UNL     1      -7.852  13.472  67.448  1.00  0.00    -0.246 N  
HETATM   17  H   UNL     1      -8.634  12.860  67.213  1.00  0.00     0.000 HD 
BRANCH  16  18
HETATM   18  C   UNL     1      -8.121  14.864  67.849  1.00  0.00    -0.142 C  
BRANCH  18  19
HETATM   19  C   UNL     1      -9.533  15.159  68.383  1.00  0.00    -0.208 A  
HETATM   20  C   UNL     1     -10.741  14.795  67.696  1.00  0.00    -0.270 A  
HETATM   21  C   UNL     1     -11.953  15.018  68.406  1.00  0.00    -0.231 A  
HETATM   22  C   UNL     1      -9.630  15.675  69.708  1.00  0.00    -0.192 A  
HETATM   23  C   UNL     1     -12.016  15.515  69.708  1.00  0.00    -0.384 A  
HETATM   24  C   UNL     1     -10.850  15.847  70.363  1.00  0.00    -0.325 A  
BRANCH  20  25
HETATM   25  N   UNL     1     -10.858  14.261  66.408  1.00  0.00    -0.303 NA 
HETATM   26  C   UNL     1     -10.624  12.819  66.168  1.00  0.00    -0.266 C  
HETATM   27  C   UNL     1     -11.752  12.260  65.294  1.00  0.00    -0.413 C  
HETATM   28  C   UNL     1     -11.828  13.006  63.966  1.00  0.00    -0.510 C  
HETATM   29  C   UNL     1     -11.970  14.497  64.210  1.00  0.00    -0.419 C  
HETATM   30  C   UNL     1     -10.920  15.038  65.171  1.00  0.00    -0.406 C  
ENDBRANCH  20  25
ENDBRANCH  18  19
BRANCH  18  31
HETATM   31  C   UNL     1      -7.800  15.867  66.723  1.00  0.00    -0.273 C  
HETATM   32  C   UNL     1      -6.959  17.812  68.195  1.00  0.00    -0.212 C  
HETATM   33  C   UNL     1      -6.676  16.884  67.012  1.00  0.00    -0.242 C  
HETATM   34  C   UNL     1      -6.469  17.752  65.767  1.00  0.00    -0.220 C  
ENDBRANCH  18  31
ENDBRANCH  16  18
ENDBRANCH  13  14
ENDBRANCH  11  13
ENDBRANCH   3   4
ENDBRANCH   2   3
TORSDOF 8
ENDMDL
MODEL      180
REMARK 921   NORMALIZED FREE ENERGY PREDICTED BY IDOCK:   -4.63 KCAL/MOL
REMARK 922        TOTAL FREE ENERGY PREDICTED BY IDOCK:   -9.19 KCAL/MOL
REMARK 923 INTER-LIGAND FREE ENERGY PREDICTED BY IDOCK:   -7.23 KCAL/MOL
REMARK 924 INTRA-LIGAND FREE ENERGY PREDICTED BY IDOCK:   -1.96 KCAL/MOL
REMARK 927      BINDING AFFINITY PREDICTED BY RF-SCORE:    0.00 PKD
ROOT
HETATM    1  C   UNL     1     -11.012  15.457  70.749  1.00  0.00    -0.349 C  
HETATM    2  C   UNL     1     -11.958  14.996  69.663  1.00  0.00    -0.321 C  
ENDROOT
BRANCH   2   3
HETATM    3  O   UNL     1     -11.839  15.878  68.527  1.00  0.00    -0.366 OA 
BRANCH   3   4
HETATM    4  C   UNL     1     -11.346  15.284  67.391  1.00  0.00    -0.284 A  
HETATM    5  C   UNL     1     -10.585  16.053  66.497  1.00  0.00    -0.284 A  
HETATM    6  C   UNL     1     -10.139  15.463  65.300  1.00  0.00    -0.354 A  
HETATM    7  C   UNL     1     -10.223  17.495  66.702  1.00  0.00    -0.332 C  
HETATM    8  C   UNL     1     -10.438  14.136  64.998  1.00  0.00    -0.447 A  
HETATM    9  O   UNL     1      -9.637  18.154  65.852  1.00  0.00    -0.519 OA 
HETATM   10  O   UNL     1     -10.564  18.007  67.896  1.00  0.00    -0.394 OA 
HETATM   11  C   UNL     1     -11.173  13.359  65.899  1.00  0.00    -0.314 A  
HETATM   12  C   UNL     1     -11.585  13.930  67.106  1.00  0.00    -0.391 A  
BRANCH  11  13
HETATM   13  C   UNL     1     -11.521  11.926  65.587  1.00  0.00    -0.314 C  
BRANCH  13  14
HETATM   14  C   UNL     1     -10.312  11.013  65.533  1.00  0.00    -0.260 C  
HETATM   15  O   UNL     1      -9.997  10.465  64.478  1.00  0.00    -0.332 OA 
HETATM   16  N   UNL     1      -9.609  10.870  66.717  1.00  0.00    -0.180 N  
HETATM   17  H   UNL     1      -9.962  11.314  67.565  1.00  0.00     0.000 HD 
BRANCH  16  18
HETATM   18  C   UNL     1      -8.360  10.090  66.779  1.00  0.00    -0.125 C  
BRANCH  18  19
HETATM   19  C   UNL     1      -8.496   8.569  66.585  1.00  0.00    -0.116 A  
HETATM   20  C   UNL     1      -7.751   7.816  65.615  1.00  0.00    -0.101 A  
HETATM   21  C   UNL     1      -7.901   6.402  65.675  1.00  0.00    -0.099 A  
HETATM   22  C   UNL     1      -9.289   7.864  67.536  1.00  0.00    -0.166 A  
HETATM   23  C   UNL     1      -8.677   5.739  66.626  1.00  0.00    -0.119 A  
HETATM   24  C   UNL     1      -9.376   6.472  67.560  1.00  0.00    -0.124 A  
BRANCH  20  25
HETATM   25  N   UNL     1      -6.909   8.314  64.615  1.00  0.00    -0.067 NA 
HETATM   26  C   UNL     1      -7.132   7.957  63.196  1.00  0.00    -0.087 C  
HETATM   27  C   UNL     1      -7.054   9.223  62.336  1.00  0.00    -0.099 C  
HETATM   28  C   UNL     1      -5.700   9.904  62.497  1.00  0.00    -0.094 C  
HETATM   29  C   UNL     1      -5.424  10.184  63.962  1.00  0.00    -0.123 C  
HETATM   30  C   UNL     1      -5.613   8.954  64.841  1.00  0.00    -0.054 C  
ENDBRANCH  20  25
ENDBRANCH  18  19
BRANCH  18  31
HETATM   31  C   UNL     1      -7.571  10.353  68.077  1.00  0.00    -0.091 C  
HETATM   32  C   UNL     1      -5.801  11.960  67.108  1.00  0.00    -0.144 C  
HETATM   33  C   UNL     1      -6.864  11.720  68.182  1.00  0.00    -0.066 C  
HETATM   34  C   UNL     1      -6.184  11.816  69.552  1.00  0.00    -0.115 C  
ENDBRANCH  18  31
ENDBRANCH  16  18
ENDBRANCH  13  14
ENDBRANCH  11  13
ENDBRANCH   3   4
ENDBRANCH   2   3
TORSDOF 8
ENDMDL
MODEL      181
REMARK 921   NORMALIZED FREE ENERGY PREDICTED BY IDOCK:   -4.60 KCAL/MOL
REMARK 922        TOTAL FREE ENERGY PREDICTED BY IDOCK:   -9.14 KCAL/MOL
REMARK 923 INTER-LIGAND FREE ENERGY PREDICTED BY IDOCK:   -7.37 KCAL/MOL
REMARK 924 INTRA-LIGAND FREE ENERGY PREDICTED BY IDOCK:   -1.77 KCAL/MOL
REMARK 927      BINDING AFFINITY PREDICTED BY RF-SCORE:    0.00 PKD
ROOT
HETATM    1  C   UNL     1      -6.185   8.120  62.811  1.00  0.00    -0.082 C  
HETATM    2  C   UNL     1      -7.680   8.057  63.027  1.00  0.00    -0.136 C  
ENDROOT
BRANCH   2   3
HETATM    3  O   UNL     1      -8.029   6.756  63.543  1.00  0.00    -0.119 OA 
BRANCH   3   4
HETATM    4  C   UNL     1      -7.951   6.644  64.909  1.00  0.00    -0.121 A  
HETATM    5  C   UNL     1      -7.706   5.383  65.475  1.00  0.00    -0.091 A  
HETATM    6  C   UNL     1      -7.694   5.255  66.877  1.00  0.00    -0.096 A  
HETATM    7  C   UNL     1      -7.479   4.123  64.692  1.00  0.00    -0.072 C  
HETATM    8  C   UNL     1      -7.917   6.356  67.700  1.00  0.00    -0.114 A  
HETATM    9  O   UNL     1      -7.361   3.027  65.226  1.00  0.00    -0.065 OA 
HETATM   10  O   UNL     1      -7.385   4.285  63.361  1.00  0.00    -0.049 OA 
HETATM   11  C   UNL     1      -8.134   7.619  67.141  1.00  0.00    -0.118 A  
HETATM   12  C   UNL     1      -8.108   7.757  65.750  1.00  0.00    -0.125 A  
BRANCH  11  13
HETATM   13  C   UNL     1      -8.392   8.823  68.011  1.00  0.00    -0.119 C  
BRANCH  13  14
HETATM   14  C   UNL     1      -9.845   8.968  68.418  1.00  0.00    -0.166 C  
HETATM   15  O   UNL     1     -10.739   8.573  67.672  1.00  0.00    -0.219 OA 
HETATM   16  N   UNL     1     -10.070   9.540  69.659  1.00  0.00    -0.198 N  
HETATM   17  H   UNL     1      -9.279   9.892  70.198  1.00  0.00     0.000 HD 
BRANCH  16  18
HETATM   18  C   UNL     1     -11.430   9.651  70.217  1.00  0.00    -0.233 C  
BRANCH  18  19
HETATM   19  C   UNL     1     -11.904  11.069  70.581  1.00  0.00    -0.434 A  
HETATM   20  C   UNL     1     -11.766  12.206  69.714  1.00  0.00    -0.310 A  
HETATM   21  C   UNL     1     -12.388  13.406  70.157  1.00  0.00    -0.322 A  
HETATM   22  C   UNL     1     -12.663  11.210  71.779  1.00  0.00    -0.396 A  
HETATM   23  C   UNL     1     -13.136  13.512  71.330  1.00  0.00    -0.385 A  
HETATM   24  C   UNL     1     -13.272  12.410  72.147  1.00  0.00    -0.491 A  
BRANCH  20  25
HETATM   25  N   UNL     1     -11.080  12.268  68.496  1.00  0.00    -0.232 NA 
HETATM   26  C   UNL     1     -11.770  11.939  67.228  1.00  0.00    -0.247 C  
HETATM   27  C   UNL     1     -11.452  13.015  66.184  1.00  0.00    -0.381 C  
HETATM   28  C   UNL     1      -9.949  13.116  65.951  1.00  0.00    -0.275 C  
HETATM   29  C   UNL     1      -9.230  13.357  67.265  1.00  0.00    -0.222 C  
HETATM   30  C   UNL     1      -9.629  12.359  68.344  1.00  0.00    -0.180 C  
ENDBRANCH  20  25
ENDBRANCH  18  19
BRANCH  18  31
HETATM   31  C   UNL     1     -11.635   8.733  71.438  1.00  0.00    -0.366 C  
HETATM   32  C   UNL     1     -11.582   6.468  70.204  1.00  0.00    -0.466 C  
HETATM   33  C   UNL     1     -11.021   7.321  71.343  1.00  0.00    -0.256 C  
HETATM   34  C   UNL     1     -11.281   6.584  72.661  1.00  0.00    -0.284 C  
ENDBRANCH  18  31
ENDBRANCH  16  18
ENDBRANCH  13  14
ENDBRANCH  11  13
ENDBRANCH   3   4
ENDBRANCH   2   3
TORSDOF 8
ENDMDL
MODEL      182
REMARK 921   NORMALIZED FREE ENERGY PREDICTED BY IDOCK:   -4.59 KCAL/MOL
REMARK 922        TOTAL FREE ENERGY PREDICTED BY IDOCK:   -9.14 KCAL/MOL
REMARK 923 INTER-LIGAND FREE ENERGY PREDICTED BY IDOCK:   -8.05 KCAL/MOL
REMARK 924 INTRA-LIGAND FREE ENERGY PREDICTED BY IDOCK:   -1.09 KCAL/MOL
REMARK 927      BINDING AFFINITY PREDICTED BY RF-SCORE:    0.00 PKD
ROOT
HETATM    1  C   UNL     1     -11.147  15.502  70.931  1.00  0.00    -0.387 C  
HETATM    2  C   UNL     1     -12.126  15.127  69.842  1.00  0.00    -0.336 C  
ENDROOT
BRANCH   2   3
HETATM    3  O   UNL     1     -11.831  15.894  68.657  1.00  0.00    -0.388 OA 
BRANCH   3   4
HETATM    4  C   UNL     1     -11.331  15.160  67.610  1.00  0.00    -0.321 A  
HETATM    5  C   UNL     1     -10.555  15.807  66.635  1.00  0.00    -0.307 A  
HETATM    6  C   UNL     1     -10.100  15.070  65.526  1.00  0.00    -0.400 A  
HETATM    7  C   UNL     1     -10.186  17.261  66.662  1.00  0.00    -0.319 C  
HETATM    8  C   UNL     1     -10.404  13.717  65.389  1.00  0.00    -0.347 A  
HETATM    9  O   UNL     1      -9.586  17.806  65.743  1.00  0.00    -0.519 OA 
HETATM   10  O   UNL     1     -10.536  17.921  67.779  1.00  0.00    -0.392 OA 
HETATM   11  C   UNL     1     -11.153  13.062  66.372  1.00  0.00    -0.313 A  
HETATM   12  C   UNL     1     -11.575  13.782  67.494  1.00  0.00    -0.387 A  
BRANCH  11  13
HETATM   13  C   UNL     1     -11.508  11.604  66.238  1.00  0.00    -0.217 C  
BRANCH  13  14
HETATM   14  C   UNL     1     -10.306  10.684  66.329  1.00  0.00    -0.234 C  
HETATM   15  O   UNL     1      -9.714  10.337  65.308  1.00  0.00    -0.246 OA 
HETATM   16  N   UNL     1      -9.933  10.299  67.606  1.00  0.00    -0.173 N  
HETATM   17  H   UNL     1     -10.506  10.585  68.400  1.00  0.00     0.000 HD 
BRANCH  16  18
HETATM   18  C   UNL     1      -8.726   9.487  67.841  1.00  0.00    -0.119 C  
BRANCH  18  19
HETATM   19  C   UNL     1      -8.908   7.960  67.770  1.00  0.00    -0.122 A  
HETATM   20  C   UNL     1      -9.471   7.171  68.830  1.00  0.00    -0.141 A  
HETATM   21  C   UNL     1      -9.695   5.798  68.534  1.00  0.00    -0.161 A  
HETATM   22  C   UNL     1      -8.649   7.335  66.516  1.00  0.00    -0.134 A  
HETATM   23  C   UNL     1      -9.441   5.216  67.291  1.00  0.00    -0.141 A  
HETATM   24  C   UNL     1      -8.914   5.987  66.278  1.00  0.00    -0.156 A  
BRANCH  20  25
HETATM   25  N   UNL     1      -9.811   7.597  70.119  1.00  0.00    -0.184 NA 
HETATM   26  C   UNL     1     -11.057   8.362  70.354  1.00  0.00    -0.231 C  
HETATM   27  C   UNL     1     -11.792   7.773  71.563  1.00  0.00    -0.324 C  
HETATM   28  C   UNL     1     -10.911   7.814  72.806  1.00  0.00    -0.438 C  
HETATM   29  C   UNL     1      -9.592   7.115  72.536  1.00  0.00    -0.172 C  
HETATM   30  C   UNL     1      -8.909   7.616  71.270  1.00  0.00    -0.133 C  
ENDBRANCH  20  25
ENDBRANCH  18  19
BRANCH  18  31
HETATM   31  C   UNL     1      -8.037   9.841  69.174  1.00  0.00    -0.107 C  
HETATM   32  C   UNL     1      -5.723   8.816  68.670  1.00  0.00    -0.041 C  
HETATM   33  C   UNL     1      -6.509  10.049  69.119  1.00  0.00    -0.048 C  
HETATM   34  C   UNL     1      -6.018  10.442  70.517  1.00  0.00    -0.113 C  
ENDBRANCH  18  31
ENDBRANCH  16  18
ENDBRANCH  13  14
ENDBRANCH  11  13
ENDBRANCH   3   4
ENDBRANCH   2   3
TORSDOF 8
ENDMDL
MODEL      183
REMARK 921   NORMALIZED FREE ENERGY PREDICTED BY IDOCK:   -4.58 KCAL/MOL
REMARK 922        TOTAL FREE ENERGY PREDICTED BY IDOCK:   -9.12 KCAL/MOL
REMARK 923 INTER-LIGAND FREE ENERGY PREDICTED BY IDOCK:   -6.50 KCAL/MOL
REMARK 924 INTRA-LIGAND FREE ENERGY PREDICTED BY IDOCK:   -2.62 KCAL/MOL
REMARK 927      BINDING AFFINITY PREDICTED BY RF-SCORE:    0.00 PKD
ROOT
HETATM    1  C   UNL     1     -11.095  15.458  65.831  1.00  0.00    -0.247 C  
HETATM    2  C   UNL     1     -11.313  14.930  67.231  1.00  0.00    -0.349 C  
ENDROOT
BRANCH   2   3
HETATM    3  O   UNL     1     -10.807  15.889  68.182  1.00  0.00    -0.291 OA 
BRANCH   3   4
HETATM    4  C   UNL     1      -9.480  15.735  68.498  1.00  0.00    -0.201 A  
HETATM    5  C   UNL     1      -8.673  16.877  68.621  1.00  0.00    -0.267 A  
HETATM    6  C   UNL     1      -7.299  16.717  68.877  1.00  0.00    -0.225 A  
HETATM    7  C   UNL     1      -9.160  18.289  68.471  1.00  0.00    -0.311 C  
HETATM    8  C   UNL     1      -6.737  15.450  69.011  1.00  0.00    -0.128 A  
HETATM    9  O   UNL     1      -8.405  19.252  68.495  1.00  0.00    -0.344 OA 
HETATM   10  O   UNL     1     -10.490  18.425  68.337  1.00  0.00    -0.347 OA 
HETATM   11  C   UNL     1      -7.541  14.310  68.916  1.00  0.00    -0.113 A  
HETATM   12  C   UNL     1      -8.914  14.466  68.701  1.00  0.00    -0.172 A  
BRANCH  11  13
HETATM   13  C   UNL     1      -6.953  12.928  69.043  1.00  0.00    -0.058 C  
BRANCH  13  14
HETATM   14  C   UNL     1      -6.685  12.265  67.706  1.00  0.00    -0.107 C  
HETATM   15  O   UNL     1      -5.895  12.771  66.912  1.00  0.00    -0.256 OA 
HETATM   16  N   UNL     1      -7.361  11.079  67.474  1.00  0.00    -0.097 N  
HETATM   17  H   UNL     1      -8.041  10.749  68.159  1.00  0.00     0.000 HD 
BRANCH  16  18
HETATM   18  C   UNL     1      -7.118  10.283  66.257  1.00  0.00    -0.117 C  
BRANCH  18  19
HETATM   19  C   UNL     1      -8.158  10.425  65.132  1.00  0.00    -0.145 A  
HETATM   20  C   UNL     1      -9.573  10.528  65.358  1.00  0.00    -0.237 A  
HETATM   21  C   UNL     1     -10.369  10.796  64.210  1.00  0.00    -0.401 A  
HETATM   22  C   UNL     1      -7.660  10.626  63.812  1.00  0.00     0.173 A  
HETATM   23  C   UNL     1      -9.852  11.000  62.930  1.00  0.00    -0.319 A  
HETATM   24  C   UNL     1      -8.492  10.912  62.729  1.00  0.00    -0.184 A  
BRANCH  20  25
HETATM   25  N   UNL     1     -10.253  10.382  66.572  1.00  0.00    -0.226 NA 
HETATM   26  C   UNL     1     -10.476   9.038  67.152  1.00  0.00    -0.263 C  
HETATM   27  C   UNL     1     -10.112   9.062  68.641  1.00  0.00    -0.207 C  
HETATM   28  C   UNL     1     -10.947  10.098  69.385  1.00  0.00    -0.285 C  
HETATM   29  C   UNL     1     -10.797  11.459  68.732  1.00  0.00    -0.251 C  
HETATM   30  C   UNL     1     -11.044  11.421  67.230  1.00  0.00    -0.303 C  
ENDBRANCH  20  25
ENDBRANCH  18  19
BRANCH  18  31
HETATM   31  C   UNL     1      -6.928   8.786  66.569  1.00  0.00    -0.079 C  
HETATM   32  C   UNL     1      -5.199   9.026  68.468  1.00  0.00    -0.034 C  
HETATM   33  C   UNL     1      -6.536   8.433  68.019  1.00  0.00    -0.057 C  
HETATM   34  C   UNL     1      -6.446   6.909  68.145  1.00  0.00    -0.050 C  
ENDBRANCH  18  31
ENDBRANCH  16  18
ENDBRANCH  13  14
ENDBRANCH  11  13
ENDBRANCH   3   4
ENDBRANCH   2   3
TORSDOF 8
ENDMDL
MODEL      184
REMARK 921   NORMALIZED FREE ENERGY PREDICTED BY IDOCK:   -4.58 KCAL/MOL
REMARK 922        TOTAL FREE ENERGY PREDICTED BY IDOCK:   -9.11 KCAL/MOL
REMARK 923 INTER-LIGAND FREE ENERGY PREDICTED BY IDOCK:   -7.92 KCAL/MOL
REMARK 924 INTRA-LIGAND FREE ENERGY PREDICTED BY IDOCK:   -1.19 KCAL/MOL
REMARK 927      BINDING AFFINITY PREDICTED BY RF-SCORE:    0.00 PKD
ROOT
HETATM    1  C   UNL     1      -9.547   5.233  73.782  1.00  0.00    -0.139 C  
HETATM    2  C   UNL     1     -10.042   4.930  72.386  1.00  0.00    -0.187 C  
ENDROOT
BRANCH   2   3
HETATM    3  O   UNL     1      -8.940   5.035  71.461  1.00  0.00    -0.132 OA 
BRANCH   3   4
HETATM    4  C   UNL     1      -8.748   6.291  70.940  1.00  0.00    -0.136 A  
HETATM    5  C   UNL     1      -7.523   6.940  71.164  1.00  0.00    -0.082 A  
HETATM    6  C   UNL     1      -7.351   8.254  70.689  1.00  0.00    -0.057 A  
HETATM    7  C   UNL     1      -6.364   6.346  71.909  1.00  0.00    -0.043 C  
HETATM    8  C   UNL     1      -8.372   8.909  70.004  1.00  0.00    -0.133 A  
HETATM    9  O   UNL     1      -5.348   6.981  72.161  1.00  0.00    -0.035 OA 
HETATM   10  O   UNL     1      -6.507   5.056  72.257  1.00  0.00    -0.039 OA 
HETATM   11  C   UNL     1      -9.584   8.256  69.756  1.00  0.00    -0.171 A  
HETATM   12  C   UNL     1      -9.744   6.938  70.192  1.00  0.00    -0.175 A  
BRANCH  11  13
HETATM   13  C   UNL     1     -10.708   8.950  69.030  1.00  0.00    -0.148 C  
BRANCH  13  14
HETATM   14  C   UNL     1     -10.419  10.409  68.732  1.00  0.00    -0.199 C  
HETATM   15  O   UNL     1      -9.422  10.723  68.085  1.00  0.00    -0.150 OA 
HETATM   16  N   UNL     1     -11.347  11.318  69.213  1.00  0.00    -0.260 N  
HETATM   17  H   UNL     1     -12.121  10.986  69.787  1.00  0.00     0.000 HD 
BRANCH  16  18
HETATM   18  C   UNL     1     -11.238  12.757  68.911  1.00  0.00    -0.283 C  
BRANCH  18  19
HETATM   19  C   UNL     1     -11.666  13.722  70.030  1.00  0.00    -0.327 A  
HETATM   20  C   UNL     1     -11.344  15.122  70.047  1.00  0.00    -0.277 A  
HETATM   21  C   UNL     1     -11.944  15.887  71.085  1.00  0.00    -0.472 A  
HETATM   22  C   UNL     1     -12.568  13.217  71.011  1.00  0.00    -0.397 A  
HETATM   23  C   UNL     1     -12.832  15.366  72.026  1.00  0.00    -0.468 A  
HETATM   24  C   UNL     1     -13.145  14.024  71.991  1.00  0.00    -0.487 A  
BRANCH  20  25
HETATM   25  N   UNL     1     -10.500  15.811  69.168  1.00  0.00    -0.224 NA 
HETATM   26  C   UNL     1     -11.064  16.648  68.085  1.00  0.00    -0.285 C  
HETATM   27  C   UNL     1     -10.346  18.001  68.064  1.00  0.00    -0.397 C  
HETATM   28  C   UNL     1      -8.847  17.815  67.855  1.00  0.00    -0.251 C  
HETATM   29  C   UNL     1      -8.283  16.879  68.907  1.00  0.00    -0.218 C  
HETATM   30  C   UNL     1      -9.065  15.576  69.014  1.00  0.00    -0.236 C  
ENDBRANCH  20  25
ENDBRANCH  18  19
BRANCH  18  31
HETATM   31  C   UNL     1     -11.984  13.138  67.617  1.00  0.00    -0.363 C  
HETATM   32  C   UNL     1      -9.926  13.519  66.108  1.00  0.00    -0.310 C  
HETATM   33  C   UNL     1     -11.268  12.807  66.292  1.00  0.00    -0.339 C  
HETATM   34  C   UNL     1     -12.181  13.209  65.128  1.00  0.00    -0.497 C  
ENDBRANCH  18  31
ENDBRANCH  16  18
ENDBRANCH  13  14
ENDBRANCH  11  13
ENDBRANCH   3   4
ENDBRANCH   2   3
TORSDOF 8
ENDMDL
MODEL      185
REMARK 921   NORMALIZED FREE ENERGY PREDICTED BY IDOCK:   -4.57 KCAL/MOL
REMARK 922        TOTAL FREE ENERGY PREDICTED BY IDOCK:   -9.10 KCAL/MOL
REMARK 923 INTER-LIGAND FREE ENERGY PREDICTED BY IDOCK:   -6.80 KCAL/MOL
REMARK 924 INTRA-LIGAND FREE ENERGY PREDICTED BY IDOCK:   -2.30 KCAL/MOL
REMARK 927      BINDING AFFINITY PREDICTED BY RF-SCORE:    0.00 PKD
ROOT
HETATM    1  C   UNL     1     -11.946  12.223  69.609  1.00  0.00    -0.347 C  
HETATM    2  C   UNL     1     -11.907  11.240  68.462  1.00  0.00    -0.285 C  
ENDROOT
BRANCH   2   3
HETATM    3  O   UNL     1     -11.787  11.965  67.221  1.00  0.00    -0.576 OA 
BRANCH   3   4
HETATM    4  C   UNL     1     -10.962  11.380  66.293  1.00  0.00    -0.247 A  
HETATM    5  C   UNL     1     -11.221  11.581  64.928  1.00  0.00    -0.242 A  
HETATM    6  C   UNL     1     -10.416  10.926  63.978  1.00  0.00    -0.379 A  
HETATM    7  C   UNL     1     -12.329  12.435  64.385  1.00  0.00    -0.447 C  
HETATM    8  C   UNL     1      -9.374  10.091  64.373  1.00  0.00    -0.348 A  
HETATM    9  O   UNL     1     -12.577  12.509  63.188  1.00  0.00    -0.598 OA 
HETATM   10  O   UNL     1     -13.014  13.136  65.303  1.00  0.00    -0.661 OA 
HETATM   11  C   UNL     1      -9.095   9.909  65.731  1.00  0.00    -0.208 A  
HETATM   12  C   UNL     1      -9.867  10.589  66.677  1.00  0.00    -0.246 A  
BRANCH  11  13
HETATM   13  C   UNL     1      -7.981   8.999  66.182  1.00  0.00    -0.103 C  
BRANCH  13  14
HETATM   14  C   UNL     1      -8.439   7.578  66.448  1.00  0.00    -0.131 C  
HETATM   15  O   UNL     1      -9.531   7.192  66.036  1.00  0.00    -0.059 OA 
HETATM   16  N   UNL     1      -7.550   6.778  67.147  1.00  0.00    -0.098 N  
HETATM   17  H   UNL     1      -6.685   7.185  67.502  1.00  0.00     0.000 HD 
BRANCH  16  18
HETATM   18  C   UNL     1      -7.829   5.351  67.387  1.00  0.00    -0.101 C  
BRANCH  18  19
HETATM   19  C   UNL     1      -7.267   4.757  68.690  1.00  0.00    -0.057 A  
HETATM   20  C   UNL     1      -7.732   5.118  70.000  1.00  0.00    -0.067 A  
HETATM   21  C   UNL     1      -7.198   4.364  71.082  1.00  0.00    -0.040 A  
HETATM   22  C   UNL     1      -6.350   3.673  68.565  1.00  0.00    -0.033 A  
HETATM   23  C   UNL     1      -6.308   3.299  70.928  1.00  0.00    -0.019 A  
HETATM   24  C   UNL     1      -5.880   2.953  69.664  1.00  0.00    -0.023 A  
BRANCH  20  25
HETATM   25  N   UNL     1      -8.637   6.132  70.331  1.00  0.00    -0.132 NA 
HETATM   26  C   UNL     1      -8.152   7.466  70.753  1.00  0.00    -0.110 C  
HETATM   27  C   UNL     1      -8.931   8.550  70.001  1.00  0.00    -0.142 C  
HETATM   28  C   UNL     1     -10.427   8.428  70.273  1.00  0.00    -0.225 C  
HETATM   29  C   UNL     1     -10.909   7.031  69.933  1.00  0.00    -0.280 C  
HETATM   30  C   UNL     1     -10.065   5.943  70.586  1.00  0.00    -0.197 C  
ENDBRANCH  20  25
ENDBRANCH  18  19
BRANCH  18  31
HETATM   31  C   UNL     1      -7.383   4.464  66.207  1.00  0.00    -0.081 C  
HETATM   32  C   UNL     1      -9.720   3.717  65.409  1.00  0.00    -0.130 C  
HETATM   33  C   UNL     1      -8.374   4.340  65.032  1.00  0.00    -0.115 C  
HETATM   34  C   UNL     1      -7.737   3.469  63.944  1.00  0.00    -0.079 C  
ENDBRANCH  18  31
ENDBRANCH  16  18
ENDBRANCH  13  14
ENDBRANCH  11  13
ENDBRANCH   3   4
ENDBRANCH   2   3
TORSDOF 8
ENDMDL
MODEL      186
REMARK 921   NORMALIZED FREE ENERGY PREDICTED BY IDOCK:   -4.57 KCAL/MOL
REMARK 922        TOTAL FREE ENERGY PREDICTED BY IDOCK:   -9.10 KCAL/MOL
REMARK 923 INTER-LIGAND FREE ENERGY PREDICTED BY IDOCK:   -7.97 KCAL/MOL
REMARK 924 INTRA-LIGAND FREE ENERGY PREDICTED BY IDOCK:   -1.13 KCAL/MOL
REMARK 927      BINDING AFFINITY PREDICTED BY RF-SCORE:    0.00 PKD
ROOT
HETATM    1  C   UNL     1     -12.085   6.694  72.167  1.00  0.00    -0.299 C  
HETATM    2  C   UNL     1     -12.369   8.178  72.100  1.00  0.00    -0.338 C  
ENDROOT
BRANCH   2   3
HETATM    3  O   UNL     1     -11.130   8.903  72.240  1.00  0.00    -0.339 OA 
BRANCH   3   4
HETATM    4  C   UNL     1     -10.299   8.831  71.150  1.00  0.00    -0.246 A  
HETATM    5  C   UNL     1      -8.933   8.580  71.351  1.00  0.00    -0.262 A  
HETATM    6  C   UNL     1      -8.070   8.574  70.240  1.00  0.00    -0.106 A  
HETATM    7  C   UNL     1      -8.295   8.339  72.688  1.00  0.00    -0.173 C  
HETATM    8  C   UNL     1      -8.552   8.810  68.955  1.00  0.00    -0.136 A  
HETATM    9  O   UNL     1      -7.085   8.216  72.828  1.00  0.00    -0.089 OA 
HETATM   10  O   UNL     1      -9.150   8.240  73.721  1.00  0.00    -0.197 OA 
HETATM   11  C   UNL     1      -9.917   9.033  68.746  1.00  0.00    -0.194 A  
HETATM   12  C   UNL     1     -10.783   9.001  69.843  1.00  0.00    -0.240 A  
BRANCH  11  13
HETATM   13  C   UNL     1     -10.460   9.305  67.367  1.00  0.00    -0.340 C  
BRANCH  13  14
HETATM   14  C   UNL     1     -10.763  10.770  67.119  1.00  0.00    -0.272 C  
HETATM   15  O   UNL     1     -11.826  11.255  67.504  1.00  0.00    -0.613 OA 
HETATM   16  N   UNL     1      -9.776  11.489  66.468  1.00  0.00    -0.198 N  
HETATM   17  H   UNL     1      -8.944  11.005  66.132  1.00  0.00     0.000 HD 
BRANCH  16  18
HETATM   18  C   UNL     1      -9.902  12.942  66.251  1.00  0.00    -0.273 C  
BRANCH  18  19
HETATM   19  C   UNL     1     -10.219  13.791  67.495  1.00  0.00    -0.241 A  
HETATM   20  C   UNL     1      -9.247  14.142  68.493  1.00  0.00    -0.187 A  
HETATM   21  C   UNL     1      -9.684  15.050  69.497  1.00  0.00    -0.113 A  
HETATM   22  C   UNL     1     -11.511  14.388  67.560  1.00  0.00    -0.370 A  
HETATM   23  C   UNL     1     -10.954  15.628  69.528  1.00  0.00    -0.281 A  
HETATM   24  C   UNL     1     -11.873  15.294  68.557  1.00  0.00    -0.305 A  
BRANCH  20  25
HETATM   25  N   UNL     1      -7.929  13.682  68.596  1.00  0.00    -0.120 NA 
HETATM   26  C   UNL     1      -6.797  14.635  68.570  1.00  0.00    -0.098 C  
HETATM   27  C   UNL     1      -5.822  14.295  69.703  1.00  0.00    -0.106 C  
HETATM   28  C   UNL     1      -5.307  12.866  69.563  1.00  0.00    -0.079 C  
HETATM   29  C   UNL     1      -6.470  11.895  69.491  1.00  0.00    -0.113 C  
HETATM   30  C   UNL     1      -7.503  12.291  68.444  1.00  0.00    -0.122 C  
ENDBRANCH  20  25
ENDBRANCH  18  19
BRANCH  18  31
HETATM   31  C   UNL     1     -10.925  13.280  65.149  1.00  0.00    -0.314 C  
HETATM   32  C   UNL     1      -9.928  11.823  63.268  1.00  0.00    -0.435 C  
HETATM   33  C   UNL     1     -11.169  12.190  64.085  1.00  0.00    -0.433 C  
HETATM   34  C   UNL     1     -12.246  12.685  63.115  1.00  0.00    -0.341 C  
ENDBRANCH  18  31
ENDBRANCH  16  18
ENDBRANCH  13  14
ENDBRANCH  11  13
ENDBRANCH   3   4
ENDBRANCH   2   3
TORSDOF 8
ENDMDL
MODEL      187
REMARK 921   NORMALIZED FREE ENERGY PREDICTED BY IDOCK:   -4.55 KCAL/MOL
REMARK 922        TOTAL FREE ENERGY PREDICTED BY IDOCK:   -9.07 KCAL/MOL
REMARK 923 INTER-LIGAND FREE ENERGY PREDICTED BY IDOCK:   -7.36 KCAL/MOL
REMARK 924 INTRA-LIGAND FREE ENERGY PREDICTED BY IDOCK:   -1.71 KCAL/MOL
REMARK 927      BINDING AFFINITY PREDICTED BY RF-SCORE:    0.00 PKD
ROOT
HETATM    1  C   UNL     1     -11.387  15.955  68.768  1.00  0.00    -0.378 C  
HETATM    2  C   UNL     1     -11.016  17.014  67.755  1.00  0.00    -0.199 C  
ENDROOT
BRANCH   2   3
HETATM    3  O   UNL     1      -9.941  17.818  68.284  1.00  0.00    -0.314 OA 
BRANCH   3   4
HETATM    4  C   UNL     1      -8.683  17.390  67.939  1.00  0.00    -0.237 A  
HETATM    5  C   UNL     1      -7.929  18.155  67.035  1.00  0.00    -0.239 A  
HETATM    6  C   UNL     1      -6.667  17.682  66.629  1.00  0.00    -0.244 A  
HETATM    7  C   UNL     1      -8.378  19.452  66.429  1.00  0.00    -0.331 C  
HETATM    8  C   UNL     1      -6.163  16.476  67.111  1.00  0.00    -0.212 A  
HETATM    9  O   UNL     1      -7.727  20.040  65.573  1.00  0.00    -0.308 OA 
HETATM   10  O   UNL     1      -9.533  19.941  66.911  1.00  0.00    -0.341 OA 
HETATM   11  C   UNL     1      -6.899  15.725  68.033  1.00  0.00    -0.141 A  
HETATM   12  C   UNL     1      -8.136  16.211  68.468  1.00  0.00    -0.181 A  
BRANCH  11  13
HETATM   13  C   UNL     1      -6.381  14.411  68.558  1.00  0.00    -0.088 C  
BRANCH  13  14
HETATM   14  C   UNL     1      -6.899  13.211  67.789  1.00  0.00    -0.149 C  
HETATM   15  O   UNL     1      -6.139  12.561  67.073  1.00  0.00    -0.259 OA 
HETATM   16  N   UNL     1      -8.238  12.910  67.970  1.00  0.00    -0.157 N  
HETATM   17  H   UNL     1      -8.817  13.528  68.538  1.00  0.00     0.000 HD 
BRANCH  16  18
HETATM   18  C   UNL     1      -8.844  11.713  67.358  1.00  0.00    -0.160 C  
BRANCH  18  19
HETATM   19  C   UNL     1      -9.551  11.923  66.007  1.00  0.00    -0.251 A  
HETATM   20  C   UNL     1      -9.323  11.105  64.849  1.00  0.00    -0.194 A  
HETATM   21  C   UNL     1     -10.169  11.355  63.733  1.00  0.00    -0.433 A  
HETATM   22  C   UNL     1     -10.604  12.883  65.970  1.00  0.00    -0.287 A  
HETATM   23  C   UNL     1     -11.200  12.295  63.729  1.00  0.00    -0.510 A  
HETATM   24  C   UNL     1     -11.418  13.065  64.852  1.00  0.00    -0.348 A  
BRANCH  20  25
HETATM   25  N   UNL     1      -8.359  10.103  64.692  1.00  0.00    -0.160 NA 
HETATM   26  C   UNL     1      -8.586   8.748  65.244  1.00  0.00    -0.187 C  
HETATM   27  C   UNL     1      -8.232   7.702  64.182  1.00  0.00     0.008 C  
HETATM   28  C   UNL     1      -6.780   7.850  63.740  1.00  0.00    -0.062 C  
HETATM   29  C   UNL     1      -6.519   9.267  63.264  1.00  0.00    -0.091 C  
HETATM   30  C   UNL     1      -6.976  10.317  64.268  1.00  0.00    -0.052 C  
ENDBRANCH  20  25
ENDBRANCH  18  19
BRANCH  18  31
HETATM   31  C   UNL     1      -9.815  10.997  68.318  1.00  0.00    -0.185 C  
HETATM   32  C   UNL     1      -8.291   9.019  68.967  1.00  0.00    -0.124 C  
HETATM   33  C   UNL     1      -9.171  10.173  69.451  1.00  0.00    -0.229 C  
HETATM   34  C   UNL     1     -10.287   9.585  70.323  1.00  0.00    -0.321 C  
ENDBRANCH  18  31
ENDBRANCH  16  18
ENDBRANCH  13  14
ENDBRANCH  11  13
ENDBRANCH   3   4
ENDBRANCH   2   3
TORSDOF 8
ENDMDL
MODEL      188
REMARK 921   NORMALIZED FREE ENERGY PREDICTED BY IDOCK:   -4.54 KCAL/MOL
REMARK 922        TOTAL FREE ENERGY PREDICTED BY IDOCK:   -9.06 KCAL/MOL
REMARK 923 INTER-LIGAND FREE ENERGY PREDICTED BY IDOCK:   -7.88 KCAL/MOL
REMARK 924 INTRA-LIGAND FREE ENERGY PREDICTED BY IDOCK:   -1.19 KCAL/MOL
REMARK 927      BINDING AFFINITY PREDICTED BY RF-SCORE:    0.00 PKD
ROOT
HETATM    1  C   UNL     1     -12.504  12.053  63.467  1.00  0.00    -0.654 C  
HETATM    2  C   UNL     1     -11.870  12.699  64.679  1.00  0.00    -0.380 C  
ENDROOT
BRANCH   2   3
HETATM    3  O   UNL     1     -10.940  13.712  64.244  1.00  0.00    -0.382 OA 
BRANCH   3   4
HETATM    4  C   UNL     1     -10.244  14.323  65.257  1.00  0.00    -0.382 A  
HETATM    5  C   UNL     1     -10.362  15.712  65.420  1.00  0.00    -0.421 A  
HETATM    6  C   UNL     1      -9.596  16.349  66.415  1.00  0.00    -0.313 A  
HETATM    7  C   UNL     1     -11.235  16.602  64.585  1.00  0.00    -0.015 C  
HETATM    8  C   UNL     1      -8.734  15.621  67.233  1.00  0.00    -0.213 A  
HETATM    9  O   UNL     1     -11.237  17.821  64.701  1.00  0.00    -0.764 OA 
HETATM   10  O   UNL     1     -12.038  15.964  63.717  1.00  0.00    -0.780 OA 
HETATM   11  C   UNL     1      -8.635  14.234  67.091  1.00  0.00    -0.234 A  
HETATM   12  C   UNL     1      -9.423  13.593  66.130  1.00  0.00    -0.166 A  
BRANCH  11  13
HETATM   13  C   UNL     1      -7.698  13.427  67.954  1.00  0.00    -0.153 C  
BRANCH  13  14
HETATM   14  C   UNL     1      -8.336  12.175  68.524  1.00  0.00    -0.093 C  
HETATM   15  O   UNL     1      -9.528  12.171  68.827  1.00  0.00    -0.090 OA 
HETATM   16  N   UNL     1      -7.503  11.076  68.649  1.00  0.00    -0.104 N  
HETATM   17  H   UNL     1      -6.512  11.173  68.427  1.00  0.00     0.000 HD 
BRANCH  16  18
HETATM   18  C   UNL     1      -8.018   9.770  69.098  1.00  0.00    -0.104 C  
BRANCH  18  19
HETATM   19  C   UNL     1      -7.333   9.154  70.330  1.00  0.00    -0.090 A  
HETATM   20  C   UNL     1      -7.738   7.917  70.936  1.00  0.00    -0.083 A  
HETATM   21  C   UNL     1      -6.901   7.429  71.978  1.00  0.00    -0.062 A  
HETATM   22  C   UNL     1      -6.131   9.774  70.780  1.00  0.00    -0.092 A  
HETATM   23  C   UNL     1      -5.724   8.053  72.391  1.00  0.00    -0.038 A  
HETATM   24  C   UNL     1      -5.337   9.233  71.791  1.00  0.00    -0.064 A  
BRANCH  20  25
HETATM   25  N   UNL     1      -8.867   7.148  70.628  1.00  0.00    -0.148 NA 
HETATM   26  C   UNL     1      -9.969   7.004  71.606  1.00  0.00    -0.178 C  
HETATM   27  C   UNL     1     -11.309   7.230  70.896  1.00  0.00    -0.308 C  
HETATM   28  C   UNL     1     -11.490   6.236  69.754  1.00  0.00    -0.449 C  
HETATM   29  C   UNL     1     -10.312   6.313  68.801  1.00  0.00    -0.245 C  
HETATM   30  C   UNL     1      -8.971   6.205  69.514  1.00  0.00    -0.133 C  
ENDBRANCH  20  25
ENDBRANCH  18  19
BRANCH  18  31
HETATM   31  C   UNL     1      -8.026   8.727  67.963  1.00  0.00    -0.106 C  
HETATM   32  C   UNL     1     -10.303   9.342  66.918  1.00  0.00    -0.316 C  
HETATM   33  C   UNL     1      -8.809   9.107  66.690  1.00  0.00    -0.147 C  
HETATM   34  C   UNL     1      -8.657   7.977  65.666  1.00  0.00    -0.167 C  
ENDBRANCH  18  31
ENDBRANCH  16  18
ENDBRANCH  13  14
ENDBRANCH  11  13
ENDBRANCH   3   4
ENDBRANCH   2   3
TORSDOF 8
ENDMDL
MODEL      189
REMARK 921   NORMALIZED FREE ENERGY PREDICTED BY IDOCK:   -4.54 KCAL/MOL
REMARK 922        TOTAL FREE ENERGY PREDICTED BY IDOCK:   -9.06 KCAL/MOL
REMARK 923 INTER-LIGAND FREE ENERGY PREDICTED BY IDOCK:   -7.41 KCAL/MOL
REMARK 924 INTRA-LIGAND FREE ENERGY PREDICTED BY IDOCK:   -1.65 KCAL/MOL
REMARK 927      BINDING AFFINITY PREDICTED BY RF-SCORE:    0.00 PKD
ROOT
HETATM    1  C   UNL     1     -11.362  15.489  66.930  1.00  0.00    -0.079 C  
HETATM    2  C   UNL     1     -11.060  16.055  65.561  1.00  0.00    -0.105 C  
ENDROOT
BRANCH   2   3
HETATM    3  O   UNL     1      -9.842  16.825  65.626  1.00  0.00    -0.544 OA 
BRANCH   3   4
HETATM    4  C   UNL     1      -8.968  16.432  66.609  1.00  0.00    -0.258 A  
HETATM    5  C   UNL     1      -8.654  17.331  67.640  1.00  0.00    -0.218 A  
HETATM    6  C   UNL     1      -7.706  16.953  68.609  1.00  0.00    -0.235 A  
HETATM    7  C   UNL     1      -9.237  18.707  67.782  1.00  0.00    -0.285 C  
HETATM    8  C   UNL     1      -7.086  15.708  68.559  1.00  0.00    -0.116 A  
HETATM    9  O   UNL     1      -8.866  19.494  68.644  1.00  0.00    -0.367 OA 
HETATM   10  O   UNL     1     -10.217  19.006  66.914  1.00  0.00    -0.338 OA 
HETATM   11  C   UNL     1      -7.416  14.798  67.549  1.00  0.00    -0.221 A  
HETATM   12  C   UNL     1      -8.385  15.155  66.607  1.00  0.00    -0.162 A  
BRANCH  11  13
HETATM   13  C   UNL     1      -6.747  13.450  67.466  1.00  0.00    -0.151 C  
BRANCH  13  14
HETATM   14  C   UNL     1      -7.727  12.301  67.323  1.00  0.00    -0.161 C  
HETATM   15  O   UNL     1      -8.422  11.959  68.278  1.00  0.00    -0.152 OA 
HETATM   16  N   UNL     1      -7.786  11.710  66.072  1.00  0.00    -0.355 N  
HETATM   17  H   UNL     1      -7.140  12.015  65.345  1.00  0.00     0.000 HD 
BRANCH  16  18
HETATM   18  C   UNL     1      -8.764  10.649  65.771  1.00  0.00    -0.182 C  
BRANCH  18  19
HETATM   19  C   UNL     1      -8.193   9.337  65.205  1.00  0.00    -0.136 A  
HETATM   20  C   UNL     1      -8.419   8.046  65.793  1.00  0.00    -0.147 A  
HETATM   21  C   UNL     1      -7.934   6.931  65.055  1.00  0.00    -0.125 A  
HETATM   22  C   UNL     1      -7.545   9.407  63.938  1.00  0.00    -0.118 A  
HETATM   23  C   UNL     1      -7.311   7.030  63.810  1.00  0.00    -0.081 A  
HETATM   24  C   UNL     1      -7.113   8.273  63.249  1.00  0.00    -0.090 A  
BRANCH  20  25
HETATM   25  N   UNL     1      -9.047   7.765  67.012  1.00  0.00    -0.133 NA 
HETATM   26  C   UNL     1     -10.507   7.520  67.066  1.00  0.00    -0.338 C  
HETATM   27  C   UNL     1     -10.780   6.274  67.915  1.00  0.00    -0.380 C  
HETATM   28  C   UNL     1     -10.226   6.447  69.325  1.00  0.00    -0.229 C  
HETATM   29  C   UNL     1      -8.750   6.795  69.269  1.00  0.00    -0.135 C  
HETATM   30  C   UNL     1      -8.457   7.962  68.335  1.00  0.00    -0.128 C  
ENDBRANCH  20  25
ENDBRANCH  18  19
BRANCH  18  31
HETATM   31  C   UNL     1      -9.889  11.141  64.839  1.00  0.00    -0.316 C  
HETATM   32  C   UNL     1     -11.580  11.853  66.653  1.00  0.00    -0.337 C  
HETATM   33  C   UNL     1     -10.803  12.252  65.397  1.00  0.00    -0.324 C  
HETATM   34  C   UNL     1     -11.816  12.642  64.316  1.00  0.00    -0.462 C  
ENDBRANCH  18  31
ENDBRANCH  16  18
ENDBRANCH  13  14
ENDBRANCH  11  13
ENDBRANCH   3   4
ENDBRANCH   2   3
TORSDOF 8
ENDMDL
MODEL      190
REMARK 921   NORMALIZED FREE ENERGY PREDICTED BY IDOCK:   -4.53 KCAL/MOL
REMARK 922        TOTAL FREE ENERGY PREDICTED BY IDOCK:   -9.05 KCAL/MOL
REMARK 923 INTER-LIGAND FREE ENERGY PREDICTED BY IDOCK:   -7.24 KCAL/MOL
REMARK 924 INTRA-LIGAND FREE ENERGY PREDICTED BY IDOCK:   -1.81 KCAL/MOL
REMARK 927      BINDING AFFINITY PREDICTED BY RF-SCORE:    0.00 PKD
ROOT
HETATM    1  C   UNL     1     -10.889  12.975  64.118  1.00  0.00    -0.433 C  
HETATM    2  C   UNL     1     -11.146  12.920  65.607  1.00  0.00    -0.279 C  
ENDROOT
BRANCH   2   3
HETATM    3  O   UNL     1     -11.277  14.264  66.115  1.00  0.00    -0.319 OA 
BRANCH   3   4
HETATM    4  C   UNL     1     -11.324  14.357  67.484  1.00  0.00    -0.328 A  
HETATM    5  C   UNL     1     -10.616  15.388  68.120  1.00  0.00    -0.263 A  
HETATM    6  C   UNL     1     -10.609  15.443  69.527  1.00  0.00    -0.270 A  
HETATM    7  C   UNL     1      -9.825  16.448  67.411  1.00  0.00    -0.244 C  
HETATM    8  C   UNL     1     -11.292  14.496  70.285  1.00  0.00    -0.225 A  
HETATM    9  O   UNL     1      -9.146  17.274  68.008  1.00  0.00    -0.238 OA 
HETATM   10  O   UNL     1      -9.934  16.443  66.071  1.00  0.00    -0.311 OA 
HETATM   11  C   UNL     1     -12.020  13.482  69.655  1.00  0.00    -0.397 A  
HETATM   12  C   UNL     1     -12.062  13.447  68.258  1.00  0.00    -0.271 A  
BRANCH  11  13
HETATM   13  C   UNL     1     -12.755  12.437  70.455  1.00  0.00     0.033 C  
BRANCH  13  14
HETATM   14  C   UNL     1     -11.930  11.193  70.717  1.00  0.00    -0.312 C  
HETATM   15  O   UNL     1     -12.257  10.410  71.609  1.00  0.00    -0.355 OA 
HETATM   16  N   UNL     1     -10.835  11.008  69.890  1.00  0.00    -0.463 N  
HETATM   17  H   UNL     1     -10.597  11.728  69.208  1.00  0.00     0.000 HD 
BRANCH  16  18
HETATM   18  C   UNL     1     -10.007   9.791  69.974  1.00  0.00    -0.254 C  
BRANCH  18  19
HETATM   19  C   UNL     1      -8.528   9.945  69.578  1.00  0.00    -0.184 A  
HETATM   20  C   UNL     1      -7.557   8.892  69.683  1.00  0.00    -0.072 A  
HETATM   21  C   UNL     1      -6.273   9.171  69.137  1.00  0.00    -0.042 A  
HETATM   22  C   UNL     1      -8.156  11.154  68.921  1.00  0.00    -0.115 A  
HETATM   23  C   UNL     1      -5.942  10.362  68.489  1.00  0.00    -0.043 A  
HETATM   24  C   UNL     1      -6.886  11.359  68.383  1.00  0.00    -0.068 A  
BRANCH  20  25
HETATM   25  N   UNL     1      -7.728   7.634  70.271  1.00  0.00    -0.089 NA 
HETATM   26  C   UNL     1      -7.712   7.483  71.743  1.00  0.00    -0.085 C  
HETATM   27  C   UNL     1      -8.894   6.608  72.176  1.00  0.00    -0.134 C  
HETATM   28  C   UNL     1      -8.826   5.239  71.510  1.00  0.00    -0.144 C  
HETATM   29  C   UNL     1      -8.744   5.393  70.003  1.00  0.00    -0.130 C  
HETATM   30  C   UNL     1      -7.644   6.353  69.569  1.00  0.00    -0.095 C  
ENDBRANCH  20  25
ENDBRANCH  18  19
BRANCH  18  31
HETATM   31  C   UNL     1     -10.612   8.618  69.178  1.00  0.00    -0.193 C  
HETATM   32  C   UNL     1     -10.596   9.716  66.844  1.00  0.00    -0.241 C  
HETATM   33  C   UNL     1     -10.196   8.511  67.697  1.00  0.00    -0.297 C  
HETATM   34  C   UNL     1     -10.852   7.264  67.093  1.00  0.00    -0.378 C  
ENDBRANCH  18  31
ENDBRANCH  16  18
ENDBRANCH  13  14
ENDBRANCH  11  13
ENDBRANCH   3   4
ENDBRANCH   2   3
TORSDOF 8
ENDMDL
MODEL      191
REMARK 921   NORMALIZED FREE ENERGY PREDICTED BY IDOCK:   -4.52 KCAL/MOL
REMARK 922        TOTAL FREE ENERGY PREDICTED BY IDOCK:   -9.02 KCAL/MOL
REMARK 923 INTER-LIGAND FREE ENERGY PREDICTED BY IDOCK:   -7.51 KCAL/MOL
REMARK 924 INTRA-LIGAND FREE ENERGY PREDICTED BY IDOCK:   -1.51 KCAL/MOL
REMARK 927      BINDING AFFINITY PREDICTED BY RF-SCORE:    0.00 PKD
ROOT
HETATM    1  C   UNL     1     -12.335  13.678  66.416  1.00  0.00    -0.441 C  
HETATM    2  C   UNL     1     -11.092  13.881  67.253  1.00  0.00    -0.299 C  
ENDROOT
BRANCH   2   3
HETATM    3  O   UNL     1      -9.939  13.915  66.388  1.00  0.00    -0.280 OA 
BRANCH   3   4
HETATM    4  C   UNL     1      -8.750  14.158  67.029  1.00  0.00    -0.204 A  
HETATM    5  C   UNL     1      -8.138  15.412  66.875  1.00  0.00    -0.259 A  
HETATM    6  C   UNL     1      -6.886  15.638  67.477  1.00  0.00    -0.221 A  
HETATM    7  C   UNL     1      -8.708  16.551  66.081  1.00  0.00    -0.300 C  
HETATM    8  C   UNL     1      -6.255  14.642  68.218  1.00  0.00    -0.123 A  
HETATM    9  O   UNL     1      -8.097  17.596  65.896  1.00  0.00    -0.535 OA 
HETATM   10  O   UNL     1      -9.950  16.354  65.608  1.00  0.00    -0.469 OA 
HETATM   11  C   UNL     1      -6.873  13.400  68.396  1.00  0.00    -0.102 A  
HETATM   12  C   UNL     1      -8.135  13.185  67.833  1.00  0.00    -0.159 A  
BRANCH  11  13
HETATM   13  C   UNL     1      -6.204  12.302  69.182  1.00  0.00    -0.089 C  
BRANCH  13  14
HETATM   14  C   UNL     1      -7.076  11.074  69.359  1.00  0.00    -0.128 C  
HETATM   15  O   UNL     1      -7.187  10.548  70.465  1.00  0.00    -0.232 OA 
HETATM   16  N   UNL     1      -7.725  10.625  68.221  1.00  0.00    -0.103 N  
HETATM   17  H   UNL     1      -7.541  11.081  67.328  1.00  0.00     0.000 HD 
BRANCH  16  18
HETATM   18  C   UNL     1      -8.678   9.501  68.275  1.00  0.00    -0.120 C  
BRANCH  18  19
HETATM   19  C   UNL     1      -8.488   8.396  67.221  1.00  0.00    -0.124 A  
HETATM   20  C   UNL     1      -8.995   7.060  67.362  1.00  0.00    -0.117 A  
HETATM   21  C   UNL     1      -8.849   6.215  66.227  1.00  0.00    -0.150 A  
HETATM   22  C   UNL     1      -7.918   8.783  65.973  1.00  0.00    -0.107 A  
HETATM   23  C   UNL     1      -8.295   6.625  65.013  1.00  0.00    -0.067 A  
HETATM   24  C   UNL     1      -7.825   7.914  64.886  1.00  0.00    -0.126 A  
BRANCH  20  25
HETATM   25  N   UNL     1      -9.601   6.495  68.489  1.00  0.00    -0.124 NA 
HETATM   26  C   UNL     1      -8.780   5.880  69.557  1.00  0.00    -0.116 C  
HETATM   27  C   UNL     1      -9.270   6.375  70.922  1.00  0.00    -0.161 C  
HETATM   28  C   UNL     1     -10.740   6.027  71.128  1.00  0.00    -0.323 C  
HETATM   29  C   UNL     1     -11.573   6.573  69.983  1.00  0.00    -0.455 C  
HETATM   30  C   UNL     1     -11.024   6.180  68.618  1.00  0.00    -0.336 C  
ENDBRANCH  20  25
ENDBRANCH  18  19
BRANCH  18  31
HETATM   31  C   UNL     1     -10.143   9.977  68.233  1.00  0.00    -0.182 C  
HETATM   32  C   UNL     1     -10.673   9.746  70.748  1.00  0.00    -0.393 C  
HETATM   33  C   UNL     1     -10.680  10.650  69.513  1.00  0.00    -0.290 C  
HETATM   34  C   UNL     1     -12.124  11.098  69.262  1.00  0.00    -0.377 C  
ENDBRANCH  18  31
ENDBRANCH  16  18
ENDBRANCH  13  14
ENDBRANCH  11  13
ENDBRANCH   3   4
ENDBRANCH   2   3
TORSDOF 8
ENDMDL
MODEL      192
REMARK 921   NORMALIZED FREE ENERGY PREDICTED BY IDOCK:   -4.50 KCAL/MOL
REMARK 922        TOTAL FREE ENERGY PREDICTED BY IDOCK:   -9.00 KCAL/MOL
REMARK 923 INTER-LIGAND FREE ENERGY PREDICTED BY IDOCK:   -7.10 KCAL/MOL
REMARK 924 INTRA-LIGAND FREE ENERGY PREDICTED BY IDOCK:   -1.90 KCAL/MOL
REMARK 927      BINDING AFFINITY PREDICTED BY RF-SCORE:    0.00 PKD
ROOT
HETATM    1  C   UNL     1     -10.659   3.739  63.995  1.00  0.00    -0.274 C  
HETATM    2  C   UNL     1     -10.235   4.230  65.361  1.00  0.00    -0.220 C  
ENDROOT
BRANCH   2   3
HETATM    3  O   UNL     1      -9.228   5.251  65.205  1.00  0.00    -0.137 OA 
BRANCH   3   4
HETATM    4  C   UNL     1      -8.958   5.966  66.345  1.00  0.00    -0.140 A  
HETATM    5  C   UNL     1      -7.691   5.850  66.937  1.00  0.00    -0.100 A  
HETATM    6  C   UNL     1      -7.436   6.530  68.143  1.00  0.00    -0.095 A  
HETATM    7  C   UNL     1      -6.566   5.019  66.394  1.00  0.00    -0.049 C  
HETATM    8  C   UNL     1      -8.418   7.311  68.747  1.00  0.00    -0.129 A  
HETATM    9  O   UNL     1      -5.507   4.872  66.991  1.00  0.00    -0.012 OA 
HETATM   10  O   UNL     1      -6.791   4.467  65.189  1.00  0.00    -0.051 OA 
HETATM   11  C   UNL     1      -9.673   7.452  68.147  1.00  0.00    -0.163 A  
HETATM   12  C   UNL     1      -9.917   6.810  66.929  1.00  0.00    -0.252 A  
BRANCH  11  13
HETATM   13  C   UNL     1     -10.756   8.281  68.789  1.00  0.00    -0.076 C  
BRANCH  13  14
HETATM   14  C   UNL     1     -10.713   9.742  68.384  1.00  0.00    -0.221 C  
HETATM   15  O   UNL     1     -11.451  10.558  68.934  1.00  0.00    -0.255 OA 
HETATM   16  N   UNL     1      -9.798  10.069  67.398  1.00  0.00    -0.177 N  
HETATM   17  H   UNL     1      -9.259   9.327  66.951  1.00  0.00     0.000 HD 
BRANCH  16  18
HETATM   18  C   UNL     1      -9.587  11.467  66.981  1.00  0.00    -0.176 C  
BRANCH  18  19
HETATM   19  C   UNL     1     -10.505  11.990  65.862  1.00  0.00    -0.290 A  
HETATM   20  C   UNL     1     -11.173  13.260  65.903  1.00  0.00    -0.290 A  
HETATM   21  C   UNL     1     -11.865  13.640  64.720  1.00  0.00    -0.414 A  
HETATM   22  C   UNL     1     -10.554  11.230  64.657  1.00  0.00    -0.392 A  
HETATM   23  C   UNL     1     -11.886  12.879  63.549  1.00  0.00    -0.605 A  
HETATM   24  C   UNL     1     -11.230  11.668  63.518  1.00  0.00    -0.462 A  
BRANCH  20  25
HETATM   25  N   UNL     1     -11.230  14.157  66.976  1.00  0.00    -0.307 NA 
HETATM   26  C   UNL     1     -12.075  13.866  68.156  1.00  0.00    -0.282 C  
HETATM   27  C   UNL     1     -11.269  14.124  69.433  1.00  0.00    -0.298 C  
HETATM   28  C   UNL     1     -10.782  15.568  69.483  1.00  0.00    -0.272 C  
HETATM   29  C   UNL     1      -9.996  15.899  68.228  1.00  0.00    -0.222 C  
HETATM   30  C   UNL     1     -10.746  15.537  66.953  1.00  0.00    -0.317 C  
ENDBRANCH  20  25
ENDBRANCH  18  19
BRANCH  18  31
HETATM   31  C   UNL     1      -8.122  11.742  66.587  1.00  0.00    -0.094 C  
HETATM   32  C   UNL     1      -7.432  13.092  68.674  1.00  0.00    -0.093 C  
HETATM   33  C   UNL     1      -7.123  11.913  67.749  1.00  0.00    -0.103 C  
HETATM   34  C   UNL     1      -5.722  12.125  67.163  1.00  0.00    -0.131 C  
ENDBRANCH  18  31
ENDBRANCH  16  18
ENDBRANCH  13  14
ENDBRANCH  11  13
ENDBRANCH   3   4
ENDBRANCH   2   3
TORSDOF 8
ENDMDL
MODEL      193
REMARK 921   NORMALIZED FREE ENERGY PREDICTED BY IDOCK:   -4.49 KCAL/MOL
REMARK 922        TOTAL FREE ENERGY PREDICTED BY IDOCK:   -8.98 KCAL/MOL
REMARK 923 INTER-LIGAND FREE ENERGY PREDICTED BY IDOCK:   -8.78 KCAL/MOL
REMARK 924 INTRA-LIGAND FREE ENERGY PREDICTED BY IDOCK:   -0.20 KCAL/MOL
REMARK 927      BINDING AFFINITY PREDICTED BY RF-SCORE:    0.00 PKD
ROOT
HETATM    1  C   UNL     1     -12.754  15.534  70.786  1.00  0.00    -0.511 C  
HETATM    2  C   UNL     1     -11.470  15.656  69.997  1.00  0.00    -0.344 C  
ENDROOT
BRANCH   2   3
HETATM    3  O   UNL     1     -11.786  15.969  68.625  1.00  0.00    -0.367 OA 
BRANCH   3   4
HETATM    4  C   UNL     1     -11.184  15.155  67.699  1.00  0.00    -0.327 A  
HETATM    5  C   UNL     1     -10.161  15.680  66.894  1.00  0.00    -0.265 A  
HETATM    6  C   UNL     1      -9.590  14.865  65.898  1.00  0.00    -0.343 A  
HETATM    7  C   UNL     1      -9.631  17.081  66.990  1.00  0.00    -0.254 C  
HETATM    8  C   UNL     1     -10.024  13.555  65.707  1.00  0.00    -0.266 A  
HETATM    9  O   UNL     1      -8.802  17.526  66.206  1.00  0.00    -0.367 OA 
HETATM   10  O   UNL     1     -10.109  17.805  68.015  1.00  0.00    -0.317 OA 
HETATM   11  C   UNL     1     -11.024  13.019  66.525  1.00  0.00    -0.307 A  
HETATM   12  C   UNL     1     -11.566  13.813  67.540  1.00  0.00    -0.387 A  
BRANCH  11  13
HETATM   13  C   UNL     1     -11.519  11.610  66.327  1.00  0.00    -0.217 C  
BRANCH  13  14
HETATM   14  C   UNL     1     -10.754  10.585  67.142  1.00  0.00    -0.265 C  
HETATM   15  O   UNL     1      -9.857  10.945  67.903  1.00  0.00    -0.167 OA 
HETATM   16  N   UNL     1     -11.147   9.268  66.979  1.00  0.00    -0.136 N  
HETATM   17  H   UNL     1     -11.864   9.042  66.289  1.00  0.00     0.000 HD 
BRANCH  16  18
HETATM   18  C   UNL     1     -10.552   8.185  67.783  1.00  0.00    -0.165 C  
BRANCH  18  19
HETATM   19  C   UNL     1      -9.401   8.587  68.721  1.00  0.00    -0.143 A  
HETATM   20  C   UNL     1      -9.519   8.653  70.151  1.00  0.00    -0.164 A  
HETATM   21  C   UNL     1      -8.315   8.903  70.865  1.00  0.00    -0.219 A  
HETATM   22  C   UNL     1      -8.111   8.740  68.134  1.00  0.00    -0.107 A  
HETATM   23  C   UNL     1      -7.063   9.039  70.263  1.00  0.00    -0.055 A  
HETATM   24  C   UNL     1      -6.960   8.960  68.891  1.00  0.00    -0.065 A  
BRANCH  20  25
HETATM   25  N   UNL     1     -10.683   8.512  70.916  1.00  0.00    -0.217 NA 
HETATM   26  C   UNL     1     -11.381   9.704  71.449  1.00  0.00    -0.374 C  
HETATM   27  C   UNL     1     -12.883   9.576  71.175  1.00  0.00    -0.361 C  
HETATM   28  C   UNL     1     -13.444   8.311  71.815  1.00  0.00    -0.377 C  
HETATM   29  C   UNL     1     -12.666   7.096  71.345  1.00  0.00    -0.433 C  
HETATM   30  C   UNL     1     -11.161   7.263  71.507  1.00  0.00    -0.245 C  
ENDBRANCH  20  25
ENDBRANCH  18  19
BRANCH  18  31
HETATM   31  C   UNL     1     -10.090   7.000  66.912  1.00  0.00    -0.296 C  
HETATM   32  C   UNL     1     -10.531   5.107  68.609  1.00  0.00    -0.095 C  
HETATM   33  C   UNL     1     -10.762   5.641  67.193  1.00  0.00    -0.316 C  
HETATM   34  C   UNL     1     -10.214   4.609  66.202  1.00  0.00    -0.308 C  
ENDBRANCH  18  31
ENDBRANCH  16  18
ENDBRANCH  13  14
ENDBRANCH  11  13
ENDBRANCH   3   4
ENDBRANCH   2   3
TORSDOF 8
ENDMDL
MODEL      194
REMARK 921   NORMALIZED FREE ENERGY PREDICTED BY IDOCK:   -4.48 KCAL/MOL
REMARK 922        TOTAL FREE ENERGY PREDICTED BY IDOCK:   -8.96 KCAL/MOL
REMARK 923 INTER-LIGAND FREE ENERGY PREDICTED BY IDOCK:   -8.55 KCAL/MOL
REMARK 924 INTRA-LIGAND FREE ENERGY PREDICTED BY IDOCK:   -0.41 KCAL/MOL
REMARK 927      BINDING AFFINITY PREDICTED BY RF-SCORE:    0.00 PKD
ROOT
HETATM    1  C   UNL     1      -7.345   2.451  69.040  1.00  0.00    -0.044 C  
HETATM    2  C   UNL     1      -8.815   2.564  68.705  1.00  0.00    -0.105 C  
ENDROOT
BRANCH   2   3
HETATM    3  O   UNL     1      -9.533   3.008  69.875  1.00  0.00    -0.158 OA 
BRANCH   3   4
HETATM    4  C   UNL     1      -9.911   4.327  69.847  1.00  0.00    -0.197 A  
HETATM    5  C   UNL     1      -9.980   5.041  71.054  1.00  0.00    -0.281 A  
HETATM    6  C   UNL     1     -10.432   6.373  71.034  1.00  0.00    -0.268 A  
HETATM    7  C   UNL     1      -9.630   4.478  72.401  1.00  0.00    -0.146 C  
HETATM    8  C   UNL     1     -10.805   6.987  69.841  1.00  0.00    -0.280 A  
HETATM    9  O   UNL     1      -9.794   5.106  73.440  1.00  0.00    -0.149 OA 
HETATM   10  O   UNL     1      -9.098   3.245  72.387  1.00  0.00    -0.093 OA 
HETATM   11  C   UNL     1     -10.711   6.289  68.632  1.00  0.00    -0.357 A  
HETATM   12  C   UNL     1     -10.226   4.978  68.644  1.00  0.00    -0.154 A  
BRANCH  11  13
HETATM   13  C   UNL     1     -11.123   6.927  67.330  1.00  0.00    -0.322 C  
BRANCH  13  14
HETATM   14  C   UNL     1     -10.346   8.189  67.009  1.00  0.00    -0.333 C  
HETATM   15  O   UNL     1      -9.464   8.171  66.152  1.00  0.00    -0.201 OA 
HETATM   16  N   UNL     1     -10.712   9.321  67.718  1.00  0.00    -0.427 N  
HETATM   17  H   UNL     1     -11.416   9.245  68.451  1.00  0.00     0.000 HD 
BRANCH  16  18
HETATM   18  C   UNL     1     -10.104  10.633  67.433  1.00  0.00    -0.194 C  
BRANCH  18  19
HETATM   19  C   UNL     1     -10.990  11.648  66.689  1.00  0.00    -0.349 A  
HETATM   20  C   UNL     1     -11.551  12.820  67.300  1.00  0.00    -0.360 A  
HETATM   21  C   UNL     1     -12.224  13.717  66.425  1.00  0.00    -0.480 A  
HETATM   22  C   UNL     1     -11.115  11.485  65.279  1.00  0.00    -0.257 A  
HETATM   23  C   UNL     1     -12.321  13.537  65.045  1.00  0.00    -0.468 A  
HETATM   24  C   UNL     1     -11.766  12.415  64.468  1.00  0.00    -0.427 A  
BRANCH  20  25
HETATM   25  N   UNL     1     -11.521  13.170  68.654  1.00  0.00    -0.282 NA 
HETATM   26  C   UNL     1     -10.985  14.483  69.080  1.00  0.00    -0.257 C  
HETATM   27  C   UNL     1     -11.948  15.123  70.085  1.00  0.00    -0.374 C  
HETATM   28  C   UNL     1     -12.144  14.219  71.298  1.00  0.00    -0.391 C  
HETATM   29  C   UNL     1     -12.600  12.842  70.857  1.00  0.00    -0.342 C  
HETATM   30  C   UNL     1     -11.712  12.247  69.773  1.00  0.00    -0.298 C  
ENDBRANCH  20  25
ENDBRANCH  18  19
BRANCH  18  31
HETATM   31  C   UNL     1      -8.763  10.504  66.683  1.00  0.00    -0.138 C  
HETATM   32  C   UNL     1      -7.694  12.718  67.463  1.00  0.00    -0.168 C  
HETATM   33  C   UNL     1      -7.548  11.201  67.329  1.00  0.00    -0.126 C  
HETATM   34  C   UNL     1      -6.309  10.917  66.472  1.00  0.00    -0.125 C  
ENDBRANCH  18  31
ENDBRANCH  16  18
ENDBRANCH  13  14
ENDBRANCH  11  13
ENDBRANCH   3   4
ENDBRANCH   2   3
TORSDOF 8
ENDMDL
MODEL      195
REMARK 921   NORMALIZED FREE ENERGY PREDICTED BY IDOCK:   -4.47 KCAL/MOL
REMARK 922        TOTAL FREE ENERGY PREDICTED BY IDOCK:   -8.96 KCAL/MOL
REMARK 923 INTER-LIGAND FREE ENERGY PREDICTED BY IDOCK:   -7.07 KCAL/MOL
REMARK 924 INTRA-LIGAND FREE ENERGY PREDICTED BY IDOCK:   -1.89 KCAL/MOL
REMARK 927      BINDING AFFINITY PREDICTED BY RF-SCORE:    0.00 PKD
ROOT
HETATM    1  C   UNL     1      -9.455   3.535  65.727  1.00  0.00    -0.139 C  
HETATM    2  C   UNL     1      -9.626   3.806  67.205  1.00  0.00    -0.169 C  
ENDROOT
BRANCH   2   3
HETATM    3  O   UNL     1      -8.540   4.637  67.663  1.00  0.00    -0.103 OA 
BRANCH   3   4
HETATM    4  C   UNL     1      -8.930   5.785  68.307  1.00  0.00    -0.115 A  
HETATM    5  C   UNL     1      -8.670   5.915  69.681  1.00  0.00    -0.128 A  
HETATM    6  C   UNL     1      -9.130   7.061  70.356  1.00  0.00    -0.156 A  
HETATM    7  C   UNL     1      -7.950   4.897  70.516  1.00  0.00    -0.077 C  
HETATM    8  C   UNL     1      -9.831   8.058  69.681  1.00  0.00    -0.184 A  
HETATM    9  O   UNL     1      -7.826   5.009  71.729  1.00  0.00    -0.103 OA 
HETATM   10  O   UNL     1      -7.424   3.865  69.834  1.00  0.00    -0.048 OA 
HETATM   11  C   UNL     1     -10.068   7.945  68.308  1.00  0.00    -0.225 A  
HETATM   12  C   UNL     1      -9.579   6.827  67.627  1.00  0.00    -0.139 A  
BRANCH  11  13
HETATM   13  C   UNL     1     -10.836   9.005  67.560  1.00  0.00    -0.130 C  
BRANCH  13  14
HETATM   14  C   UNL     1     -10.537  10.413  68.038  1.00  0.00    -0.221 C  
HETATM   15  O   UNL     1      -9.379  10.825  68.061  1.00  0.00    -0.144 OA 
HETATM   16  N   UNL     1     -11.635  11.170  68.411  1.00  0.00    -0.304 N  
HETATM   17  H   UNL     1     -12.560  10.741  68.415  1.00  0.00     0.000 HD 
BRANCH  16  18
HETATM   18  C   UNL     1     -11.493  12.584  68.801  1.00  0.00    -0.310 C  
BRANCH  18  19
HETATM   19  C   UNL     1     -12.308  13.038  70.025  1.00  0.00    -0.222 A  
HETATM   20  C   UNL     1     -12.759  12.150  71.060  1.00  0.00    -0.228 A  
HETATM   21  C   UNL     1     -13.374  12.765  72.186  1.00  0.00    -0.593 A  
HETATM   22  C   UNL     1     -12.475  14.441  70.208  1.00  0.00    -0.413 A  
HETATM   23  C   UNL     1     -13.514  14.145  72.342  1.00  0.00    -0.616 A  
HETATM   24  C   UNL     1     -13.065  14.987  71.348  1.00  0.00    -0.464 A  
BRANCH  20  25
HETATM   25  N   UNL     1     -12.672  10.753  71.080  1.00  0.00    -0.390 NA 
HETATM   26  C   UNL     1     -11.458  10.082  71.596  1.00  0.00     0.020 C  
HETATM   27  C   UNL     1     -11.869   8.955  72.550  1.00  0.00    -0.176 C  
HETATM   28  C   UNL     1     -12.764   7.944  71.840  1.00  0.00    -0.341 C  
HETATM   29  C   UNL     1     -13.960   8.645  71.225  1.00  0.00    -0.239 C  
HETATM   30  C   UNL     1     -13.565   9.839  70.367  1.00  0.00     0.505 C  
ENDBRANCH  20  25
ENDBRANCH  18  19
BRANCH  18  31
HETATM   31  C   UNL     1     -11.785  13.544  67.630  1.00  0.00    -0.398 C  
HETATM   32  C   UNL     1      -9.429  14.570  67.404  1.00  0.00    -0.202 C  
HETATM   33  C   UNL     1     -10.597  13.873  66.703  1.00  0.00    -0.274 C  
HETATM   34  C   UNL     1     -11.093  14.790  65.580  1.00  0.00    -0.346 C  
ENDBRANCH  18  31
ENDBRANCH  16  18
ENDBRANCH  13  14
ENDBRANCH  11  13
ENDBRANCH   3   4
ENDBRANCH   2   3
TORSDOF 8
ENDMDL
MODEL      196
REMARK 921   NORMALIZED FREE ENERGY PREDICTED BY IDOCK:   -4.46 KCAL/MOL
REMARK 922        TOTAL FREE ENERGY PREDICTED BY IDOCK:   -8.95 KCAL/MOL
REMARK 923 INTER-LIGAND FREE ENERGY PREDICTED BY IDOCK:   -6.83 KCAL/MOL
REMARK 924 INTRA-LIGAND FREE ENERGY PREDICTED BY IDOCK:   -2.11 KCAL/MOL
REMARK 927      BINDING AFFINITY PREDICTED BY RF-SCORE:    0.00 PKD
ROOT
HETATM    1  C   UNL     1     -12.377  15.044  72.606  1.00  0.00    -0.446 C  
HETATM    2  C   UNL     1     -13.210  14.174  71.691  1.00  0.00    -0.353 C  
ENDROOT
BRANCH   2   3
HETATM    3  O   UNL     1     -12.707  14.289  70.344  1.00  0.00    -0.347 OA 
BRANCH   3   4
HETATM    4  C   UNL     1     -12.146  13.141  69.843  1.00  0.00    -0.287 A  
HETATM    5  C   UNL     1     -11.755  13.106  68.495  1.00  0.00    -0.387 A  
HETATM    6  C   UNL     1     -11.243  11.908  67.964  1.00  0.00    -0.317 A  
HETATM    7  C   UNL     1     -11.865  14.261  67.543  1.00  0.00    -0.395 C  
HETATM    8  C   UNL     1     -11.120  10.768  68.754  1.00  0.00    -0.312 A  
HETATM    9  O   UNL     1     -11.599  14.160  66.352  1.00  0.00    -0.341 OA 
HETATM   10  O   UNL     1     -12.252  15.424  68.094  1.00  0.00    -0.032 OA 
HETATM   11  C   UNL     1     -11.483  10.805  70.104  1.00  0.00    -0.415 A  
HETATM   12  C   UNL     1     -11.955  12.004  70.645  1.00  0.00    -0.257 A  
BRANCH  11  13
HETATM   13  C   UNL     1     -11.371   9.580  70.975  1.00  0.00    -0.423 C  
BRANCH  13  14
HETATM   14  C   UNL     1      -9.998   8.937  70.934  1.00  0.00    -0.242 C  
HETATM   15  O   UNL     1      -9.033   9.509  71.436  1.00  0.00    -0.209 OA 
HETATM   16  N   UNL     1      -9.931   7.695  70.326  1.00  0.00    -0.188 N  
HETATM   17  H   UNL     1     -10.765   7.309  69.884  1.00  0.00     0.000 HD 
BRANCH  16  18
HETATM   18  C   UNL     1      -8.678   6.919  70.304  1.00  0.00    -0.144 C  
BRANCH  18  19
HETATM   19  C   UNL     1      -8.481   5.977  69.103  1.00  0.00    -0.114 A  
HETATM   20  C   UNL     1      -8.195   6.429  67.770  1.00  0.00    -0.118 A  
HETATM   21  C   UNL     1      -7.902   5.414  66.817  1.00  0.00    -0.101 A  
HETATM   22  C   UNL     1      -8.421   4.580  69.379  1.00  0.00    -0.093 A  
HETATM   23  C   UNL     1      -7.840   4.053  67.120  1.00  0.00    -0.092 A  
HETATM   24  C   UNL     1      -8.103   3.633  68.406  1.00  0.00    -0.076 A  
BRANCH  20  25
HETATM   25  N   UNL     1      -8.184   7.748  67.303  1.00  0.00    -0.118 NA 
HETATM   26  C   UNL     1      -7.183   8.716  67.806  1.00  0.00    -0.088 C  
HETATM   27  C   UNL     1      -6.570   9.472  66.623  1.00  0.00    -0.068 C  
HETATM   28  C   UNL     1      -7.649  10.201  65.829  1.00  0.00    -0.134 C  
HETATM   29  C   UNL     1      -8.728   9.227  65.395  1.00  0.00    -0.208 C  
HETATM   30  C   UNL     1      -9.261   8.388  66.549  1.00  0.00    -0.189 C  
ENDBRANCH  20  25
ENDBRANCH  18  19
BRANCH  18  31
HETATM   31  C   UNL     1      -8.469   6.114  71.602  1.00  0.00    -0.130 C  
HETATM   32  C   UNL     1      -5.990   6.708  72.004  1.00  0.00    -0.038 C  
HETATM   33  C   UNL     1      -7.407   6.658  72.580  1.00  0.00    -0.088 C  
HETATM   34  C   UNL     1      -7.382   5.762  73.823  1.00  0.00    -0.086 C  
ENDBRANCH  18  31
ENDBRANCH  16  18
ENDBRANCH  13  14
ENDBRANCH  11  13
ENDBRANCH   3   4
ENDBRANCH   2   3
TORSDOF 8
ENDMDL
MODEL      197
REMARK 921   NORMALIZED FREE ENERGY PREDICTED BY IDOCK:   -4.46 KCAL/MOL
REMARK 922        TOTAL FREE ENERGY PREDICTED BY IDOCK:   -8.94 KCAL/MOL
REMARK 923 INTER-LIGAND FREE ENERGY PREDICTED BY IDOCK:   -8.08 KCAL/MOL
REMARK 924 INTRA-LIGAND FREE ENERGY PREDICTED BY IDOCK:   -0.86 KCAL/MOL
REMARK 927      BINDING AFFINITY PREDICTED BY RF-SCORE:    0.00 PKD
ROOT
HETATM    1  C   UNL     1      -8.297   6.042  68.354  1.00  0.00    -0.113 C  
HETATM    2  C   UNL     1      -9.590   6.825  68.347  1.00  0.00    -0.125 C  
ENDROOT
BRANCH   2   3
HETATM    3  O   UNL     1     -10.410   6.395  69.453  1.00  0.00    -0.182 OA 
BRANCH   3   4
HETATM    4  C   UNL     1     -10.855   7.410  70.264  1.00  0.00    -0.245 A  
HETATM    5  C   UNL     1     -11.065   7.149  71.627  1.00  0.00    -0.264 A  
HETATM    6  C   UNL     1     -11.586   8.170  72.444  1.00  0.00    -0.463 A  
HETATM    7  C   UNL     1     -10.801   5.833  72.297  1.00  0.00    -0.248 C  
HETATM    8  C   UNL     1     -11.889   9.424  71.920  1.00  0.00    -0.402 A  
HETATM    9  O   UNL     1     -11.086   5.621  73.469  1.00  0.00    -0.256 OA 
HETATM   10  O   UNL     1     -10.203   4.908  71.527  1.00  0.00    -0.201 OA 
HETATM   11  C   UNL     1     -11.656   9.697  70.568  1.00  0.00    -0.341 A  
HETATM   12  C   UNL     1     -11.102   8.698  69.762  1.00  0.00    -0.073 A  
BRANCH  11  13
HETATM   13  C   UNL     1     -11.990  11.042  69.976  1.00  0.00    -0.430 C  
BRANCH  13  14
HETATM   14  C   UNL     1     -11.293  11.305  68.655  1.00  0.00    -0.273 C  
HETATM   15  O   UNL     1     -11.833  10.988  67.597  1.00  0.00    -0.599 OA 
HETATM   16  N   UNL     1     -10.058  11.926  68.736  1.00  0.00    -0.369 N  
HETATM   17  H   UNL     1      -9.651  12.111  69.653  1.00  0.00     0.000 HD 
BRANCH  16  18
HETATM   18  C   UNL     1      -9.319  12.326  67.525  1.00  0.00    -0.183 C  
BRANCH  18  19
HETATM   19  C   UNL     1      -9.874  13.541  66.759  1.00  0.00    -0.267 A  
HETATM   20  C   UNL     1      -9.225  14.821  66.710  1.00  0.00    -0.260 A  
HETATM   21  C   UNL     1      -9.807  15.782  65.838  1.00  0.00    -0.381 A  
HETATM   22  C   UNL     1     -11.009  13.317  65.927  1.00  0.00    -0.288 A  
HETATM   23  C   UNL     1     -10.914  15.531  65.026  1.00  0.00    -0.454 A  
HETATM   24  C   UNL     1     -11.520  14.294  65.072  1.00  0.00    -0.364 A  
BRANCH  20  25
HETATM   25  N   UNL     1      -8.097  15.230  67.430  1.00  0.00    -0.166 NA 
HETATM   26  C   UNL     1      -8.002  16.610  67.957  1.00  0.00    -0.171 C  
HETATM   27  C   UNL     1      -7.536  16.564  69.417  1.00  0.00    -0.061 C  
HETATM   28  C   UNL     1      -6.186  15.866  69.533  1.00  0.00    -0.163 C  
HETATM   29  C   UNL     1      -6.254  14.487  68.905  1.00  0.00    -0.087 C  
HETATM   30  C   UNL     1      -6.825  14.511  67.493  1.00  0.00    -0.143 C  
ENDBRANCH  20  25
ENDBRANCH  18  19
BRANCH  18  31
HETATM   31  C   UNL     1      -9.145  11.156  66.536  1.00  0.00    -0.193 C  
HETATM   32  C   UNL     1      -6.787  10.409  67.269  1.00  0.00    -0.081 C  
HETATM   33  C   UNL     1      -8.236  10.000  67.000  1.00  0.00    -0.117 C  
HETATM   34  C   UNL     1      -8.229   8.917  65.915  1.00  0.00    -0.119 C  
ENDBRANCH  18  31
ENDBRANCH  16  18
ENDBRANCH  13  14
ENDBRANCH  11  13
ENDBRANCH   3   4
ENDBRANCH   2   3
TORSDOF 8
ENDMDL
MODEL      198
REMARK 921   NORMALIZED FREE ENERGY PREDICTED BY IDOCK:   -4.45 KCAL/MOL
REMARK 922        TOTAL FREE ENERGY PREDICTED BY IDOCK:   -8.93 KCAL/MOL
REMARK 923 INTER-LIGAND FREE ENERGY PREDICTED BY IDOCK:   -6.73 KCAL/MOL
REMARK 924 INTRA-LIGAND FREE ENERGY PREDICTED BY IDOCK:   -2.20 KCAL/MOL
REMARK 927      BINDING AFFINITY PREDICTED BY RF-SCORE:    0.00 PKD
ROOT
HETATM    1  C   UNL     1      -7.393   5.463  66.374  1.00  0.00    -0.082 C  
HETATM    2  C   UNL     1      -7.976   6.573  65.529  1.00  0.00    -0.117 C  
ENDROOT
BRANCH   2   3
HETATM    3  O   UNL     1      -9.126   7.125  66.202  1.00  0.00    -0.166 OA 
BRANCH   3   4
HETATM    4  C   UNL     1      -8.846   7.757  67.388  1.00  0.00    -0.127 A  
HETATM    5  C   UNL     1      -9.568   7.397  68.537  1.00  0.00    -0.146 A  
HETATM    6  C   UNL     1      -9.329   8.092  69.737  1.00  0.00    -0.159 A  
HETATM    7  C   UNL     1     -10.620   6.328  68.587  1.00  0.00    -0.264 C  
HETATM    8  C   UNL     1      -8.391   9.119  69.798  1.00  0.00    -0.136 A  
HETATM    9  O   UNL     1     -11.291   6.110  69.588  1.00  0.00    -0.414 OA 
HETATM   10  O   UNL     1     -10.755   5.605  67.462  1.00  0.00    -0.243 OA 
HETATM   11  C   UNL     1      -7.650   9.462  68.662  1.00  0.00    -0.080 A  
HETATM   12  C   UNL     1      -7.857   8.749  67.478  1.00  0.00    -0.102 A  
BRANCH  11  13
HETATM   13  C   UNL     1      -6.639  10.580  68.700  1.00  0.00    -0.052 C  
BRANCH  13  14
HETATM   14  C   UNL     1      -7.270  11.956  68.792  1.00  0.00    -0.112 C  
HETATM   15  O   UNL     1      -6.914  12.742  69.668  1.00  0.00     0.084 OA 
HETATM   16  N   UNL     1      -8.225  12.248  67.833  1.00  0.00    -0.150 N  
HETATM   17  H   UNL     1      -8.506  11.525  67.171  1.00  0.00     0.000 HD 
BRANCH  16  18
HETATM   18  C   UNL     1      -8.845  13.583  67.750  1.00  0.00    -0.198 C  
BRANCH  18  19
HETATM   19  C   UNL     1     -10.228  13.651  67.077  1.00  0.00    -0.250 A  
HETATM   20  C   UNL     1     -11.464  13.397  67.762  1.00  0.00    -0.316 A  
HETATM   21  C   UNL     1     -12.651  13.647  67.019  1.00  0.00     0.070 A  
HETATM   22  C   UNL     1     -10.275  14.154  65.745  1.00  0.00    -0.347 A  
HETATM   23  C   UNL     1     -12.666  14.150  65.717  1.00  0.00    -0.443 A  
HETATM   24  C   UNL     1     -11.473  14.403  65.076  1.00  0.00    -0.372 A  
BRANCH  20  25
HETATM   25  N   UNL     1     -11.631  12.922  69.068  1.00  0.00    -0.303 NA 
HETATM   26  C   UNL     1     -11.755  13.866  70.201  1.00  0.00    -0.244 C  
HETATM   27  C   UNL     1     -12.930  13.442  71.089  1.00  0.00    -0.314 C  
HETATM   28  C   UNL     1     -12.730  12.023  71.609  1.00  0.00    -0.326 C  
HETATM   29  C   UNL     1     -12.506  11.067  70.453  1.00  0.00    -0.397 C  
HETATM   30  C   UNL     1     -11.416  11.542  69.501  1.00  0.00    -0.311 C  
ENDBRANCH  20  25
ENDBRANCH  18  19
BRANCH  18  31
HETATM   31  C   UNL     1      -7.917  14.615  67.079  1.00  0.00    -0.106 C  
HETATM   32  C   UNL     1      -8.236  16.542  68.764  1.00  0.00    -0.248 C  
HETATM   33  C   UNL     1      -7.250  15.644  68.013  1.00  0.00    -0.140 C  
HETATM   34  C   UNL     1      -6.333  16.543  67.177  1.00  0.00    -0.220 C  
ENDBRANCH  18  31
ENDBRANCH  16  18
ENDBRANCH  13  14
ENDBRANCH  11  13
ENDBRANCH   3   4
ENDBRANCH   2   3
TORSDOF 8
ENDMDL
MODEL      199
REMARK 921   NORMALIZED FREE ENERGY PREDICTED BY IDOCK:   -4.42 KCAL/MOL
REMARK 922        TOTAL FREE ENERGY PREDICTED BY IDOCK:   -8.89 KCAL/MOL
REMARK 923 INTER-LIGAND FREE ENERGY PREDICTED BY IDOCK:   -7.40 KCAL/MOL
REMARK 924 INTRA-LIGAND FREE ENERGY PREDICTED BY IDOCK:   -1.49 KCAL/MOL
REMARK 927      BINDING AFFINITY PREDICTED BY RF-SCORE:    0.00 PKD
ROOT
HETATM    1  C   UNL     1     -11.346  16.137  69.230  1.00  0.00    -0.328 C  
HETATM    2  C   UNL     1      -9.917  15.721  68.961  1.00  0.00    -0.234 C  
ENDROOT
BRANCH   2   3
HETATM    3  O   UNL     1      -9.699  15.672  67.536  1.00  0.00    -0.220 OA 
BRANCH   3   4
HETATM    4  C   UNL     1     -10.370  14.664  66.889  1.00  0.00    -0.264 A  
HETATM    5  C   UNL     1     -10.896  14.908  65.610  1.00  0.00    -0.347 A  
HETATM    6  C   UNL     1     -11.642  13.897  64.976  1.00  0.00    -0.350 A  
HETATM    7  C   UNL     1     -10.749  16.197  64.856  1.00  0.00    -0.274 C  
HETATM    8  C   UNL     1     -11.860  12.669  65.596  1.00  0.00    -0.488 A  
HETATM    9  O   UNL     1     -11.302  16.399  63.783  1.00  0.00    -0.899 OA 
HETATM   10  O   UNL     1      -9.943  17.107  65.429  1.00  0.00    -0.547 OA 
HETATM   11  C   UNL     1     -11.315  12.413  66.858  1.00  0.00    -0.392 A  
HETATM   12  C   UNL     1     -10.541  13.400  67.474  1.00  0.00    -0.255 A  
BRANCH  11  13
HETATM   13  C   UNL     1     -11.549  11.097  67.554  1.00  0.00    -0.220 C  
BRANCH  13  14
HETATM   14  C   UNL     1     -10.371  10.147  67.455  1.00  0.00    -0.238 C  
HETATM   15  O   UNL     1     -10.239   9.426  66.467  1.00  0.00    -0.258 OA 
HETATM   16  N   UNL     1      -9.482  10.174  68.516  1.00  0.00    -0.153 N  
HETATM   17  H   UNL     1      -9.687  10.761  69.325  1.00  0.00     0.000 HD 
BRANCH  16  18
HETATM   18  C   UNL     1      -8.245   9.373  68.500  1.00  0.00    -0.113 C  
BRANCH  18  19
HETATM   19  C   UNL     1      -7.893   8.637  69.805  1.00  0.00    -0.093 A  
HETATM   20  C   UNL     1      -8.040   7.220  69.989  1.00  0.00    -0.130 A  
HETATM   21  C   UNL     1      -7.532   6.694  71.209  1.00  0.00    -0.084 A  
HETATM   22  C   UNL     1      -7.236   9.393  70.818  1.00  0.00    -0.123 A  
HETATM   23  C   UNL     1      -6.883   7.459  72.180  1.00  0.00    -0.059 A  
HETATM   24  C   UNL     1      -6.736   8.815  71.985  1.00  0.00    -0.048 A  
BRANCH  20  25
HETATM   25  N   UNL     1      -8.636   6.306  69.113  1.00  0.00    -0.120 NA 
HETATM   26  C   UNL     1      -8.329   6.343  67.665  1.00  0.00    -0.117 C  
HETATM   27  C   UNL     1      -8.036   4.921  67.172  1.00  0.00    -0.099 C  
HETATM   28  C   UNL     1      -9.225   4.003  67.432  1.00  0.00    -0.190 C  
HETATM   29  C   UNL     1      -9.604   4.038  68.900  1.00  0.00    -0.213 C  
HETATM   30  C   UNL     1      -9.784   5.456  69.427  1.00  0.00    -0.165 C  
ENDBRANCH  20  25
ENDBRANCH  18  19
BRANCH  18  31
HETATM   31  C   UNL     1      -7.022  10.199  68.054  1.00  0.00    -0.082 C  
HETATM   32  C   UNL     1      -6.499   8.926  65.872  1.00  0.00    -0.057 C  
HETATM   33  C   UNL     1      -6.768  10.278  66.535  1.00  0.00    -0.090 C  
HETATM   34  C   UNL     1      -5.551  11.177  66.289  1.00  0.00    -0.149 C  
ENDBRANCH  18  31
ENDBRANCH  16  18
ENDBRANCH  13  14
ENDBRANCH  11  13
ENDBRANCH   3   4
ENDBRANCH   2   3
TORSDOF 8
ENDMDL
MODEL      200
REMARK 921   NORMALIZED FREE ENERGY PREDICTED BY IDOCK:   -4.40 KCAL/MOL
REMARK 922        TOTAL FREE ENERGY PREDICTED BY IDOCK:   -8.85 KCAL/MOL
REMARK 923 INTER-LIGAND FREE ENERGY PREDICTED BY IDOCK:   -6.82 KCAL/MOL
REMARK 924 INTRA-LIGAND FREE ENERGY PREDICTED BY IDOCK:   -2.04 KCAL/MOL
REMARK 927      BINDING AFFINITY PREDICTED BY RF-SCORE:    0.00 PKD
ROOT
HETATM    1  C   UNL     1     -13.365  12.943  64.879  1.00  0.00     0.607 C  
HETATM    2  C   UNL     1     -12.584  12.683  63.611  1.00  0.00    -0.337 C  
ENDROOT
BRANCH   2   3
HETATM    3  O   UNL     1     -11.549  13.679  63.481  1.00  0.00    -0.180 OA 
BRANCH   3   4
HETATM    4  C   UNL     1     -10.692  13.757  64.550  1.00  0.00    -0.390 A  
HETATM    5  C   UNL     1     -10.439  15.010  65.130  1.00  0.00    -0.438 A  
HETATM    6  C   UNL     1      -9.509  15.100  66.182  1.00  0.00    -0.354 A  
HETATM    7  C   UNL     1     -11.073  16.298  64.693  1.00  0.00    -0.246 C  
HETATM    8  C   UNL     1      -8.845  13.968  66.651  1.00  0.00    -0.117 A  
HETATM    9  O   UNL     1     -10.755  17.383  65.165  1.00  0.00    -0.684 OA 
HETATM   10  O   UNL     1     -12.037  16.177  63.765  1.00  0.00    -0.946 OA 
HETATM   11  C   UNL     1      -9.114  12.714  66.094  1.00  0.00     0.019 A  
HETATM   12  C   UNL     1     -10.066  12.616  65.075  1.00  0.00    -0.252 A  
BRANCH  11  13
HETATM   13  C   UNL     1      -8.397  11.479  66.575  1.00  0.00    -0.147 C  
BRANCH  13  14
HETATM   14  C   UNL     1      -8.609  11.198  68.050  1.00  0.00    -0.140 C  
HETATM   15  O   UNL     1      -7.788  11.589  68.878  1.00  0.00    -0.131 OA 
HETATM   16  N   UNL     1      -9.767  10.511  68.374  1.00  0.00    -0.153 N  
HETATM   17  H   UNL     1     -10.373  10.173  67.627  1.00  0.00     0.000 HD 
BRANCH  16  18
HETATM   18  C   UNL     1     -10.142  10.260  69.778  1.00  0.00    -0.203 C  
BRANCH  18  19
HETATM   19  C   UNL     1     -10.914   8.957  70.053  1.00  0.00    -0.217 A  
HETATM   20  C   UNL     1     -10.640   7.710  69.396  1.00  0.00    -0.215 A  
HETATM   21  C   UNL     1     -11.356   6.580  69.879  1.00  0.00    -0.469 A  
HETATM   22  C   UNL     1     -11.837   8.970  71.139  1.00  0.00    -0.362 A  
HETATM   23  C   UNL     1     -12.247   6.621  70.952  1.00  0.00    -0.324 A  
HETATM   24  C   UNL     1     -12.491   7.821  71.584  1.00  0.00    -0.352 A  
BRANCH  20  25
HETATM   25  N   UNL     1      -9.761   7.486  68.330  1.00  0.00    -0.152 NA 
HETATM   26  C   UNL     1     -10.280   7.279  66.959  1.00  0.00    -0.278 C  
HETATM   27  C   UNL     1      -9.477   8.141  65.978  1.00  0.00    -0.158 C  
HETATM   28  C   UNL     1      -7.995   7.788  66.036  1.00  0.00    -0.108 C  
HETATM   29  C   UNL     1      -7.483   7.904  67.459  1.00  0.00    -0.093 C  
HETATM   30  C   UNL     1      -8.345   7.143  68.457  1.00  0.00    -0.125 C  
ENDBRANCH  20  25
ENDBRANCH  18  19
BRANCH  18  31
HETATM   31  C   UNL     1     -10.924  11.437  70.391  1.00  0.00     0.624 C  
HETATM   32  C   UNL     1     -11.898  12.405  68.207  1.00  0.00    -0.364 C  
HETATM   33  C   UNL     1     -12.180  11.898  69.624  1.00  0.00    -0.216 C  
HETATM   34  C   UNL     1     -12.846  13.033  70.410  1.00  0.00     0.084 C  
ENDBRANCH  18  31
ENDBRANCH  16  18
ENDBRANCH  13  14
ENDBRANCH  11  13
ENDBRANCH   3   4
ENDBRANCH   2   3
TORSDOF 8
ENDMDL
MODEL      201
REMARK 921   NORMALIZED FREE ENERGY PREDICTED BY IDOCK:   -4.40 KCAL/MOL
REMARK 922        TOTAL FREE ENERGY PREDICTED BY IDOCK:   -8.85 KCAL/MOL
REMARK 923 INTER-LIGAND FREE ENERGY PREDICTED BY IDOCK:   -8.28 KCAL/MOL
REMARK 924 INTRA-LIGAND FREE ENERGY PREDICTED BY IDOCK:   -0.58 KCAL/MOL
REMARK 927      BINDING AFFINITY PREDICTED BY RF-SCORE:    0.00 PKD
ROOT
HETATM    1  C   UNL     1      -7.291   7.733  72.860  1.00  0.00    -0.106 C  
HETATM    2  C   UNL     1      -8.127   8.076  74.072  1.00  0.00    -0.248 C  
ENDROOT
BRANCH   2   3
HETATM    3  O   UNL     1      -9.210   7.130  74.183  1.00  0.00    -0.216 OA 
BRANCH   3   4
HETATM    4  C   UNL     1     -10.076   7.125  73.118  1.00  0.00    -0.251 A  
HETATM    5  C   UNL     1     -10.374   5.906  72.489  1.00  0.00    -0.227 A  
HETATM    6  C   UNL     1     -11.207   5.910  71.355  1.00  0.00    -0.285 A  
HETATM    7  C   UNL     1      -9.841   4.570  72.917  1.00  0.00    -0.144 C  
HETATM    8  C   UNL     1     -11.738   7.098  70.858  1.00  0.00    -0.367 A  
HETATM    9  O   UNL     1     -10.052   3.543  72.283  1.00  0.00    -0.161 OA 
HETATM   10  O   UNL     1      -9.138   4.574  74.062  1.00  0.00    -0.108 OA 
HETATM   11  C   UNL     1     -11.467   8.311  71.498  1.00  0.00    -0.325 A  
HETATM   12  C   UNL     1     -10.670   8.307  72.647  1.00  0.00    -0.384 A  
BRANCH  11  13
HETATM   13  C   UNL     1     -12.017   9.611  70.970  1.00  0.00    -0.427 C  
BRANCH  13  14
HETATM   14  C   UNL     1     -11.193  10.197  69.841  1.00  0.00    -0.287 C  
HETATM   15  O   UNL     1      -9.967  10.240  69.927  1.00  0.00    -0.222 OA 
HETATM   16  N   UNL     1     -11.906  10.643  68.741  1.00  0.00    -0.505 N  
HETATM   17  H   UNL     1     -12.925  10.624  68.765  1.00  0.00     0.000 HD 
BRANCH  16  18
HETATM   18  C   UNL     1     -11.222  11.145  67.535  1.00  0.00    -0.301 C  
BRANCH  18  19
HETATM   19  C   UNL     1      -9.692  11.285  67.629  1.00  0.00    -0.183 A  
HETATM   20  C   UNL     1      -8.775  10.197  67.435  1.00  0.00    -0.125 A  
HETATM   21  C   UNL     1      -7.395  10.539  67.418  1.00  0.00    -0.093 A  
HETATM   22  C   UNL     1      -9.169  12.605  67.755  1.00  0.00    -0.195 A  
HETATM   23  C   UNL     1      -6.913  11.844  67.533  1.00  0.00    -0.123 A  
HETATM   24  C   UNL     1      -7.803  12.882  67.704  1.00  0.00    -0.168 A  
BRANCH  20  25
HETATM   25  N   UNL     1      -9.086   8.842  67.275  1.00  0.00    -0.131 NA 
HETATM   26  C   UNL     1      -8.089   7.798  67.604  1.00  0.00    -0.124 C  
HETATM   27  C   UNL     1      -8.758   6.703  68.442  1.00  0.00    -0.122 C  
HETATM   28  C   UNL     1      -9.932   6.087  67.689  1.00  0.00    -0.154 C  
HETATM   29  C   UNL     1     -10.909   7.168  67.266  1.00  0.00    -0.382 C  
HETATM   30  C   UNL     1     -10.231   8.317  66.531  1.00  0.00    -0.193 C  
ENDBRANCH  20  25
ENDBRANCH  18  19
BRANCH  18  31
HETATM   31  C   UNL     1     -11.811  12.483  67.046  1.00  0.00    -0.394 C  
HETATM   32  C   UNL     1     -10.812  12.472  64.667  1.00  0.00    -0.343 C  
HETATM   33  C   UNL     1     -12.069  12.603  65.530  1.00  0.00    -0.515 C  
HETATM   34  C   UNL     1     -12.699  13.971  65.247  1.00  0.00    -0.468 C  
ENDBRANCH  18  31
ENDBRANCH  16  18
ENDBRANCH  13  14
ENDBRANCH  11  13
ENDBRANCH   3   4
ENDBRANCH   2   3
TORSDOF 8
ENDMDL
MODEL      202
REMARK 921   NORMALIZED FREE ENERGY PREDICTED BY IDOCK:   -4.39 KCAL/MOL
REMARK 922        TOTAL FREE ENERGY PREDICTED BY IDOCK:   -8.85 KCAL/MOL
REMARK 923 INTER-LIGAND FREE ENERGY PREDICTED BY IDOCK:   -6.41 KCAL/MOL
REMARK 924 INTRA-LIGAND FREE ENERGY PREDICTED BY IDOCK:   -2.43 KCAL/MOL
REMARK 927      BINDING AFFINITY PREDICTED BY RF-SCORE:    0.00 PKD
ROOT
HETATM    1  C   UNL     1     -10.663   6.525  67.365  1.00  0.00    -0.412 C  
HETATM    2  C   UNL     1      -9.600   7.301  66.621  1.00  0.00    -0.178 C  
ENDROOT
BRANCH   2   3
HETATM    3  O   UNL     1      -8.331   6.634  66.779  1.00  0.00    -0.112 OA 
BRANCH   3   4
HETATM    4  C   UNL     1      -7.378   7.367  67.441  1.00  0.00    -0.102 A  
HETATM    5  C   UNL     1      -6.729   6.797  68.548  1.00  0.00    -0.064 A  
HETATM    6  C   UNL     1      -5.802   7.572  69.269  1.00  0.00    -0.027 A  
HETATM    7  C   UNL     1      -6.968   5.405  69.056  1.00  0.00    -0.056 C  
HETATM    8  C   UNL     1      -5.521   8.885  68.897  1.00  0.00    -0.037 A  
HETATM    9  O   UNL     1      -6.449   4.980  70.080  1.00  0.00    -0.032 OA 
HETATM   10  O   UNL     1      -7.772   4.646  68.292  1.00  0.00    -0.079 OA 
HETATM   11  C   UNL     1      -6.145   9.448  67.779  1.00  0.00    -0.053 A  
HETATM   12  C   UNL     1      -7.037   8.668  67.038  1.00  0.00    -0.075 A  
BRANCH  11  13
HETATM   13  C   UNL     1      -5.868  10.871  67.367  1.00  0.00    -0.046 C  
BRANCH  13  14
HETATM   14  C   UNL     1      -6.866  11.864  67.932  1.00  0.00    -0.083 C  
HETATM   15  O   UNL     1      -6.852  12.141  69.130  1.00  0.00    -0.099 OA 
HETATM   16  N   UNL     1      -7.744  12.424  67.019  1.00  0.00    -0.342 N  
HETATM   17  H   UNL     1      -7.729  12.104  66.051  1.00  0.00     0.000 HD 
BRANCH  16  18
HETATM   18  C   UNL     1      -8.698  13.474  67.418  1.00  0.00    -0.220 C  
BRANCH  18  19
HETATM   19  C   UNL     1      -9.983  13.581  66.578  1.00  0.00    -0.287 A  
HETATM   20  C   UNL     1     -11.233  12.978  66.948  1.00  0.00    -0.295 A  
HETATM   21  C   UNL     1     -12.348  13.301  66.126  1.00  0.00    -0.423 A  
HETATM   22  C   UNL     1      -9.955  14.465  65.461  1.00  0.00    -0.359 A  
HETATM   23  C   UNL     1     -12.292  14.179  65.043  1.00  0.00    -0.452 A  
HETATM   24  C   UNL     1     -11.090  14.763  64.707  1.00  0.00    -0.393 A  
BRANCH  20  25
HETATM   25  N   UNL     1     -11.473  12.102  68.013  1.00  0.00    -0.296 NA 
HETATM   26  C   UNL     1     -11.028  10.692  67.942  1.00  0.00    -0.295 C  
HETATM   27  C   UNL     1     -10.328  10.315  69.252  1.00  0.00    -0.250 C  
HETATM   28  C   UNL     1     -11.262  10.509  70.441  1.00  0.00    -0.378 C  
HETATM   29  C   UNL     1     -11.797  11.929  70.460  1.00  0.00    -0.253 C  
HETATM   30  C   UNL     1     -12.392  12.351  69.123  1.00  0.00     0.175 C  
ENDBRANCH  20  25
ENDBRANCH  18  19
BRANCH  18  31
HETATM   31  C   UNL     1      -8.038  14.865  67.490  1.00  0.00    -0.200 C  
HETATM   32  C   UNL     1      -9.569  15.903  69.288  1.00  0.00    -0.266 C  
HETATM   33  C   UNL     1      -8.137  15.600  68.842  1.00  0.00    -0.197 C  
HETATM   34  C   UNL     1      -7.382  16.930  68.733  1.00  0.00    -0.227 C  
ENDBRANCH  18  31
ENDBRANCH  16  18
ENDBRANCH  13  14
ENDBRANCH  11  13
ENDBRANCH   3   4
ENDBRANCH   2   3
TORSDOF 8
ENDMDL
MODEL      203
REMARK 921   NORMALIZED FREE ENERGY PREDICTED BY IDOCK:   -4.39 KCAL/MOL
REMARK 922        TOTAL FREE ENERGY PREDICTED BY IDOCK:   -8.84 KCAL/MOL
REMARK 923 INTER-LIGAND FREE ENERGY PREDICTED BY IDOCK:   -6.86 KCAL/MOL
REMARK 924 INTRA-LIGAND FREE ENERGY PREDICTED BY IDOCK:   -1.98 KCAL/MOL
REMARK 927      BINDING AFFINITY PREDICTED BY RF-SCORE:    0.00 PKD
ROOT
HETATM    1  C   UNL     1      -8.794   2.607  63.651  1.00  0.00    -0.085 C  
HETATM    2  C   UNL     1      -8.873   2.391  65.145  1.00  0.00    -0.120 C  
ENDROOT
BRANCH   2   3
HETATM    3  O   UNL     1      -7.927   3.260  65.800  1.00  0.00    -0.084 OA 
BRANCH   3   4
HETATM    4  C   UNL     1      -8.416   3.909  66.907  1.00  0.00    -0.104 A  
HETATM    5  C   UNL     1      -7.986   3.502  68.179  1.00  0.00    -0.071 A  
HETATM    6  C   UNL     1      -8.539   4.120  69.316  1.00  0.00    -0.109 A  
HETATM    7  C   UNL     1      -6.982   2.416  68.436  1.00  0.00    -0.044 C  
HETATM    8  C   UNL     1      -9.496   5.125  69.192  1.00  0.00    -0.188 A  
HETATM    9  O   UNL     1      -6.705   2.029  69.565  1.00  0.00    -0.032 OA 
HETATM   10  O   UNL     1      -6.387   1.914  67.341  1.00  0.00    -0.024 OA 
HETATM   11  C   UNL     1      -9.907   5.552  67.926  1.00  0.00    -0.169 A  
HETATM   12  C   UNL     1      -9.332   4.967  66.794  1.00  0.00    -0.136 A  
BRANCH  11  13
HETATM   13  C   UNL     1     -10.951   6.627  67.768  1.00  0.00    -0.367 C  
BRANCH  13  14
HETATM   14  C   UNL     1     -10.394   8.031  67.906  1.00  0.00    -0.222 C  
HETATM   15  O   UNL     1      -9.337   8.333  67.354  1.00  0.00    -0.137 OA 
HETATM   16  N   UNL     1     -11.154   8.912  68.656  1.00  0.00    -0.433 N  
HETATM   17  H   UNL     1     -11.993   8.573  69.127  1.00  0.00     0.000 HD 
BRANCH  16  18
HETATM   18  C   UNL     1     -10.776  10.331  68.788  1.00  0.00    -0.219 C  
BRANCH  18  19
HETATM   19  C   UNL     1     -11.595  11.164  69.790  1.00  0.00    -0.409 A  
HETATM   20  C   UNL     1     -12.160  10.633  70.999  1.00  0.00    -0.368 A  
HETATM   21  C   UNL     1     -12.763  11.579  71.873  1.00  0.00    -0.250 A  
HETATM   22  C   UNL     1     -11.648  12.571  69.571  1.00  0.00    -0.348 A  
HETATM   23  C   UNL     1     -12.789  12.954  71.638  1.00  0.00    -0.368 A  
HETATM   24  C   UNL     1     -12.232  13.453  70.480  1.00  0.00    -0.425 A  
BRANCH  20  25
HETATM   25  N   UNL     1     -12.195   9.294  71.404  1.00  0.00    -0.329 NA 
HETATM   26  C   UNL     1     -13.459   8.525  71.352  1.00  0.00    -0.222 C  
HETATM   27  C   UNL     1     -13.196   7.160  70.708  1.00  0.00     0.115 C  
HETATM   28  C   UNL     1     -12.145   6.384  71.493  1.00  0.00    -0.289 C  
HETATM   29  C   UNL     1     -10.880   7.210  71.632  1.00  0.00    -0.250 C  
HETATM   30  C   UNL     1     -11.148   8.611  72.164  1.00  0.00    -0.364 C  
ENDBRANCH  20  25
ENDBRANCH  18  19
BRANCH  18  31
HETATM   31  C   UNL     1     -10.768  11.060  67.430  1.00  0.00    -0.303 C  
HETATM   32  C   UNL     1      -8.597  12.415  67.757  1.00  0.00    -0.172 C  
HETATM   33  C   UNL     1      -9.384  11.447  66.870  1.00  0.00    -0.191 C  
HETATM   34  C   UNL     1      -9.577  12.109  65.501  1.00  0.00    -0.141 C  
ENDBRANCH  18  31
ENDBRANCH  16  18
ENDBRANCH  13  14
ENDBRANCH  11  13
ENDBRANCH   3   4
ENDBRANCH   2   3
TORSDOF 8
ENDMDL
MODEL      204
REMARK 921   NORMALIZED FREE ENERGY PREDICTED BY IDOCK:   -4.35 KCAL/MOL
REMARK 922        TOTAL FREE ENERGY PREDICTED BY IDOCK:   -8.78 KCAL/MOL
REMARK 923 INTER-LIGAND FREE ENERGY PREDICTED BY IDOCK:   -7.31 KCAL/MOL
REMARK 924 INTRA-LIGAND FREE ENERGY PREDICTED BY IDOCK:   -1.48 KCAL/MOL
REMARK 927      BINDING AFFINITY PREDICTED BY RF-SCORE:    0.00 PKD
ROOT
HETATM    1  C   UNL     1     -10.823  19.974  65.569  1.00  0.00    -0.179 C  
HETATM    2  C   UNL     1      -9.712  19.427  66.436  1.00  0.00    -0.386 C  
ENDROOT
BRANCH   2   3
HETATM    3  O   UNL     1      -9.063  18.341  65.742  1.00  0.00    -0.443 OA 
BRANCH   3   4
HETATM    4  C   UNL     1      -8.961  17.179  66.467  1.00  0.00    -0.272 A  
HETATM    5  C   UNL     1      -7.687  16.698  66.806  1.00  0.00    -0.292 A  
HETATM    6  C   UNL     1      -7.580  15.472  67.489  1.00  0.00    -0.201 A  
HETATM    7  C   UNL     1      -6.396  17.385  66.468  1.00  0.00    -0.225 C  
HETATM    8  C   UNL     1      -8.715  14.740  67.831  1.00  0.00    -0.167 A  
HETATM    9  O   UNL     1      -5.303  16.884  66.702  1.00  0.00    -0.277 OA 
HETATM   10  O   UNL     1      -6.522  18.603  65.915  1.00  0.00    -0.204 OA 
HETATM   11  C   UNL     1      -9.987  15.229  67.519  1.00  0.00    -0.226 A  
HETATM   12  C   UNL     1     -10.099  16.465  66.876  1.00  0.00    -0.281 A  
BRANCH  11  13
HETATM   13  C   UNL     1     -11.229  14.448  67.867  1.00  0.00    -0.304 C  
BRANCH  13  14
HETATM   14  C   UNL     1     -10.957  13.262  68.773  1.00  0.00    -0.260 C  
HETATM   15  O   UNL     1     -11.143  13.355  69.985  1.00  0.00     0.073 OA 
HETATM   16  N   UNL     1     -10.522  12.108  68.144  1.00  0.00    -0.205 N  
HETATM   17  H   UNL     1     -10.341  12.124  67.140  1.00  0.00     0.000 HD 
BRANCH  16  18
HETATM   18  C   UNL     1     -10.315  10.857  68.895  1.00  0.00    -0.204 C  
BRANCH  18  19
HETATM   19  C   UNL     1      -9.795   9.655  68.086  1.00  0.00    -0.172 A  
HETATM   20  C   UNL     1      -8.416   9.258  68.041  1.00  0.00    -0.120 A  
HETATM   21  C   UNL     1      -8.139   8.040  67.359  1.00  0.00    -0.122 A  
HETATM   22  C   UNL     1     -10.771   8.806  67.488  1.00  0.00    -0.213 A  
HETATM   23  C   UNL     1      -9.118   7.223  66.792  1.00  0.00    -0.172 A  
HETATM   24  C   UNL     1     -10.440   7.608  66.854  1.00  0.00    -0.388 A  
BRANCH  20  25
HETATM   25  N   UNL     1      -7.317   9.938  68.579  1.00  0.00    -0.077 NA 
HETATM   26  C   UNL     1      -6.720  11.087  67.862  1.00  0.00    -0.063 C  
HETATM   27  C   UNL     1      -6.498  12.240  68.848  1.00  0.00    -0.089 C  
HETATM   28  C   UNL     1      -5.587  11.806  69.991  1.00  0.00    -0.121 C  
HETATM   29  C   UNL     1      -6.147  10.568  70.666  1.00  0.00    -0.089 C  
HETATM   30  C   UNL     1      -6.479   9.458  69.677  1.00  0.00    -0.040 C  
ENDBRANCH  20  25
ENDBRANCH  18  19
BRANCH  18  31
HETATM   31  C   UNL     1     -11.579  10.425  69.665  1.00  0.00    -0.307 C  
HETATM   32  C   UNL     1     -10.444   8.877  71.389  1.00  0.00    -0.375 C  
HETATM   33  C   UNL     1     -11.384  10.061  71.151  1.00  0.00    -0.397 C  
HETATM   34  C   UNL     1     -12.749   9.711  71.753  1.00  0.00    -0.510 C  
ENDBRANCH  18  31
ENDBRANCH  16  18
ENDBRANCH  13  14
ENDBRANCH  11  13
ENDBRANCH   3   4
ENDBRANCH   2   3
TORSDOF 8
ENDMDL
MODEL      205
REMARK 921   NORMALIZED FREE ENERGY PREDICTED BY IDOCK:   -4.34 KCAL/MOL
REMARK 922        TOTAL FREE ENERGY PREDICTED BY IDOCK:   -8.76 KCAL/MOL
REMARK 923 INTER-LIGAND FREE ENERGY PREDICTED BY IDOCK:   -6.85 KCAL/MOL
REMARK 924 INTRA-LIGAND FREE ENERGY PREDICTED BY IDOCK:   -1.91 KCAL/MOL
REMARK 927      BINDING AFFINITY PREDICTED BY RF-SCORE:    0.00 PKD
ROOT
HETATM    1  C   UNL     1     -12.270  13.443  63.432  1.00  0.00    -0.419 C  
HETATM    2  C   UNL     1     -12.403  12.098  64.110  1.00  0.00    -0.409 C  
ENDROOT
BRANCH   2   3
HETATM    3  O   UNL     1     -12.340  12.281  65.540  1.00  0.00    -0.602 OA 
BRANCH   3   4
HETATM    4  C   UNL     1     -11.098  12.080  66.089  1.00  0.00    -0.322 A  
HETATM    5  C   UNL     1     -10.519  13.103  66.856  1.00  0.00    -0.256 A  
HETATM    6  C   UNL     1      -9.218  12.923  67.361  1.00  0.00    -0.197 A  
HETATM    7  C   UNL     1     -11.177  14.416  67.166  1.00  0.00    -0.328 C  
HETATM    8  C   UNL     1      -8.507  11.751  67.113  1.00  0.00    -0.170 A  
HETATM    9  O   UNL     1     -10.600  15.317  67.761  1.00  0.00    -0.255 OA 
HETATM   10  O   UNL     1     -12.456  14.524  66.769  1.00  0.00    -0.257 OA 
HETATM   11  C   UNL     1      -9.091  10.719  66.373  1.00  0.00    -0.188 A  
HETATM   12  C   UNL     1     -10.397  10.878  65.902  1.00  0.00    -0.310 A  
BRANCH  11  13
HETATM   13  C   UNL     1      -8.335   9.448  66.079  1.00  0.00    -0.123 C  
BRANCH  13  14
HETATM   14  C   UNL     1      -8.607   8.343  67.082  1.00  0.00    -0.123 C  
HETATM   15  O   UNL     1      -9.355   8.545  68.037  1.00  0.00    -0.136 OA 
HETATM   16  N   UNL     1      -7.984   7.132  66.831  1.00  0.00    -0.113 N  
HETATM   17  H   UNL     1      -7.336   7.057  66.047  1.00  0.00     0.000 HD 
BRANCH  16  18
HETATM   18  C   UNL     1      -8.241   5.949  67.672  1.00  0.00    -0.105 C  
BRANCH  18  19
HETATM   19  C   UNL     1      -7.365   5.805  68.929  1.00  0.00    -0.083 A  
HETATM   20  C   UNL     1      -7.869   5.900  70.271  1.00  0.00    -0.101 A  
HETATM   21  C   UNL     1      -6.944   5.599  71.308  1.00  0.00    -0.066 A  
HETATM   22  C   UNL     1      -6.015   5.394  68.734  1.00  0.00    -0.021 A  
HETATM   23  C   UNL     1      -5.628   5.188  71.086  1.00  0.00    -0.008 A  
HETATM   24  C   UNL     1      -5.160   5.087  69.793  1.00  0.00     0.000 A  
BRANCH  20  25
HETATM   25  N   UNL     1      -9.160   6.267  70.670  1.00  0.00    -0.150 NA 
HETATM   26  C   UNL     1      -9.359   7.306  71.705  1.00  0.00    -0.149 C  
HETATM   27  C   UNL     1     -10.432   8.293  71.232  1.00  0.00    -0.262 C  
HETATM   28  C   UNL     1     -11.746   7.572  70.955  1.00  0.00    -0.317 C  
HETATM   29  C   UNL     1     -11.526   6.442  69.967  1.00  0.00    -0.496 C  
HETATM   30  C   UNL     1     -10.382   5.521  70.373  1.00  0.00    -0.276 C  
ENDBRANCH  20  25
ENDBRANCH  18  19
BRANCH  18  31
HETATM   31  C   UNL     1      -8.169   4.636  66.867  1.00  0.00    -0.106 C  
HETATM   32  C   UNL     1     -10.594   4.617  65.985  1.00  0.00    -0.244 C  
HETATM   33  C   UNL     1      -9.105   4.531  65.645  1.00  0.00    -0.140 C  
HETATM   34  C   UNL     1      -8.853   3.189  64.950  1.00  0.00    -0.120 C  
ENDBRANCH  18  31
ENDBRANCH  16  18
ENDBRANCH  13  14
ENDBRANCH  11  13
ENDBRANCH   3   4
ENDBRANCH   2   3
TORSDOF 8
ENDMDL
MODEL      206
REMARK 921   NORMALIZED FREE ENERGY PREDICTED BY IDOCK:   -4.33 KCAL/MOL
REMARK 922        TOTAL FREE ENERGY PREDICTED BY IDOCK:   -8.76 KCAL/MOL
REMARK 923 INTER-LIGAND FREE ENERGY PREDICTED BY IDOCK:   -7.41 KCAL/MOL
REMARK 924 INTRA-LIGAND FREE ENERGY PREDICTED BY IDOCK:   -1.35 KCAL/MOL
REMARK 927      BINDING AFFINITY PREDICTED BY RF-SCORE:    0.00 PKD
ROOT
HETATM    1  C   UNL     1     -12.668  15.683  71.005  1.00  0.00    -0.517 C  
HETATM    2  C   UNL     1     -11.344  15.777  70.281  1.00  0.00    -0.361 C  
ENDROOT
BRANCH   2   3
HETATM    3  O   UNL     1     -11.521  16.538  69.069  1.00  0.00    -0.249 OA 
BRANCH   3   4
HETATM    4  C   UNL     1     -11.187  15.867  67.919  1.00  0.00    -0.297 A  
HETATM    5  C   UNL     1     -10.479  16.547  66.915  1.00  0.00    -0.282 A  
HETATM    6  C   UNL     1     -10.196  15.880  65.709  1.00  0.00    -0.389 A  
HETATM    7  C   UNL     1     -10.012  17.970  67.012  1.00  0.00    -0.329 C  
HETATM    8  C   UNL     1     -10.604  14.564  65.503  1.00  0.00    -0.364 A  
HETATM    9  O   UNL     1      -9.480  18.554  66.077  1.00  0.00    -0.492 OA 
HETATM   10  O   UNL     1     -10.195  18.552  68.209  1.00  0.00    -0.361 OA 
HETATM   11  C   UNL     1     -11.285  13.874  66.511  1.00  0.00    -0.327 A  
HETATM   12  C   UNL     1     -11.534  14.520  67.725  1.00  0.00    -0.362 A  
BRANCH  11  13
HETATM   13  C   UNL     1     -11.748  12.454  66.306  1.00  0.00    -0.457 C  
BRANCH  13  14
HETATM   14  C   UNL     1     -10.791  11.423  66.872  1.00  0.00    -0.285 C  
HETATM   15  O   UNL     1     -11.193  10.579  67.671  1.00  0.00    -0.326 OA 
HETATM   16  N   UNL     1      -9.486  11.495  66.415  1.00  0.00    -0.206 N  
HETATM   17  H   UNL     1      -9.216  12.257  65.793  1.00  0.00     0.000 HD 
BRANCH  16  18
HETATM   18  C   UNL     1      -8.479  10.494  66.810  1.00  0.00    -0.127 C  
BRANCH  18  19
HETATM   19  C   UNL     1      -7.832  10.688  68.193  1.00  0.00    -0.110 A  
HETATM   20  C   UNL     1      -7.778   9.666  69.201  1.00  0.00    -0.087 A  
HETATM   21  C   UNL     1      -7.017   9.976  70.362  1.00  0.00    -0.137 A  
HETATM   22  C   UNL     1      -7.110  11.898  68.407  1.00  0.00    -0.086 A  
HETATM   23  C   UNL     1      -6.311  11.167  70.539  1.00  0.00     0.065 A  
HETATM   24  C   UNL     1      -6.359  12.134  69.559  1.00  0.00    -0.122 A  
BRANCH  20  25
HETATM   25  N   UNL     1      -8.398   8.412  69.175  1.00  0.00    -0.120 NA 
HETATM   26  C   UNL     1      -9.783   8.268  68.673  1.00  0.00    -0.156 C  
HETATM   27  C   UNL     1      -9.851   7.081  67.706  1.00  0.00    -0.166 C  
HETATM   28  C   UNL     1      -9.409   5.795  68.396  1.00  0.00    -0.130 C  
HETATM   29  C   UNL     1      -8.027   5.971  68.997  1.00  0.00    -0.104 C  
HETATM   30  C   UNL     1      -7.919   7.216  69.868  1.00  0.00    -0.122 C  
ENDBRANCH  20  25
ENDBRANCH  18  19
BRANCH  18  31
HETATM   31  C   UNL     1      -7.361  10.347  65.759  1.00  0.00    -0.147 C  
HETATM   32  C   UNL     1      -7.209   7.771  65.748  1.00  0.00    -0.068 C  
HETATM   33  C   UNL     1      -7.374   9.050  64.924  1.00  0.00    -0.100 C  
HETATM   34  C   UNL     1      -6.230   9.110  63.907  1.00  0.00    -0.088 C  
ENDBRANCH  18  31
ENDBRANCH  16  18
ENDBRANCH  13  14
ENDBRANCH  11  13
ENDBRANCH   3   4
ENDBRANCH   2   3
TORSDOF 8
ENDMDL
MODEL      207
REMARK 921   NORMALIZED FREE ENERGY PREDICTED BY IDOCK:   -4.33 KCAL/MOL
REMARK 922        TOTAL FREE ENERGY PREDICTED BY IDOCK:   -8.75 KCAL/MOL
REMARK 923 INTER-LIGAND FREE ENERGY PREDICTED BY IDOCK:   -7.31 KCAL/MOL
REMARK 924 INTRA-LIGAND FREE ENERGY PREDICTED BY IDOCK:   -1.44 KCAL/MOL
REMARK 927      BINDING AFFINITY PREDICTED BY RF-SCORE:    0.00 PKD
ROOT
HETATM    1  C   UNL     1      -9.493   3.614  69.382  1.00  0.00    -0.249 C  
HETATM    2  C   UNL     1      -9.990   4.614  70.402  1.00  0.00    -0.230 C  
ENDROOT
BRANCH   2   3
HETATM    3  O   UNL     1      -8.908   5.496  70.765  1.00  0.00    -0.131 OA 
BRANCH   3   4
HETATM    4  C   UNL     1      -9.202   6.833  70.665  1.00  0.00    -0.155 A  
HETATM    5  C   UNL     1      -9.057   7.648  71.799  1.00  0.00    -0.161 A  
HETATM    6  C   UNL     1      -9.423   9.004  71.715  1.00  0.00    -0.245 A  
HETATM    7  C   UNL     1      -8.558   7.176  73.133  1.00  0.00    -0.122 C  
HETATM    8  C   UNL     1      -9.920   9.541  70.530  1.00  0.00    -0.335 A  
HETATM    9  O   UNL     1      -8.535   7.899  74.121  1.00  0.00    -0.237 OA 
HETATM   10  O   UNL     1      -8.112   5.909  73.163  1.00  0.00    -0.115 OA 
HETATM   11  C   UNL     1     -10.041   8.740  69.391  1.00  0.00    -0.203 A  
HETATM   12  C   UNL     1      -9.642   7.402  69.459  1.00  0.00    -0.155 A  
BRANCH  11  13
HETATM   13  C   UNL     1     -10.590   9.296  68.102  1.00  0.00    -0.248 C  
BRANCH  13  14
HETATM   14  C   UNL     1     -11.395  10.567  68.291  1.00  0.00    -0.264 C  
HETATM   15  O   UNL     1     -12.476  10.533  68.876  1.00  0.00    -0.194 OA 
HETATM   16  N   UNL     1     -10.823  11.724  67.789  1.00  0.00    -0.203 N  
HETATM   17  H   UNL     1      -9.948  11.664  67.269  1.00  0.00     0.000 HD 
BRANCH  16  18
HETATM   18  C   UNL     1     -11.454  13.041  67.992  1.00  0.00    -0.309 C  
BRANCH  18  19
HETATM   19  C   UNL     1     -11.374  14.023  66.810  1.00  0.00    -0.346 A  
HETATM   20  C   UNL     1     -10.186  14.744  66.448  1.00  0.00    -0.291 A  
HETATM   21  C   UNL     1     -10.256  15.497  65.243  1.00  0.00    -0.380 A  
HETATM   22  C   UNL     1     -12.502  14.085  65.942  1.00  0.00    -0.513 A  
HETATM   23  C   UNL     1     -11.373  15.530  64.407  1.00  0.00    -0.260 A  
HETATM   24  C   UNL     1     -12.502  14.823  64.758  1.00  0.00    -0.222 A  
BRANCH  20  25
HETATM   25  N   UNL     1      -8.977  14.799  67.151  1.00  0.00    -0.211 NA 
HETATM   26  C   UNL     1      -8.542  16.055  67.803  1.00  0.00    -0.163 C  
HETATM   27  C   UNL     1      -8.069  15.749  69.228  1.00  0.00    -0.241 C  
HETATM   28  C   UNL     1      -6.923  14.744  69.213  1.00  0.00    -0.149 C  
HETATM   29  C   UNL     1      -7.333  13.493  68.460  1.00  0.00    -0.114 C  
HETATM   30  C   UNL     1      -7.913  13.798  67.085  1.00  0.00    -0.044 C  
ENDBRANCH  20  25
ENDBRANCH  18  19
BRANCH  18  31
HETATM   31  C   UNL     1     -10.932  13.748  69.258  1.00  0.00    -0.205 C  
HETATM   32  C   UNL     1     -12.354  15.894  69.090  1.00  0.00     0.141 C  
HETATM   33  C   UNL     1     -11.913  14.712  69.956  1.00  0.00    -0.376 C  
HETATM   34  C   UNL     1     -11.238  15.272  71.213  1.00  0.00    -0.375 C  
ENDBRANCH  18  31
ENDBRANCH  16  18
ENDBRANCH  13  14
ENDBRANCH  11  13
ENDBRANCH   3   4
ENDBRANCH   2   3
TORSDOF 8
ENDMDL
MODEL      208
REMARK 921   NORMALIZED FREE ENERGY PREDICTED BY IDOCK:   -4.32 KCAL/MOL
REMARK 922        TOTAL FREE ENERGY PREDICTED BY IDOCK:   -8.74 KCAL/MOL
REMARK 923 INTER-LIGAND FREE ENERGY PREDICTED BY IDOCK:   -5.93 KCAL/MOL
REMARK 924 INTRA-LIGAND FREE ENERGY PREDICTED BY IDOCK:   -2.81 KCAL/MOL
REMARK 927      BINDING AFFINITY PREDICTED BY RF-SCORE:    0.00 PKD
ROOT
HETATM    1  C   UNL     1      -6.207  11.125  67.269  1.00  0.00    -0.073 C  
HETATM    2  C   UNL     1      -7.453  10.513  67.868  1.00  0.00    -0.091 C  
ENDROOT
BRANCH   2   3
HETATM    3  O   UNL     1      -8.477  11.524  67.963  1.00  0.00    -0.135 OA 
BRANCH   3   4
HETATM    4  C   UNL     1      -9.600  11.138  68.652  1.00  0.00    -0.196 A  
HETATM    5  C   UNL     1     -10.836  11.712  68.316  1.00  0.00    -0.260 A  
HETATM    6  C   UNL     1     -11.975  11.368  69.067  1.00  0.00    -0.387 A  
HETATM    7  C   UNL     1     -11.044  12.709  67.213  1.00  0.00    -0.278 C  
HETATM    8  C   UNL     1     -11.890  10.470  70.129  1.00  0.00    -0.404 A  
HETATM    9  O   UNL     1     -12.122  13.254  67.013  1.00  0.00    -0.375 OA 
HETATM   10  O   UNL     1      -9.970  12.941  66.440  1.00  0.00    -0.255 OA 
HETATM   11  C   UNL     1     -10.666   9.875  70.450  1.00  0.00    -0.379 A  
HETATM   12  C   UNL     1      -9.540  10.185  69.681  1.00  0.00    -0.237 A  
BRANCH  11  13
HETATM   13  C   UNL     1     -10.547   8.911  71.603  1.00  0.00    -0.422 C  
BRANCH  13  14
HETATM   14  C   UNL     1     -10.541   7.458  71.172  1.00  0.00    -0.222 C  
HETATM   15  O   UNL     1     -11.589   6.814  71.154  1.00  0.00    -0.292 OA 
HETATM   16  N   UNL     1      -9.312   6.944  70.796  1.00  0.00    -0.161 N  
HETATM   17  H   UNL     1      -8.478   7.524  70.888  1.00  0.00     0.000 HD 
BRANCH  16  18
HETATM   18  C   UNL     1      -9.183   5.575  70.264  1.00  0.00    -0.149 C  
BRANCH  18  19
HETATM   19  C   UNL     1      -8.915   4.465  71.297  1.00  0.00    -0.166 A  
HETATM   20  C   UNL     1      -8.003   4.601  72.398  1.00  0.00    -0.095 A  
HETATM   21  C   UNL     1      -7.990   3.528  73.332  1.00  0.00    -0.074 A  
HETATM   22  C   UNL     1      -9.746   3.309  71.235  1.00  0.00    -0.222 A  
HETATM   23  C   UNL     1      -8.823   2.412  73.251  1.00  0.00    -0.071 A  
HETATM   24  C   UNL     1      -9.704   2.300  72.197  1.00  0.00    -0.200 A  
BRANCH  20  25
HETATM   25  N   UNL     1      -7.122   5.659  72.647  1.00  0.00    -0.087 NA 
HETATM   26  C   UNL     1      -5.784   5.688  72.014  1.00  0.00    -0.022 C  
HETATM   27  C   UNL     1      -5.528   7.084  71.434  1.00  0.00    -0.028 C  
HETATM   28  C   UNL     1      -5.615   8.147  72.523  1.00  0.00    -0.040 C  
HETATM   29  C   UNL     1      -6.949   8.055  73.240  1.00  0.00    -0.123 C  
HETATM   30  C   UNL     1      -7.263   6.644  73.719  1.00  0.00    -0.083 C  
ENDBRANCH  20  25
ENDBRANCH  18  19
BRANCH  18  31
HETATM   31  C   UNL     1      -8.122   5.480  69.150  1.00  0.00    -0.095 C  
HETATM   32  C   UNL     1      -9.186   7.144  67.491  1.00  0.00    -0.131 C  
HETATM   33  C   UNL     1      -7.937   6.735  68.274  1.00  0.00    -0.111 C  
HETATM   34  C   UNL     1      -6.812   6.469  67.267  1.00  0.00    -0.069 C  
ENDBRANCH  18  31
ENDBRANCH  16  18
ENDBRANCH  13  14
ENDBRANCH  11  13
ENDBRANCH   3   4
ENDBRANCH   2   3
TORSDOF 8
ENDMDL
MODEL      209
REMARK 921   NORMALIZED FREE ENERGY PREDICTED BY IDOCK:   -4.32 KCAL/MOL
REMARK 922        TOTAL FREE ENERGY PREDICTED BY IDOCK:   -8.73 KCAL/MOL
REMARK 923 INTER-LIGAND FREE ENERGY PREDICTED BY IDOCK:   -6.68 KCAL/MOL
REMARK 924 INTRA-LIGAND FREE ENERGY PREDICTED BY IDOCK:   -2.05 KCAL/MOL
REMARK 927      BINDING AFFINITY PREDICTED BY RF-SCORE:    0.00 PKD
ROOT
HETATM    1  C   UNL     1     -10.550  16.687  68.469  1.00  0.00    -0.338 C  
HETATM    2  C   UNL     1     -11.705  15.733  68.264  1.00  0.00    -0.222 C  
ENDROOT
BRANCH   2   3
HETATM    3  O   UNL     1     -11.995  15.067  69.510  1.00  0.00    -0.303 OA 
BRANCH   3   4
HETATM    4  C   UNL     1     -12.005  13.696  69.438  1.00  0.00    -0.342 A  
HETATM    5  C   UNL     1     -12.507  12.961  70.523  1.00  0.00    -0.294 A  
HETATM    6  C   UNL     1     -12.455  11.555  70.477  1.00  0.00    -0.367 A  
HETATM    7  C   UNL     1     -13.084  13.563  71.771  1.00  0.00    -0.387 C  
HETATM    8  C   UNL     1     -11.918  10.893  69.375  1.00  0.00    -0.393 A  
HETATM    9  O   UNL     1     -13.425  12.886  72.732  1.00  0.00    -0.474 OA 
HETATM   10  O   UNL     1     -13.225  14.899  71.749  1.00  0.00    -0.308 OA 
HETATM   11  C   UNL     1     -11.442  11.620  68.280  1.00  0.00    -0.369 A  
HETATM   12  C   UNL     1     -11.528  13.015  68.306  1.00  0.00    -0.347 A  
BRANCH  11  13
HETATM   13  C   UNL     1     -10.844  10.926  67.084  1.00  0.00    -0.337 C  
BRANCH  13  14
HETATM   14  C   UNL     1     -10.258   9.566  67.410  1.00  0.00    -0.227 C  
HETATM   15  O   UNL     1     -10.909   8.545  67.198  1.00  0.00    -0.216 OA 
HETATM   16  N   UNL     1      -8.973   9.570  67.927  1.00  0.00    -0.123 N  
HETATM   17  H   UNL     1      -8.517  10.461  68.125  1.00  0.00     0.000 HD 
BRANCH  16  18
HETATM   18  C   UNL     1      -8.251   8.314  68.196  1.00  0.00    -0.128 C  
BRANCH  18  19
HETATM   19  C   UNL     1      -7.647   8.163  69.604  1.00  0.00    -0.099 A  
HETATM   20  C   UNL     1      -7.427   6.899  70.249  1.00  0.00    -0.086 A  
HETATM   21  C   UNL     1      -6.729   6.945  71.487  1.00  0.00    -0.060 A  
HETATM   22  C   UNL     1      -7.136   9.343  70.218  1.00  0.00    -0.097 A  
HETATM   23  C   UNL     1      -6.230   8.115  72.060  1.00  0.00    -0.049 A  
HETATM   24  C   UNL     1      -6.436   9.320  71.425  1.00  0.00    -0.039 A  
BRANCH  20  25
HETATM   25  N   UNL     1      -7.831   5.635  69.804  1.00  0.00    -0.085 NA 
HETATM   26  C   UNL     1      -9.177   5.116  70.136  1.00  0.00    -0.142 C  
HETATM   27  C   UNL     1      -9.822   4.535  68.873  1.00  0.00    -0.190 C  
HETATM   28  C   UNL     1      -8.961   3.421  68.289  1.00  0.00    -0.184 C  
HETATM   29  C   UNL     1      -7.552   3.924  68.038  1.00  0.00    -0.066 C  
HETATM   30  C   UNL     1      -6.946   4.607  69.257  1.00  0.00    -0.051 C  
ENDBRANCH  20  25
ENDBRANCH  18  19
BRANCH  18  31
HETATM   31  C   UNL     1      -7.148   8.042  67.154  1.00  0.00    -0.082 C  
HETATM   32  C   UNL     1      -8.466   6.418  65.643  1.00  0.00    -0.147 C  
HETATM   33  C   UNL     1      -7.624   7.693  65.729  1.00  0.00    -0.088 C  
HETATM   34  C   UNL     1      -6.395   7.511  64.833  1.00  0.00    -0.038 C  
ENDBRANCH  18  31
ENDBRANCH  16  18
ENDBRANCH  13  14
ENDBRANCH  11  13
ENDBRANCH   3   4
ENDBRANCH   2   3
TORSDOF 8
ENDMDL
MODEL      210
REMARK 921   NORMALIZED FREE ENERGY PREDICTED BY IDOCK:   -4.31 KCAL/MOL
REMARK 922        TOTAL FREE ENERGY PREDICTED BY IDOCK:   -8.72 KCAL/MOL
REMARK 923 INTER-LIGAND FREE ENERGY PREDICTED BY IDOCK:   -6.99 KCAL/MOL
REMARK 924 INTRA-LIGAND FREE ENERGY PREDICTED BY IDOCK:   -1.74 KCAL/MOL
REMARK 927      BINDING AFFINITY PREDICTED BY RF-SCORE:    0.00 PKD
ROOT
HETATM    1  C   UNL     1      -8.099  16.802  66.128  1.00  0.00    -0.293 C  
HETATM    2  C   UNL     1      -9.024  15.608  66.046  1.00  0.00    -0.262 C  
ENDROOT
BRANCH   2   3
HETATM    3  O   UNL     1      -9.950  15.651  67.150  1.00  0.00    -0.235 OA 
BRANCH   3   4
HETATM    4  C   UNL     1     -10.604  14.469  67.394  1.00  0.00    -0.271 A  
HETATM    5  C   UNL     1     -11.491  14.393  68.480  1.00  0.00    -0.326 A  
HETATM    6  C   UNL     1     -12.109  13.162  68.771  1.00  0.00    -0.226 A  
HETATM    7  C   UNL     1     -11.821  15.535  69.396  1.00  0.00    -0.374 C  
HETATM    8  C   UNL     1     -11.855  12.031  67.999  1.00  0.00    -0.338 A  
HETATM    9  O   UNL     1     -12.528  15.401  70.386  1.00  0.00    -0.375 OA 
HETATM   10  O   UNL     1     -11.308  16.724  69.037  1.00  0.00    -0.176 OA 
HETATM   11  C   UNL     1     -10.994  12.109  66.900  1.00  0.00    -0.317 A  
HETATM   12  C   UNL     1     -10.408  13.338  66.584  1.00  0.00    -0.274 A  
BRANCH  11  13
HETATM   13  C   UNL     1     -10.693  10.895  66.059  1.00  0.00    -0.208 C  
BRANCH  13  14
HETATM   14  C   UNL     1     -10.308   9.678  66.877  1.00  0.00    -0.238 C  
HETATM   15  O   UNL     1     -10.757   8.570  66.588  1.00  0.00    -0.191 OA 
HETATM   16  N   UNL     1      -9.429   9.906  67.923  1.00  0.00    -0.134 N  
HETATM   17  H   UNL     1      -9.142  10.862  68.134  1.00  0.00     0.000 HD 
BRANCH  16  18
HETATM   18  C   UNL     1      -8.899   8.796  68.735  1.00  0.00    -0.134 C  
BRANCH  18  19
HETATM   19  C   UNL     1      -9.747   8.376  69.950  1.00  0.00    -0.179 A  
HETATM   20  C   UNL     1      -9.794   7.038  70.468  1.00  0.00    -0.179 A  
HETATM   21  C   UNL     1     -10.518   6.864  71.680  1.00  0.00    -0.224 A  
HETATM   22  C   UNL     1     -10.384   9.417  70.685  1.00  0.00    -0.349 A  
HETATM   23  C   UNL     1     -11.124   7.905  72.384  1.00  0.00    -0.392 A  
HETATM   24  C   UNL     1     -11.059   9.188  71.884  1.00  0.00    -0.385 A  
BRANCH  20  25
HETATM   25  N   UNL     1      -9.222   5.889  69.910  1.00  0.00    -0.145 NA 
HETATM   26  C   UNL     1      -7.791   5.578  70.132  1.00  0.00    -0.089 C  
HETATM   27  C   UNL     1      -7.648   4.103  70.524  1.00  0.00    -0.045 C  
HETATM   28  C   UNL     1      -8.219   3.197  69.439  1.00  0.00    -0.075 C  
HETATM   29  C   UNL     1      -9.656   3.578  69.140  1.00  0.00    -0.149 C  
HETATM   30  C   UNL     1      -9.825   5.066  68.862  1.00  0.00    -0.175 C  
ENDBRANCH  20  25
ENDBRANCH  18  19
BRANCH  18  31
HETATM   31  C   UNL     1      -7.455   9.058  69.208  1.00  0.00    -0.075 C  
HETATM   32  C   UNL     1      -6.364   9.365  66.890  1.00  0.00    -0.066 C  
HETATM   33  C   UNL     1      -6.585   9.941  68.290  1.00  0.00    -0.055 C  
HETATM   34  C   UNL     1      -5.214  10.129  68.948  1.00  0.00    -0.035 C  
ENDBRANCH  18  31
ENDBRANCH  16  18
ENDBRANCH  13  14
ENDBRANCH  11  13
ENDBRANCH   3   4
ENDBRANCH   2   3
TORSDOF 8
ENDMDL
MODEL      211
REMARK 921   NORMALIZED FREE ENERGY PREDICTED BY IDOCK:   -4.30 KCAL/MOL
REMARK 922        TOTAL FREE ENERGY PREDICTED BY IDOCK:   -8.71 KCAL/MOL
REMARK 923 INTER-LIGAND FREE ENERGY PREDICTED BY IDOCK:   -5.83 KCAL/MOL
REMARK 924 INTRA-LIGAND FREE ENERGY PREDICTED BY IDOCK:   -2.88 KCAL/MOL
REMARK 927      BINDING AFFINITY PREDICTED BY RF-SCORE:    0.00 PKD
ROOT
HETATM    1  C   UNL     1     -12.069  12.250  69.681  1.00  0.00    -0.277 C  
HETATM    2  C   UNL     1     -11.298  11.005  70.058  1.00  0.00    -0.277 C  
ENDROOT
BRANCH   2   3
HETATM    3  O   UNL     1     -11.994  10.322  71.121  1.00  0.00    -0.342 OA 
BRANCH   3   4
HETATM    4  C   UNL     1     -11.403   9.154  71.534  1.00  0.00    -0.368 A  
HETATM    5  C   UNL     1     -12.208   8.025  71.757  1.00  0.00    -0.352 A  
HETATM    6  C   UNL     1     -11.611   6.848  72.245  1.00  0.00    -0.309 A  
HETATM    7  C   UNL     1     -13.692   7.977  71.539  1.00  0.00    -0.312 C  
HETATM    8  C   UNL     1     -10.244   6.791  72.505  1.00  0.00    -0.200 A  
HETATM    9  O   UNL     1     -14.369   7.000  71.834  1.00  0.00    -0.376 OA 
HETATM   10  O   UNL     1     -14.224   9.072  70.970  1.00  0.00    -0.146 OA 
HETATM   11  C   UNL     1      -9.434   7.904  72.258  1.00  0.00    -0.248 A  
HETATM   12  C   UNL     1     -10.017   9.062  71.736  1.00  0.00    -0.359 A  
BRANCH  11  13
HETATM   13  C   UNL     1      -7.955   7.870  72.545  1.00  0.00    -0.157 C  
BRANCH  13  14
HETATM   14  C   UNL     1      -7.106   8.334  71.376  1.00  0.00    -0.067 C  
HETATM   15  O   UNL     1      -6.240   9.191  71.543  1.00  0.00    -0.075 OA 
HETATM   16  N   UNL     1      -7.365   7.722  70.161  1.00  0.00    -0.070 N  
HETATM   17  H   UNL     1      -8.135   7.058  70.090  1.00  0.00     0.000 HD 
BRANCH  16  18
HETATM   18  C   UNL     1      -6.548   8.010  68.969  1.00  0.00    -0.048 C  
BRANCH  18  19
HETATM   19  C   UNL     1      -7.013   9.186  68.092  1.00  0.00    -0.076 A  
HETATM   20  C   UNL     1      -8.292   9.242  67.441  1.00  0.00    -0.122 A  
HETATM   21  C   UNL     1      -8.608  10.467  66.791  1.00  0.00    -0.125 A  
HETATM   22  C   UNL     1      -6.184  10.345  68.070  1.00  0.00    -0.055 A  
HETATM   23  C   UNL     1      -7.779  11.590  66.795  1.00  0.00    -0.136 A  
HETATM   24  C   UNL     1      -6.560  11.528  67.435  1.00  0.00    -0.101 A  
BRANCH  20  25
HETATM   25  N   UNL     1      -9.252   8.227  67.365  1.00  0.00    -0.139 NA 
HETATM   26  C   UNL     1      -9.457   7.479  66.104  1.00  0.00    -0.028 C  
HETATM   27  C   UNL     1      -9.516   5.978  66.408  1.00  0.00    -0.174 C  
HETATM   28  C   UNL     1     -10.642   5.668  67.388  1.00  0.00    -0.312 C  
HETATM   29  C   UNL     1     -10.490   6.507  68.643  1.00  0.00    -0.252 C  
HETATM   30  C   UNL     1     -10.314   7.989  68.342  1.00  0.00    -0.199 C  
ENDBRANCH  20  25
ENDBRANCH  18  19
BRANCH  18  31
HETATM   31  C   UNL     1      -6.366   6.768  68.073  1.00  0.00    -0.045 C  
HETATM   32  C   UNL     1      -5.373   5.182  69.849  1.00  0.00    -0.004 C  
HETATM   33  C   UNL     1      -6.445   5.399  68.779  1.00  0.00    -0.043 C  
HETATM   34  C   UNL     1      -6.295   4.296  67.726  1.00  0.00    -0.037 C  
ENDBRANCH  18  31
ENDBRANCH  16  18
ENDBRANCH  13  14
ENDBRANCH  11  13
ENDBRANCH   3   4
ENDBRANCH   2   3
TORSDOF 8
ENDMDL
MODEL      212
REMARK 921   NORMALIZED FREE ENERGY PREDICTED BY IDOCK:   -4.30 KCAL/MOL
REMARK 922        TOTAL FREE ENERGY PREDICTED BY IDOCK:   -8.70 KCAL/MOL
REMARK 923 INTER-LIGAND FREE ENERGY PREDICTED BY IDOCK:   -6.22 KCAL/MOL
REMARK 924 INTRA-LIGAND FREE ENERGY PREDICTED BY IDOCK:   -2.49 KCAL/MOL
REMARK 927      BINDING AFFINITY PREDICTED BY RF-SCORE:    0.00 PKD
ROOT
HETATM    1  C   UNL     1     -11.681  11.992  69.410  1.00  0.00    -0.402 C  
HETATM    2  C   UNL     1     -11.588  11.620  67.947  1.00  0.00    -0.298 C  
ENDROOT
BRANCH   2   3
HETATM    3  O   UNL     1     -10.396  12.207  67.385  1.00  0.00    -0.203 OA 
BRANCH   3   4
HETATM    4  C   UNL     1      -9.403  11.308  67.083  1.00  0.00    -0.163 A  
HETATM    5  C   UNL     1      -8.070  11.745  67.070  1.00  0.00    -0.169 A  
HETATM    6  C   UNL     1      -7.059  10.841  66.694  1.00  0.00    -0.133 A  
HETATM    7  C   UNL     1      -7.623  13.138  67.405  1.00  0.00    -0.131 C  
HETATM    8  C   UNL     1      -7.365   9.529  66.341  1.00  0.00    -0.093 A  
HETATM    9  O   UNL     1      -6.459  13.502  67.292  1.00  0.00    -0.276 OA 
HETATM   10  O   UNL     1      -8.587  13.953  67.866  1.00  0.00    -0.159 OA 
HETATM   11  C   UNL     1      -8.689   9.081  66.378  1.00  0.00    -0.149 A  
HETATM   12  C   UNL     1      -9.691   9.966  66.789  1.00  0.00    -0.244 A  
BRANCH  11  13
HETATM   13  C   UNL     1      -9.046   7.670  65.986  1.00  0.00    -0.152 C  
BRANCH  13  14
HETATM   14  C   UNL     1      -9.882   6.952  67.027  1.00  0.00    -0.174 C  
HETATM   15  O   UNL     1     -11.055   6.666  66.788  1.00  0.00    -0.354 OA 
HETATM   16  N   UNL     1      -9.236   6.639  68.211  1.00  0.00    -0.123 N  
HETATM   17  H   UNL     1      -8.278   6.957  68.356  1.00  0.00     0.000 HD 
BRANCH  16  18
HETATM   18  C   UNL     1      -9.905   5.857  69.266  1.00  0.00    -0.160 C  
BRANCH  18  19
HETATM   19  C   UNL     1     -10.510   6.661  70.431  1.00  0.00    -0.249 A  
HETATM   20  C   UNL     1      -9.830   7.734  71.100  1.00  0.00    -0.169 A  
HETATM   21  C   UNL     1     -10.595   8.457  72.057  1.00  0.00    -0.387 A  
HETATM   22  C   UNL     1     -11.880   6.422  70.740  1.00  0.00    -0.319 A  
HETATM   23  C   UNL     1     -11.940   8.206  72.331  1.00  0.00    -0.431 A  
HETATM   24  C   UNL     1     -12.586   7.183  71.671  1.00  0.00    -0.410 A  
BRANCH  20  25
HETATM   25  N   UNL     1      -8.501   8.138  70.928  1.00  0.00    -0.124 NA 
HETATM   26  C   UNL     1      -8.133   9.063  69.832  1.00  0.00    -0.117 C  
HETATM   27  C   UNL     1      -7.224  10.167  70.385  1.00  0.00    -0.063 C  
HETATM   28  C   UNL     1      -5.968   9.572  71.011  1.00  0.00    -0.076 C  
HETATM   29  C   UNL     1      -6.343   8.550  72.068  1.00  0.00    -0.071 C  
HETATM   30  C   UNL     1      -7.337   7.515  71.558  1.00  0.00    -0.075 C  
ENDBRANCH  20  25
ENDBRANCH  18  19
BRANCH  18  31
HETATM   31  C   UNL     1      -8.990   4.760  69.845  1.00  0.00    -0.139 C  
HETATM   32  C   UNL     1      -8.380   3.587  67.630  1.00  0.00    -0.096 C  
HETATM   33  C   UNL     1      -7.873   4.240  68.917  1.00  0.00    -0.069 C  
HETATM   34  C   UNL     1      -7.045   3.202  69.682  1.00  0.00    -0.041 C  
ENDBRANCH  18  31
ENDBRANCH  16  18
ENDBRANCH  13  14
ENDBRANCH  11  13
ENDBRANCH   3   4
ENDBRANCH   2   3
TORSDOF 8
ENDMDL
MODEL      213
REMARK 921   NORMALIZED FREE ENERGY PREDICTED BY IDOCK:   -4.29 KCAL/MOL
REMARK 922        TOTAL FREE ENERGY PREDICTED BY IDOCK:   -8.69 KCAL/MOL
REMARK 923 INTER-LIGAND FREE ENERGY PREDICTED BY IDOCK:   -6.80 KCAL/MOL
REMARK 924 INTRA-LIGAND FREE ENERGY PREDICTED BY IDOCK:   -1.89 KCAL/MOL
REMARK 927      BINDING AFFINITY PREDICTED BY RF-SCORE:    0.00 PKD
ROOT
HETATM    1  C   UNL     1      -8.928   9.436  62.610  1.00  0.00    -0.215 C  
HETATM    2  C   UNL     1      -7.635   8.988  63.255  1.00  0.00    -0.106 C  
ENDROOT
BRANCH   2   3
HETATM    3  O   UNL     1      -7.895   7.837  64.084  1.00  0.00    -0.126 OA 
BRANCH   3   4
HETATM    4  C   UNL     1      -7.790   8.067  65.433  1.00  0.00    -0.106 A  
HETATM    5  C   UNL     1      -8.185   7.061  66.328  1.00  0.00    -0.120 A  
HETATM    6  C   UNL     1      -8.142   7.323  67.710  1.00  0.00    -0.115 A  
HETATM    7  C   UNL     1      -8.690   5.707  65.924  1.00  0.00    -0.147 C  
HETATM    8  C   UNL     1      -7.711   8.556  68.194  1.00  0.00    -0.102 A  
HETATM    9  O   UNL     1      -9.113   4.893  66.735  1.00  0.00    -0.116 OA 
HETATM   10  O   UNL     1      -8.621   5.439  64.609  1.00  0.00    -0.144 OA 
HETATM   11  C   UNL     1      -7.290   9.551  67.307  1.00  0.00    -0.087 A  
HETATM   12  C   UNL     1      -7.295   9.282  65.935  1.00  0.00    -0.094 A  
BRANCH  11  13
HETATM   13  C   UNL     1      -6.834  10.898  67.807  1.00  0.00    -0.072 C  
BRANCH  13  14
HETATM   14  C   UNL     1      -7.976  11.862  68.062  1.00  0.00    -0.147 C  
HETATM   15  O   UNL     1      -7.746  13.003  68.458  1.00  0.00    -0.128 OA 
HETATM   16  N   UNL     1      -9.247  11.375  67.803  1.00  0.00    -0.155 N  
HETATM   17  H   UNL     1      -9.361  10.400  67.528  1.00  0.00     0.000 HD 
BRANCH  16  18
HETATM   18  C   UNL     1     -10.436  12.238  67.917  1.00  0.00    -0.213 C  
BRANCH  18  19
HETATM   19  C   UNL     1     -11.216  12.153  69.241  1.00  0.00    -0.288 A  
HETATM   20  C   UNL     1     -11.720  13.297  69.947  1.00  0.00    -0.259 A  
HETATM   21  C   UNL     1     -12.539  13.021  71.077  1.00  0.00    -0.386 A  
HETATM   22  C   UNL     1     -11.588  10.853  69.690  1.00  0.00    -0.394 A  
HETATM   23  C   UNL     1     -12.896  11.736  71.488  1.00  0.00    -0.450 A  
HETATM   24  C   UNL     1     -12.417  10.646  70.793  1.00  0.00    -0.480 A  
BRANCH  20  25
HETATM   25  N   UNL     1     -11.487  14.646  69.658  1.00  0.00    -0.275 NA 
HETATM   26  C   UNL     1     -11.034  15.575  70.718  1.00  0.00    -0.325 C  
HETATM   27  C   UNL     1      -9.865  16.414  70.191  1.00  0.00     0.638 C  
HETATM   28  C   UNL     1     -10.277  17.198  68.950  1.00  0.00    -0.332 C  
HETATM   29  C   UNL     1     -10.833  16.258  67.897  1.00  0.00    -0.330 C  
HETATM   30  C   UNL     1     -11.918  15.339  68.444  1.00  0.00    -0.163 C  
ENDBRANCH  20  25
ENDBRANCH  18  19
BRANCH  18  31
HETATM   31  C   UNL     1     -11.421  12.029  66.749  1.00  0.00    -0.410 C  
HETATM   32  C   UNL     1     -10.453  13.793  65.135  1.00  0.00    -0.399 C  
HETATM   33  C   UNL     1     -10.884  12.339  65.337  1.00  0.00    -0.324 C  
HETATM   34  C   UNL     1     -11.981  12.023  64.315  1.00  0.00    -0.424 C  
ENDBRANCH  18  31
ENDBRANCH  16  18
ENDBRANCH  13  14
ENDBRANCH  11  13
ENDBRANCH   3   4
ENDBRANCH   2   3
TORSDOF 8
ENDMDL
MODEL      214
REMARK 921   NORMALIZED FREE ENERGY PREDICTED BY IDOCK:   -4.25 KCAL/MOL
REMARK 922        TOTAL FREE ENERGY PREDICTED BY IDOCK:   -8.64 KCAL/MOL
REMARK 923 INTER-LIGAND FREE ENERGY PREDICTED BY IDOCK:   -8.87 KCAL/MOL
REMARK 924 INTRA-LIGAND FREE ENERGY PREDICTED BY IDOCK:    0.23 KCAL/MOL
REMARK 927      BINDING AFFINITY PREDICTED BY RF-SCORE:    0.00 PKD
ROOT
HETATM    1  C   UNL     1     -12.127  13.930  68.369  1.00  0.00    -0.327 C  
HETATM    2  C   UNL     1     -11.167  13.126  67.521  1.00  0.00    -0.282 C  
ENDROOT
BRANCH   2   3
HETATM    3  O   UNL     1     -11.917  12.202  66.706  1.00  0.00    -0.606 OA 
BRANCH   3   4
HETATM    4  C   UNL     1     -11.213  11.661  65.659  1.00  0.00    -0.214 A  
HETATM    5  C   UNL     1     -11.451  12.138  64.360  1.00  0.00    -0.417 A  
HETATM    6  C   UNL     1     -10.779  11.537  63.280  1.00  0.00    -0.374 A  
HETATM    7  C   UNL     1     -12.406  13.243  64.016  1.00  0.00    -0.346 C  
HETATM    8  C   UNL     1      -9.887  10.487  63.483  1.00  0.00    -0.339 A  
HETATM    9  O   UNL     1     -12.652  13.565  62.861  1.00  0.00    -0.607 OA 
HETATM   10  O   UNL     1     -12.953  13.875  65.068  1.00  0.00    -0.731 OA 
HETATM   11  C   UNL     1      -9.626  10.027  64.778  1.00  0.00    -0.374 A  
HETATM   12  C   UNL     1     -10.262  10.647  65.857  1.00  0.00    -0.314 A  
BRANCH  11  13
HETATM   13  C   UNL     1      -8.676   8.882  65.022  1.00  0.00    -0.200 C  
BRANCH  13  14
HETATM   14  C   UNL     1      -8.262   8.745  66.474  1.00  0.00    -0.111 C  
HETATM   15  O   UNL     1      -7.086   8.903  66.799  1.00  0.00    -0.079 OA 
HETATM   16  N   UNL     1      -9.280   8.461  67.368  1.00  0.00    -0.139 N  
HETATM   17  H   UNL     1     -10.222   8.292  67.016  1.00  0.00     0.000 HD 
BRANCH  16  18
HETATM   18  C   UNL     1      -9.030   8.398  68.820  1.00  0.00    -0.140 C  
BRANCH  18  19
HETATM   19  C   UNL     1     -10.163   8.905  69.729  1.00  0.00    -0.207 A  
HETATM   20  C   UNL     1     -10.292   8.558  71.117  1.00  0.00    -0.215 A  
HETATM   21  C   UNL     1     -11.318   9.232  71.835  1.00  0.00    -0.359 A  
HETATM   22  C   UNL     1     -11.029   9.900  69.190  1.00  0.00    -0.233 A  
HETATM   23  C   UNL     1     -12.145  10.211  71.283  1.00  0.00    -0.489 A  
HETATM   24  C   UNL     1     -12.002  10.546  69.954  1.00  0.00    -0.339 A  
BRANCH  20  25
HETATM   25  N   UNL     1      -9.533   7.626  71.834  1.00  0.00    -0.143 NA 
HETATM   26  C   UNL     1      -8.532   8.076  72.827  1.00  0.00    -0.180 C  
HETATM   27  C   UNL     1      -8.696   7.264  74.117  1.00  0.00    -0.253 C  
HETATM   28  C   UNL     1      -8.528   5.774  73.843  1.00  0.00    -0.118 C  
HETATM   29  C   UNL     1      -9.487   5.329  72.755  1.00  0.00    -0.157 C  
HETATM   30  C   UNL     1      -9.411   6.204  71.511  1.00  0.00    -0.148 C  
ENDBRANCH  20  25
ENDBRANCH  18  19
BRANCH  18  31
HETATM   31  C   UNL     1      -7.722   9.111  69.216  1.00  0.00    -0.080 C  
HETATM   32  C   UNL     1      -8.418  11.518  68.600  1.00  0.00    -0.115 C  
HETATM   33  C   UNL     1      -7.854  10.580  69.669  1.00  0.00    -0.097 C  
HETATM   34  C   UNL     1      -6.467  11.096  70.069  1.00  0.00    -0.133 C  
ENDBRANCH  18  31
ENDBRANCH  16  18
ENDBRANCH  13  14
ENDBRANCH  11  13
ENDBRANCH   3   4
ENDBRANCH   2   3
TORSDOF 8
ENDMDL
MODEL      215
REMARK 921   NORMALIZED FREE ENERGY PREDICTED BY IDOCK:   -4.24 KCAL/MOL
REMARK 922        TOTAL FREE ENERGY PREDICTED BY IDOCK:   -8.62 KCAL/MOL
REMARK 923 INTER-LIGAND FREE ENERGY PREDICTED BY IDOCK:   -6.97 KCAL/MOL
REMARK 924 INTRA-LIGAND FREE ENERGY PREDICTED BY IDOCK:   -1.65 KCAL/MOL
REMARK 927      BINDING AFFINITY PREDICTED BY RF-SCORE:    0.00 PKD
ROOT
HETATM    1  C   UNL     1     -10.111   4.140  73.085  1.00  0.00    -0.204 C  
HETATM    2  C   UNL     1     -10.486   5.025  71.917  1.00  0.00    -0.187 C  
ENDROOT
BRANCH   2   3
HETATM    3  O   UNL     1     -10.416   6.406  72.328  1.00  0.00    -0.192 OA 
BRANCH   3   4
HETATM    4  C   UNL     1      -9.495   7.160  71.644  1.00  0.00    -0.152 A  
HETATM    5  C   UNL     1      -8.580   7.939  72.369  1.00  0.00    -0.198 A  
HETATM    6  C   UNL     1      -7.682   8.765  71.668  1.00  0.00    -0.117 A  
HETATM    7  C   UNL     1      -8.497   7.988  73.867  1.00  0.00    -0.260 C  
HETATM    8  C   UNL     1      -7.688   8.814  70.276  1.00  0.00    -0.085 A  
HETATM    9  O   UNL     1      -7.746   8.753  74.460  1.00  0.00    -0.401 OA 
HETATM   10  O   UNL     1      -9.286   7.114  74.513  1.00  0.00    -0.203 OA 
HETATM   11  C   UNL     1      -8.579   8.019  69.549  1.00  0.00    -0.136 A  
HETATM   12  C   UNL     1      -9.447   7.168  70.241  1.00  0.00    -0.162 A  
BRANCH  11  13
HETATM   13  C   UNL     1      -8.615   8.066  68.043  1.00  0.00    -0.129 C  
BRANCH  13  14
HETATM   14  C   UNL     1      -9.882   8.690  67.492  1.00  0.00    -0.180 C  
HETATM   15  O   UNL     1     -10.614   8.045  66.742  1.00  0.00    -0.320 OA 
HETATM   16  N   UNL     1     -10.146   9.985  67.903  1.00  0.00    -0.161 N  
HETATM   17  H   UNL     1      -9.464  10.474  68.483  1.00  0.00     0.000 HD 
BRANCH  16  18
HETATM   18  C   UNL     1     -11.392  10.673  67.519  1.00  0.00    -0.162 C  
BRANCH  18  19
HETATM   19  C   UNL     1     -11.299  11.631  66.318  1.00  0.00    -0.293 A  
HETATM   20  C   UNL     1     -10.626  12.899  66.357  1.00  0.00    -0.271 A  
HETATM   21  C   UNL     1     -10.518  13.586  65.116  1.00  0.00    -0.375 A  
HETATM   22  C   UNL     1     -11.771  11.145  65.065  1.00  0.00     0.531 A  
HETATM   23  C   UNL     1     -10.981  13.079  63.900  1.00  0.00    -0.375 A  
HETATM   24  C   UNL     1     -11.612  11.855  63.874  1.00  0.00    -0.515 A  
BRANCH  20  25
HETATM   25  N   UNL     1     -10.079  13.539  67.476  1.00  0.00    -0.231 NA 
HETATM   26  C   UNL     1      -8.726  13.182  67.958  1.00  0.00    -0.190 C  
HETATM   27  C   UNL     1      -7.931  14.464  68.229  1.00  0.00    -0.140 C  
HETATM   28  C   UNL     1      -8.641  15.334  69.260  1.00  0.00    -0.236 C  
HETATM   29  C   UNL     1     -10.063  15.620  68.813  1.00  0.00    -0.211 C  
HETATM   30  C   UNL     1     -10.824  14.358  68.431  1.00  0.00    -0.248 C  
ENDBRANCH  20  25
ENDBRANCH  18  19
BRANCH  18  31
HETATM   31  C   UNL     1     -12.030  11.425  68.703  1.00  0.00    -0.317 C  
HETATM   32  C   UNL     1     -11.963   9.510  70.431  1.00  0.00    -0.123 C  
HETATM   33  C   UNL     1     -11.609  10.964  70.114  1.00  0.00    -0.425 C  
HETATM   34  C   UNL     1     -12.301  11.858  71.149  1.00  0.00    -0.303 C  
ENDBRANCH  18  31
ENDBRANCH  16  18
ENDBRANCH  13  14
ENDBRANCH  11  13
ENDBRANCH   3   4
ENDBRANCH   2   3
TORSDOF 8
ENDMDL
MODEL      216
REMARK 921   NORMALIZED FREE ENERGY PREDICTED BY IDOCK:   -4.22 KCAL/MOL
REMARK 922        TOTAL FREE ENERGY PREDICTED BY IDOCK:   -8.60 KCAL/MOL
REMARK 923 INTER-LIGAND FREE ENERGY PREDICTED BY IDOCK:   -7.77 KCAL/MOL
REMARK 924 INTRA-LIGAND FREE ENERGY PREDICTED BY IDOCK:   -0.82 KCAL/MOL
REMARK 927      BINDING AFFINITY PREDICTED BY RF-SCORE:    0.00 PKD
ROOT
HETATM    1  C   UNL     1     -10.659  11.915  63.238  1.00  0.00    -0.420 C  
HETATM    2  C   UNL     1     -11.411  12.062  64.541  1.00  0.00    -0.330 C  
ENDROOT
BRANCH   2   3
HETATM    3  O   UNL     1     -10.992  13.279  65.194  1.00  0.00    -0.285 OA 
BRANCH   3   4
HETATM    4  C   UNL     1     -11.199  13.301  66.551  1.00  0.00    -0.304 A  
HETATM    5  C   UNL     1     -11.042  14.511  67.244  1.00  0.00    -0.317 A  
HETATM    6  C   UNL     1     -11.186  14.519  68.643  1.00  0.00    -0.281 A  
HETATM    7  C   UNL     1     -10.697  15.824  66.604  1.00  0.00    -0.287 C  
HETATM    8  C   UNL     1     -11.483  13.351  69.341  1.00  0.00    -0.333 A  
HETATM    9  O   UNL     1     -10.479  16.838  67.256  1.00  0.00    -0.317 OA 
HETATM   10  O   UNL     1     -10.672  15.818  65.261  1.00  0.00    -0.385 OA 
HETATM   11  C   UNL     1     -11.667  12.148  68.652  1.00  0.00    -0.382 A  
HETATM   12  C   UNL     1     -11.563  12.144  67.258  1.00  0.00    -0.404 A  
BRANCH  11  13
HETATM   13  C   UNL     1     -11.975  10.869  69.387  1.00  0.00    -0.393 C  
BRANCH  13  14
HETATM   14  C   UNL     1     -10.784   9.936  69.491  1.00  0.00    -0.242 C  
HETATM   15  O   UNL     1      -9.652  10.392  69.647  1.00  0.00    -0.200 OA 
HETATM   16  N   UNL     1     -11.069   8.582  69.421  1.00  0.00    -0.432 N  
HETATM   17  H   UNL     1     -12.026   8.282  69.238  1.00  0.00     0.000 HD 
BRANCH  16  18
HETATM   18  C   UNL     1     -10.016   7.567  69.606  1.00  0.00    -0.184 C  
BRANCH  18  19
HETATM   19  C   UNL     1      -9.748   6.638  68.409  1.00  0.00    -0.126 A  
HETATM   20  C   UNL     1      -8.675   5.685  68.360  1.00  0.00    -0.109 A  
HETATM   21  C   UNL     1      -8.666   4.813  67.237  1.00  0.00    -0.103 A  
HETATM   22  C   UNL     1     -10.724   6.623  67.370  1.00  0.00    -0.409 A  
HETATM   23  C   UNL     1      -9.642   4.814  66.239  1.00  0.00    -0.183 A  
HETATM   24  C   UNL     1     -10.675   5.724  66.304  1.00  0.00    -0.092 A  
BRANCH  20  25
HETATM   25  N   UNL     1      -7.635   5.527  69.284  1.00  0.00    -0.084 NA 
HETATM   26  C   UNL     1      -7.557   4.313  70.127  1.00  0.00    -0.046 C  
HETATM   27  C   UNL     1      -6.122   3.773  70.106  1.00  0.00    -0.023 C  
HETATM   28  C   UNL     1      -5.141   4.824  70.611  1.00  0.00    -0.003 C  
HETATM   29  C   UNL     1      -5.287   6.105  69.810  1.00  0.00    -0.013 C  
HETATM   30  C   UNL     1      -6.730   6.586  69.729  1.00  0.00    -0.050 C  
ENDBRANCH  20  25
ENDBRANCH  18  19
BRANCH  18  31
HETATM   31  C   UNL     1     -10.257   6.701  70.859  1.00  0.00    -0.219 C  
HETATM   32  C   UNL     1     -12.668   7.462  71.371  1.00  0.00    -0.408 C  
HETATM   33  C   UNL     1     -11.717   6.287  71.135  1.00  0.00    -0.292 C  
HETATM   34  C   UNL     1     -11.746   5.395  72.380  1.00  0.00    -0.115 C  
ENDBRANCH  18  31
ENDBRANCH  16  18
ENDBRANCH  13  14
ENDBRANCH  11  13
ENDBRANCH   3   4
ENDBRANCH   2   3
TORSDOF 8
ENDMDL
MODEL      217
REMARK 921   NORMALIZED FREE ENERGY PREDICTED BY IDOCK:   -4.21 KCAL/MOL
REMARK 922        TOTAL FREE ENERGY PREDICTED BY IDOCK:   -8.58 KCAL/MOL
REMARK 923 INTER-LIGAND FREE ENERGY PREDICTED BY IDOCK:   -6.61 KCAL/MOL
REMARK 924 INTRA-LIGAND FREE ENERGY PREDICTED BY IDOCK:   -1.97 KCAL/MOL
REMARK 927      BINDING AFFINITY PREDICTED BY RF-SCORE:    0.00 PKD
ROOT
HETATM    1  C   UNL     1     -10.141  12.494  66.052  1.00  0.00    -0.268 C  
HETATM    2  C   UNL     1     -11.191  11.731  66.828  1.00  0.00    -0.328 C  
ENDROOT
BRANCH   2   3
HETATM    3  O   UNL     1     -12.184  12.656  67.316  1.00  0.00    -0.425 OA 
BRANCH   3   4
HETATM    4  C   UNL     1     -12.249  12.756  68.683  1.00  0.00     0.051 A  
HETATM    5  C   UNL     1     -11.934  13.981  69.292  1.00  0.00    -0.396 A  
HETATM    6  C   UNL     1     -11.934  14.065  70.696  1.00  0.00    -0.376 A  
HETATM    7  C   UNL     1     -11.559  15.232  68.552  1.00  0.00    -0.352 C  
HETATM    8  C   UNL     1     -12.244  12.958  71.481  1.00  0.00     0.251 A  
HETATM    9  O   UNL     1     -11.201  16.254  69.124  1.00  0.00    -0.315 OA 
HETATM   10  O   UNL     1     -11.671  15.162  67.215  1.00  0.00    -0.295 OA 
HETATM   11  C   UNL     1     -12.586  11.743  70.879  1.00  0.00    -0.384 A  
HETATM   12  C   UNL     1     -12.624  11.666  69.484  1.00  0.00     0.168 A  
BRANCH  11  13
HETATM   13  C   UNL     1     -12.911  10.527  71.709  1.00  0.00    -0.582 C  
BRANCH  13  14
HETATM   14  C   UNL     1     -12.069   9.316  71.355  1.00  0.00    -0.348 C  
HETATM   15  O   UNL     1     -12.592   8.326  70.848  1.00  0.00    -0.124 OA 
HETATM   16  N   UNL     1     -10.714   9.425  71.620  1.00  0.00    -0.321 N  
HETATM   17  H   UNL     1     -10.362  10.258  72.091  1.00  0.00     0.000 HD 
BRANCH  16  18
HETATM   18  C   UNL     1      -9.770   8.360  71.235  1.00  0.00    -0.189 C  
BRANCH  18  19
HETATM   19  C   UNL     1      -9.699   7.142  72.173  1.00  0.00    -0.163 A  
HETATM   20  C   UNL     1      -9.309   5.826  71.748  1.00  0.00    -0.148 A  
HETATM   21  C   UNL     1      -9.161   4.856  72.777  1.00  0.00    -0.145 A  
HETATM   22  C   UNL     1      -9.875   7.386  73.566  1.00  0.00    -0.363 A  
HETATM   23  C   UNL     1      -9.330   5.127  74.136  1.00  0.00    -0.122 A  
HETATM   24  C   UNL     1      -9.691   6.397  74.533  1.00  0.00    -0.329 A  
BRANCH  20  25
HETATM   25  N   UNL     1      -9.071   5.391  70.439  1.00  0.00    -0.138 NA 
HETATM   26  C   UNL     1      -7.694   5.361  69.895  1.00  0.00    -0.080 C  
HETATM   27  C   UNL     1      -7.455   4.019  69.195  1.00  0.00    -0.054 C  
HETATM   28  C   UNL     1      -8.466   3.806  68.073  1.00  0.00    -0.107 C  
HETATM   29  C   UNL     1      -9.879   3.933  68.610  1.00  0.00    -0.004 C  
HETATM   30  C   UNL     1     -10.092   5.214  69.407  1.00  0.00    -0.234 C  
ENDBRANCH  20  25
ENDBRANCH  18  19
BRANCH  18  31
HETATM   31  C   UNL     1      -8.343   8.899  71.016  1.00  0.00    -0.233 C  
HETATM   32  C   UNL     1      -8.729  10.035  68.732  1.00  0.00    -0.136 C  
HETATM   33  C   UNL     1      -8.219  10.181  70.167  1.00  0.00     0.032 C  
HETATM   34  C   UNL     1      -6.742  10.587  70.106  1.00  0.00    -0.149 C  
ENDBRANCH  18  31
ENDBRANCH  16  18
ENDBRANCH  13  14
ENDBRANCH  11  13
ENDBRANCH   3   4
ENDBRANCH   2   3
TORSDOF 8
ENDMDL
MODEL      218
REMARK 921   NORMALIZED FREE ENERGY PREDICTED BY IDOCK:   -4.20 KCAL/MOL
REMARK 922        TOTAL FREE ENERGY PREDICTED BY IDOCK:   -8.56 KCAL/MOL
REMARK 923 INTER-LIGAND FREE ENERGY PREDICTED BY IDOCK:   -6.26 KCAL/MOL
REMARK 924 INTRA-LIGAND FREE ENERGY PREDICTED BY IDOCK:   -2.30 KCAL/MOL
REMARK 927      BINDING AFFINITY PREDICTED BY RF-SCORE:    0.00 PKD
ROOT
HETATM    1  C   UNL     1      -7.002   8.257  66.826  1.00  0.00    -0.070 C  
HETATM    2  C   UNL     1      -7.303   9.014  68.100  1.00  0.00    -0.083 C  
ENDROOT
BRANCH   2   3
HETATM    3  O   UNL     1      -8.024  10.220  67.775  1.00  0.00    -0.101 OA 
BRANCH   3   4
HETATM    4  C   UNL     1      -9.296  10.282  68.288  1.00  0.00    -0.138 A  
HETATM    5  C   UNL     1     -10.319  10.841  67.506  1.00  0.00    -0.244 A  
HETATM    6  C   UNL     1     -11.607  10.968  68.057  1.00  0.00    -0.326 A  
HETATM    7  C   UNL     1     -10.143  11.354  66.106  1.00  0.00    -0.231 C  
HETATM    8  C   UNL     1     -11.877  10.545  69.357  1.00  0.00    -0.271 A  
HETATM    9  O   UNL     1     -11.040  11.919  65.494  1.00  0.00    -0.302 OA 
HETATM   10  O   UNL     1      -8.936  11.125  65.560  1.00  0.00    -0.200 OA 
HETATM   11  C   UNL     1     -10.867   9.963  70.130  1.00  0.00    -0.356 A  
HETATM   12  C   UNL     1      -9.596   9.800  69.572  1.00  0.00    -0.225 A  
BRANCH  11  13
HETATM   13  C   UNL     1     -11.131   9.511  71.543  1.00  0.00    -0.406 C  
BRANCH  13  14
HETATM   14  C   UNL     1     -10.125   8.495  72.046  1.00  0.00    -0.316 C  
HETATM   15  O   UNL     1      -9.205   8.847  72.782  1.00  0.00    -0.255 OA 
HETATM   16  N   UNL     1     -10.333   7.187  71.641  1.00  0.00    -0.198 N  
HETATM   17  H   UNL     1     -11.087   6.981  70.987  1.00  0.00     0.000 HD 
BRANCH  16  18
HETATM   18  C   UNL     1      -9.486   6.087  72.136  1.00  0.00    -0.148 C  
BRANCH  18  19
HETATM   19  C   UNL     1      -8.138   5.889  71.421  1.00  0.00    -0.115 A  
HETATM   20  C   UNL     1      -8.009   5.639  70.012  1.00  0.00    -0.091 A  
HETATM   21  C   UNL     1      -6.682   5.625  69.500  1.00  0.00    -0.059 A  
HETATM   22  C   UNL     1      -6.959   6.134  72.182  1.00  0.00    -0.078 A  
HETATM   23  C   UNL     1      -5.545   5.879  70.270  1.00  0.00    -0.013 A  
HETATM   24  C   UNL     1      -5.683   6.132  71.617  1.00  0.00    -0.027 A  
BRANCH  20  25
HETATM   25  N   UNL     1      -9.037   5.395  69.094  1.00  0.00    -0.106 NA 
HETATM   26  C   UNL     1      -9.989   6.468  68.729  1.00  0.00    -0.143 C  
HETATM   27  C   UNL     1     -10.151   6.504  67.205  1.00  0.00    -0.212 C  
HETATM   28  C   UNL     1     -10.650   5.162  66.682  1.00  0.00    -0.295 C  
HETATM   29  C   UNL     1      -9.729   4.046  67.138  1.00  0.00    -0.207 C  
HETATM   30  C   UNL     1      -9.470   4.074  68.639  1.00  0.00    -0.154 C  
ENDBRANCH  20  25
ENDBRANCH  18  19
BRANCH  18  31
HETATM   31  C   UNL     1     -10.235   4.740  72.159  1.00  0.00    -0.258 C  
HETATM   32  C   UNL     1      -9.455   3.927  74.480  1.00  0.00    -0.131 C  
HETATM   33  C   UNL     1     -10.637   4.203  73.548  1.00  0.00    -0.284 C  
HETATM   34  C   UNL     1     -11.411   2.894  73.363  1.00  0.00    -0.221 C  
ENDBRANCH  18  31
ENDBRANCH  16  18
ENDBRANCH  13  14
ENDBRANCH  11  13
ENDBRANCH   3   4
ENDBRANCH   2   3
TORSDOF 8
ENDMDL
MODEL      219
REMARK 921   NORMALIZED FREE ENERGY PREDICTED BY IDOCK:   -4.18 KCAL/MOL
REMARK 922        TOTAL FREE ENERGY PREDICTED BY IDOCK:   -8.53 KCAL/MOL
REMARK 923 INTER-LIGAND FREE ENERGY PREDICTED BY IDOCK:   -7.22 KCAL/MOL
REMARK 924 INTRA-LIGAND FREE ENERGY PREDICTED BY IDOCK:   -1.30 KCAL/MOL
REMARK 927      BINDING AFFINITY PREDICTED BY RF-SCORE:    0.00 PKD
ROOT
HETATM    1  C   UNL     1     -12.528  16.409  72.537  1.00  0.00    -0.256 C  
HETATM    2  C   UNL     1     -12.840  15.482  71.384  1.00  0.00    -0.465 C  
ENDROOT
BRANCH   2   3
HETATM    3  O   UNL     1     -12.159  15.951  70.202  1.00  0.00    -0.344 OA 
BRANCH   3   4
HETATM    4  C   UNL     1     -11.286  15.048  69.649  1.00  0.00    -0.275 A  
HETATM    5  C   UNL     1     -10.140  15.524  68.992  1.00  0.00    -0.234 A  
HETATM    6  C   UNL     1      -9.281  14.602  68.366  1.00  0.00    -0.197 A  
HETATM    7  C   UNL     1      -9.761  16.971  68.875  1.00  0.00    -0.259 C  
HETATM    8  C   UNL     1      -9.551  13.236  68.393  1.00  0.00    -0.185 A  
HETATM    9  O   UNL     1      -8.802  17.349  68.213  1.00  0.00    -0.248 OA 
HETATM   10  O   UNL     1     -10.532  17.824  69.570  1.00  0.00    -0.118 OA 
HETATM   11  C   UNL     1     -10.676  12.755  69.070  1.00  0.00    -0.136 A  
HETATM   12  C   UNL     1     -11.511  13.664  69.726  1.00  0.00    -0.256 A  
BRANCH  11  13
HETATM   13  C   UNL     1     -10.996  11.283  69.101  1.00  0.00    -0.292 C  
BRANCH  13  14
HETATM   14  C   UNL     1      -9.944  10.425  68.424  1.00  0.00    -0.162 C  
HETATM   15  O   UNL     1      -8.904  10.142  69.015  1.00  0.00    -0.145 OA 
HETATM   16  N   UNL     1     -10.251   9.990  67.146  1.00  0.00    -0.215 N  
HETATM   17  H   UNL     1     -11.111  10.310  66.701  1.00  0.00     0.000 HD 
BRANCH  16  18
HETATM   18  C   UNL     1      -9.360   9.071  66.414  1.00  0.00    -0.206 C  
BRANCH  18  19
HETATM   19  C   UNL     1      -9.004   9.472  64.972  1.00  0.00    -0.258 A  
HETATM   20  C   UNL     1      -9.418  10.702  64.358  1.00  0.00    -0.269 A  
HETATM   21  C   UNL     1      -8.877  10.969  63.070  1.00  0.00    -0.202 A  
HETATM   22  C   UNL     1      -8.077   8.640  64.279  1.00  0.00    -0.158 A  
HETATM   23  C   UNL     1      -7.962  10.140  62.419  1.00  0.00    -0.153 A  
HETATM   24  C   UNL     1      -7.561   8.969  63.025  1.00  0.00    -0.105 A  
BRANCH  20  25
HETATM   25  N   UNL     1     -10.300  11.657  64.877  1.00  0.00    -0.269 NA 
HETATM   26  C   UNL     1      -9.795  12.963  65.358  1.00  0.00    -0.118 C  
HETATM   27  C   UNL     1     -10.677  14.085  64.797  1.00  0.00    -0.442 C  
HETATM   28  C   UNL     1     -12.129  13.896  65.223  1.00  0.00    -0.422 C  
HETATM   29  C   UNL     1     -12.619  12.518  64.817  1.00  0.00    -0.493 C  
HETATM   30  C   UNL     1     -11.685  11.405  65.272  1.00  0.00     0.329 C  
ENDBRANCH  20  25
ENDBRANCH  18  19
BRANCH  18  31
HETATM   31  C   UNL     1      -9.893   7.625  66.408  1.00  0.00    -0.174 C  
HETATM   32  C   UNL     1      -8.122   6.577  67.966  1.00  0.00    -0.113 C  
HETATM   33  C   UNL     1      -9.609   6.786  67.671  1.00  0.00    -0.139 C  
HETATM   34  C   UNL     1     -10.257   5.407  67.499  1.00  0.00    -0.243 C  
ENDBRANCH  18  31
ENDBRANCH  16  18
ENDBRANCH  13  14
ENDBRANCH  11  13
ENDBRANCH   3   4
ENDBRANCH   2   3
TORSDOF 8
ENDMDL
MODEL      220
REMARK 921   NORMALIZED FREE ENERGY PREDICTED BY IDOCK:   -4.13 KCAL/MOL
REMARK 922        TOTAL FREE ENERGY PREDICTED BY IDOCK:   -8.46 KCAL/MOL
REMARK 923 INTER-LIGAND FREE ENERGY PREDICTED BY IDOCK:   -7.63 KCAL/MOL
REMARK 924 INTRA-LIGAND FREE ENERGY PREDICTED BY IDOCK:   -0.83 KCAL/MOL
REMARK 927      BINDING AFFINITY PREDICTED BY RF-SCORE:    0.00 PKD
ROOT
HETATM    1  C   UNL     1      -7.943  19.486  68.085  1.00  0.00    -0.353 C  
HETATM    2  C   UNL     1      -8.976  19.297  69.173  1.00  0.00    -0.137 C  
ENDROOT
BRANCH   2   3
HETATM    3  O   UNL     1      -9.920  18.289  68.758  1.00  0.00    -0.363 OA 
BRANCH   3   4
HETATM    4  C   UNL     1      -9.375  17.260  68.029  1.00  0.00    -0.264 A  
HETATM    5  C   UNL     1      -9.730  17.121  66.678  1.00  0.00    -0.285 A  
HETATM    6  C   UNL     1      -9.225  16.027  65.950  1.00  0.00    -0.321 A  
HETATM    7  C   UNL     1     -10.647  18.046  65.935  1.00  0.00    -0.219 C  
HETATM    8  C   UNL     1      -8.383  15.093  66.550  1.00  0.00    -0.060 A  
HETATM    9  O   UNL     1     -11.004  17.835  64.782  1.00  0.00    -0.855 OA 
HETATM   10  O   UNL     1     -11.030  19.141  66.614  1.00  0.00    -0.331 OA 
HETATM   11  C   UNL     1      -8.005  15.244  67.887  1.00  0.00    -0.145 A  
HETATM   12  C   UNL     1      -8.473  16.350  68.603  1.00  0.00    -0.229 A  
BRANCH  11  13
HETATM   13  C   UNL     1      -7.106  14.238  68.561  1.00  0.00    -0.105 C  
BRANCH  13  14
HETATM   14  C   UNL     1      -7.454  12.802  68.223  1.00  0.00    -0.124 C  
HETATM   15  O   UNL     1      -7.347  11.922  69.076  1.00  0.00    -0.104 OA 
HETATM   16  N   UNL     1      -7.904  12.576  66.933  1.00  0.00    -0.386 N  
HETATM   17  H   UNL     1      -7.915  13.348  66.266  1.00  0.00     0.000 HD 
BRANCH  16  18
HETATM   18  C   UNL     1      -8.367  11.244  66.504  1.00  0.00    -0.168 C  
BRANCH  18  19
HETATM   19  C   UNL     1      -8.997  10.359  67.594  1.00  0.00    -0.139 A  
HETATM   20  C   UNL     1     -10.304  10.579  68.148  1.00  0.00    -0.172 A  
HETATM   21  C   UNL     1     -10.780   9.579  69.040  1.00  0.00    -0.224 A  
HETATM   22  C   UNL     1      -8.299   9.167  67.943  1.00  0.00    -0.117 A  
HETATM   23  C   UNL     1     -10.077   8.415  69.355  1.00  0.00    -0.198 A  
HETATM   24  C   UNL     1      -8.830   8.208  68.807  1.00  0.00    -0.138 A  
BRANCH  20  25
HETATM   25  N   UNL     1     -11.152  11.669  67.919  1.00  0.00    -0.229 NA 
HETATM   26  C   UNL     1     -11.637  12.495  69.048  1.00  0.00    -0.314 C  
HETATM   27  C   UNL     1     -11.473  13.978  68.698  1.00  0.00    -0.337 C  
HETATM   28  C   UNL     1     -12.244  14.323  67.429  1.00  0.00    -0.267 C  
HETATM   29  C   UNL     1     -11.819  13.412  66.293  1.00  0.00    -0.438 C  
HETATM   30  C   UNL     1     -11.868  11.937  66.672  1.00  0.00    -0.067 C  
ENDBRANCH  20  25
ENDBRANCH  18  19
BRANCH  18  31
HETATM   31  C   UNL     1      -7.258  10.442  65.796  1.00  0.00    -0.143 C  
HETATM   32  C   UNL     1      -8.749   9.134  64.147  1.00  0.00    -0.170 C  
HETATM   33  C   UNL     1      -7.531  10.041  64.332  1.00  0.00    -0.141 C  
HETATM   34  C   UNL     1      -6.303   9.303  63.789  1.00  0.00    -0.091 C  
ENDBRANCH  18  31
ENDBRANCH  16  18
ENDBRANCH  13  14
ENDBRANCH  11  13
ENDBRANCH   3   4
ENDBRANCH   2   3
TORSDOF 8
ENDMDL
MODEL      221
REMARK 921   NORMALIZED FREE ENERGY PREDICTED BY IDOCK:   -4.13 KCAL/MOL
REMARK 922        TOTAL FREE ENERGY PREDICTED BY IDOCK:   -8.46 KCAL/MOL
REMARK 923 INTER-LIGAND FREE ENERGY PREDICTED BY IDOCK:   -7.10 KCAL/MOL
REMARK 924 INTRA-LIGAND FREE ENERGY PREDICTED BY IDOCK:   -1.36 KCAL/MOL
REMARK 927      BINDING AFFINITY PREDICTED BY RF-SCORE:    0.00 PKD
ROOT
HETATM    1  C   UNL     1      -7.582  16.224  69.051  1.00  0.00    -0.219 C  
HETATM    2  C   UNL     1      -7.157  14.997  68.276  1.00  0.00    -0.114 C  
ENDROOT
BRANCH   2   3
HETATM    3  O   UNL     1      -7.797  15.010  66.983  1.00  0.00    -0.209 OA 
BRANCH   3   4
HETATM    4  C   UNL     1      -9.066  14.486  66.968  1.00  0.00    -0.239 A  
HETATM    5  C   UNL     1     -10.103  15.232  66.387  1.00  0.00    -0.287 A  
HETATM    6  C   UNL     1     -11.415  14.725  66.432  1.00  0.00    -0.319 A  
HETATM    7  C   UNL     1      -9.930  16.570  65.730  1.00  0.00    -0.274 C  
HETATM    8  C   UNL     1     -11.692  13.502  67.038  1.00  0.00    -0.424 A  
HETATM    9  O   UNL     1     -10.877  17.229  65.318  1.00  0.00    -0.576 OA 
HETATM   10  O   UNL     1      -8.659  16.984  65.600  1.00  0.00    -0.456 OA 
HETATM   11  C   UNL     1     -10.658  12.743  67.594  1.00  0.00    -0.230 A  
HETATM   12  C   UNL     1      -9.348  13.225  67.517  1.00  0.00    -0.218 A  
BRANCH  11  13
HETATM   13  C   UNL     1     -10.936  11.424  68.269  1.00  0.00    -0.266 C  
BRANCH  13  14
HETATM   14  C   UNL     1     -10.269  10.247  67.582  1.00  0.00    -0.205 C  
HETATM   15  O   UNL     1     -10.457  10.043  66.384  1.00  0.00    -0.203 OA 
HETATM   16  N   UNL     1      -9.449   9.468  68.381  1.00  0.00    -0.137 N  
HETATM   17  H   UNL     1      -9.385   9.669  69.378  1.00  0.00     0.000 HD 
BRANCH  16  18
HETATM   18  C   UNL     1      -8.666   8.353  67.817  1.00  0.00    -0.137 C  
BRANCH  18  19
HETATM   19  C   UNL     1      -8.109   7.334  68.827  1.00  0.00    -0.124 A  
HETATM   20  C   UNL     1      -8.797   6.933  70.022  1.00  0.00    -0.142 A  
HETATM   21  C   UNL     1      -8.198   5.876  70.762  1.00  0.00    -0.124 A  
HETATM   22  C   UNL     1      -6.920   6.640  68.457  1.00  0.00    -0.080 A  
HETATM   23  C   UNL     1      -7.037   5.207  70.369  1.00  0.00    -0.057 A  
HETATM   24  C   UNL     1      -6.394   5.592  69.212  1.00  0.00    -0.037 A  
BRANCH  20  25
HETATM   25  N   UNL     1      -9.978   7.472  70.544  1.00  0.00    -0.184 NA 
HETATM   26  C   UNL     1     -11.297   6.991  70.073  1.00  0.00    -0.249 C  
HETATM   27  C   UNL     1     -12.201   6.725  71.282  1.00  0.00    -0.415 C  
HETATM   28  C   UNL     1     -12.373   7.989  72.116  1.00  0.00    -0.358 C  
HETATM   29  C   UNL     1     -11.019   8.540  72.519  1.00  0.00    -0.323 C  
HETATM   30  C   UNL     1     -10.073   8.698  71.336  1.00  0.00    -0.254 C  
ENDBRANCH  20  25
ENDBRANCH  18  19
BRANCH  18  31
HETATM   31  C   UNL     1      -7.511   8.846  66.924  1.00  0.00    -0.083 C  
HETATM   32  C   UNL     1      -6.703  10.791  68.414  1.00  0.00    -0.059 C  
HETATM   33  C   UNL     1      -6.327   9.522  67.647  1.00  0.00    -0.058 C  
HETATM   34  C   UNL     1      -5.265   9.892  66.607  1.00  0.00    -0.040 C  
ENDBRANCH  18  31
ENDBRANCH  16  18
ENDBRANCH  13  14
ENDBRANCH  11  13
ENDBRANCH   3   4
ENDBRANCH   2   3
TORSDOF 8
ENDMDL
MODEL      222
REMARK 921   NORMALIZED FREE ENERGY PREDICTED BY IDOCK:   -4.11 KCAL/MOL
REMARK 922        TOTAL FREE ENERGY PREDICTED BY IDOCK:   -8.42 KCAL/MOL
REMARK 923 INTER-LIGAND FREE ENERGY PREDICTED BY IDOCK:   -6.54 KCAL/MOL
REMARK 924 INTRA-LIGAND FREE ENERGY PREDICTED BY IDOCK:   -1.89 KCAL/MOL
REMARK 927      BINDING AFFINITY PREDICTED BY RF-SCORE:    0.00 PKD
ROOT
HETATM    1  C   UNL     1      -7.337   3.249  68.578  1.00  0.00    -0.050 C  
HETATM    2  C   UNL     1      -8.323   4.394  68.637  1.00  0.00    -0.084 C  
ENDROOT
BRANCH   2   3
HETATM    3  O   UNL     1      -8.254   5.011  69.939  1.00  0.00    -0.073 OA 
BRANCH   3   4
HETATM    4  C   UNL     1      -9.266   5.899  70.205  1.00  0.00    -0.154 A  
HETATM    5  C   UNL     1     -10.125   5.647  71.287  1.00  0.00    -0.261 A  
HETATM    6  C   UNL     1     -11.203   6.521  71.518  1.00  0.00    -0.322 A  
HETATM    7  C   UNL     1     -10.003   4.480  72.222  1.00  0.00    -0.179 C  
HETATM    8  C   UNL     1     -11.423   7.624  70.697  1.00  0.00    -0.276 A  
HETATM    9  O   UNL     1     -10.829   4.247  73.096  1.00  0.00    -0.200 OA 
HETATM   10  O   UNL     1      -8.907   3.721  72.052  1.00  0.00    -0.097 OA 
HETATM   11  C   UNL     1     -10.554   7.894  69.635  1.00  0.00    -0.234 A  
HETATM   12  C   UNL     1      -9.459   7.050  69.425  1.00  0.00    -0.145 A  
BRANCH  11  13
HETATM   13  C   UNL     1     -10.780   9.073  68.724  1.00  0.00    -0.140 C  
BRANCH  13  14
HETATM   14  C   UNL     1      -9.594  10.016  68.658  1.00  0.00    -0.155 C  
HETATM   15  O   UNL     1      -8.992  10.327  69.684  1.00  0.00    -0.190 OA 
HETATM   16  N   UNL     1      -9.247  10.463  67.394  1.00  0.00    -0.142 N  
HETATM   17  H   UNL     1      -9.827  10.204  66.596  1.00  0.00     0.000 HD 
BRANCH  16  18
HETATM   18  C   UNL     1      -8.057  11.306  67.178  1.00  0.00    -0.150 C  
BRANCH  18  19
HETATM   19  C   UNL     1      -8.308  12.818  67.041  1.00  0.00    -0.123 A  
HETATM   20  C   UNL     1      -9.431  13.382  66.346  1.00  0.00    -0.219 A  
HETATM   21  C   UNL     1      -9.579  14.794  66.444  1.00  0.00    -0.324 A  
HETATM   22  C   UNL     1      -7.460  13.685  67.789  1.00  0.00    -0.172 A  
HETATM   23  C   UNL     1      -8.738  15.618  67.193  1.00  0.00    -0.233 A  
HETATM   24  C   UNL     1      -7.672  15.062  67.867  1.00  0.00    -0.145 A  
BRANCH  20  25
HETATM   25  N   UNL     1     -10.383  12.705  65.576  1.00  0.00    -0.282 NA 
HETATM   26  C   UNL     1     -11.701  12.351  66.151  1.00  0.00    -0.400 C  
HETATM   27  C   UNL     1     -12.806  12.732  65.160  1.00  0.00    -0.237 C  
HETATM   28  C   UNL     1     -12.607  12.017  63.828  1.00  0.00    -0.567 C  
HETATM   29  C   UNL     1     -11.220  12.299  63.283  1.00  0.00    -0.399 C  
HETATM   30  C   UNL     1     -10.122  12.033  64.304  1.00  0.00    -0.293 C  
ENDBRANCH  20  25
ENDBRANCH  18  19
BRANCH  18  31
HETATM   31  C   UNL     1      -7.220  10.833  65.973  1.00  0.00    -0.105 C  
HETATM   32  C   UNL     1      -5.816   9.040  67.186  1.00  0.00    -0.046 C  
HETATM   33  C   UNL     1      -6.736   9.369  66.009  1.00  0.00    -0.081 C  
HETATM   34  C   UNL     1      -5.973   9.073  64.713  1.00  0.00    -0.064 C  
ENDBRANCH  18  31
ENDBRANCH  16  18
ENDBRANCH  13  14
ENDBRANCH  11  13
ENDBRANCH   3   4
ENDBRANCH   2   3
TORSDOF 8
ENDMDL
MODEL      223
REMARK 921   NORMALIZED FREE ENERGY PREDICTED BY IDOCK:   -4.09 KCAL/MOL
REMARK 922        TOTAL FREE ENERGY PREDICTED BY IDOCK:   -8.40 KCAL/MOL
REMARK 923 INTER-LIGAND FREE ENERGY PREDICTED BY IDOCK:   -7.31 KCAL/MOL
REMARK 924 INTRA-LIGAND FREE ENERGY PREDICTED BY IDOCK:   -1.08 KCAL/MOL
REMARK 927      BINDING AFFINITY PREDICTED BY RF-SCORE:    0.00 PKD
ROOT
HETATM    1  C   UNL     1      -9.857  11.170  63.184  1.00  0.00    -0.403 C  
HETATM    2  C   UNL     1      -9.836  10.228  64.367  1.00  0.00    -0.305 C  
ENDROOT
BRANCH   2   3
HETATM    3  O   UNL     1      -8.468   9.905  64.690  1.00  0.00    -0.148 OA 
BRANCH   3   4
HETATM    4  C   UNL     1      -8.153  10.017  66.021  1.00  0.00    -0.124 A  
HETATM    5  C   UNL     1      -7.994   8.850  66.784  1.00  0.00    -0.107 A  
HETATM    6  C   UNL     1      -7.738   8.966  68.163  1.00  0.00    -0.100 A  
HETATM    7  C   UNL     1      -8.104   7.454  66.244  1.00  0.00    -0.117 C  
HETATM    8  C   UNL     1      -7.639  10.214  68.772  1.00  0.00    -0.089 A  
HETATM    9  O   UNL     1      -8.050   6.464  66.963  1.00  0.00    -0.110 OA 
HETATM   10  O   UNL     1      -8.239   7.364  64.910  1.00  0.00    -0.131 OA 
HETATM   11  C   UNL     1      -7.770  11.380  68.011  1.00  0.00    -0.114 A  
HETATM   12  C   UNL     1      -7.985  11.269  66.634  1.00  0.00    -0.159 A  
BRANCH  11  13
HETATM   13  C   UNL     1      -7.681  12.742  68.651  1.00  0.00    -0.064 C  
BRANCH  13  14
HETATM   14  C   UNL     1      -7.716  13.879  67.648  1.00  0.00    -0.184 C  
HETATM   15  O   UNL     1      -6.670  14.310  67.164  1.00  0.00    -0.185 OA 
HETATM   16  N   UNL     1      -8.973  14.358  67.321  1.00  0.00    -0.201 N  
HETATM   17  H   UNL     1      -9.791  13.987  67.805  1.00  0.00     0.000 HD 
BRANCH  16  18
HETATM   18  C   UNL     1      -9.155  15.395  66.289  1.00  0.00    -0.320 C  
BRANCH  18  19
HETATM   19  C   UNL     1      -9.577  16.788  66.789  1.00  0.00    -0.261 A  
HETATM   20  C   UNL     1     -10.335  17.012  67.987  1.00  0.00    -0.341 A  
HETATM   21  C   UNL     1     -10.510  18.371  68.369  1.00  0.00    -0.280 A  
HETATM   22  C   UNL     1      -9.038  17.913  66.100  1.00  0.00    -0.121 A  
HETATM   23  C   UNL     1      -9.961  19.453  67.680  1.00  0.00    -0.476 A  
HETATM   24  C   UNL     1      -9.223  19.224  66.539  1.00  0.00    -0.388 A  
BRANCH  20  25
HETATM   25  N   UNL     1     -10.929  16.049  68.811  1.00  0.00    -0.299 NA 
HETATM   26  C   UNL     1     -10.184  15.474  69.954  1.00  0.00    -0.295 C  
HETATM   27  C   UNL     1     -11.083  15.473  71.196  1.00  0.00    -0.367 C  
HETATM   28  C   UNL     1     -12.354  14.670  70.943  1.00  0.00    -0.406 C  
HETATM   29  C   UNL     1     -13.070  15.195  69.713  1.00  0.00     0.333 C  
HETATM   30  C   UNL     1     -12.152  15.308  68.502  1.00  0.00    -0.085 C  
ENDBRANCH  20  25
ENDBRANCH  18  19
BRANCH  18  31
HETATM   31  C   UNL     1     -10.132  14.950  65.183  1.00  0.00    -0.354 C  
HETATM   32  C   UNL     1     -11.162  12.922  66.402  1.00  0.00    -0.337 C  
HETATM   33  C   UNL     1     -11.415  14.232  65.652  1.00  0.00    -0.329 C  
HETATM   34  C   UNL     1     -12.277  13.918  64.424  1.00  0.00    -0.449 C  
ENDBRANCH  18  31
ENDBRANCH  16  18
ENDBRANCH  13  14
ENDBRANCH  11  13
ENDBRANCH   3   4
ENDBRANCH   2   3
TORSDOF 8
ENDMDL
MODEL      224
REMARK 921   NORMALIZED FREE ENERGY PREDICTED BY IDOCK:   -4.09 KCAL/MOL
REMARK 922        TOTAL FREE ENERGY PREDICTED BY IDOCK:   -8.39 KCAL/MOL
REMARK 923 INTER-LIGAND FREE ENERGY PREDICTED BY IDOCK:   -7.03 KCAL/MOL
REMARK 924 INTRA-LIGAND FREE ENERGY PREDICTED BY IDOCK:   -1.37 KCAL/MOL
REMARK 927      BINDING AFFINITY PREDICTED BY RF-SCORE:    0.00 PKD
ROOT
HETATM    1  C   UNL     1      -6.897   5.859  62.429  1.00  0.00    -0.040 C  
HETATM    2  C   UNL     1      -6.092   6.505  63.534  1.00  0.00    -0.030 C  
ENDROOT
BRANCH   2   3
HETATM    3  O   UNL     1      -6.363   5.824  64.776  1.00  0.00    -0.035 OA 
BRANCH   3   4
HETATM    4  C   UNL     1      -7.179   6.512  65.640  1.00  0.00    -0.073 A  
HETATM    5  C   UNL     1      -7.241   6.110  66.983  1.00  0.00    -0.074 A  
HETATM    6  C   UNL     1      -8.128   6.772  67.853  1.00  0.00    -0.114 A  
HETATM    7  C   UNL     1      -6.442   4.987  67.578  1.00  0.00    -0.045 C  
HETATM    8  C   UNL     1      -8.934   7.813  67.400  1.00  0.00    -0.128 A  
HETATM    9  O   UNL     1      -6.595   4.609  68.733  1.00  0.00    -0.043 OA 
HETATM   10  O   UNL     1      -5.524   4.442  66.762  1.00  0.00    -0.012 OA 
HETATM   11  C   UNL     1      -8.856   8.235  66.069  1.00  0.00    -0.203 A  
HETATM   12  C   UNL     1      -7.948   7.606  65.212  1.00  0.00    -0.129 A  
BRANCH  11  13
HETATM   13  C   UNL     1      -9.728   9.350  65.552  1.00  0.00    -0.300 C  
BRANCH  13  14
HETATM   14  C   UNL     1      -9.268  10.726  65.993  1.00  0.00    -0.187 C  
HETATM   15  O   UNL     1      -8.096  11.065  65.837  1.00  0.00    -0.150 OA 
HETATM   16  N   UNL     1     -10.242  11.542  66.543  1.00  0.00    -0.212 N  
HETATM   17  H   UNL     1     -11.181  11.170  66.689  1.00  0.00     0.000 HD 
BRANCH  16  18
HETATM   18  C   UNL     1      -9.950  12.936  66.923  1.00  0.00    -0.238 C  
BRANCH  18  19
HETATM   19  C   UNL     1     -10.558  13.422  68.250  1.00  0.00    -0.264 A  
HETATM   20  C   UNL     1     -10.483  14.779  68.715  1.00  0.00    -0.250 A  
HETATM   21  C   UNL     1     -11.224  15.076  69.892  1.00  0.00    -0.303 A  
HETATM   22  C   UNL     1     -11.376  12.499  68.964  1.00  0.00    -0.342 A  
HETATM   23  C   UNL     1     -12.025  14.152  70.565  1.00  0.00    -0.393 A  
HETATM   24  C   UNL     1     -12.100  12.857  70.101  1.00  0.00    -0.373 A  
BRANCH  20  25
HETATM   25  N   UNL     1      -9.756  15.833  68.150  1.00  0.00    -0.211 NA 
HETATM   26  C   UNL     1      -8.278  15.850  68.223  1.00  0.00    -0.152 C  
HETATM   27  C   UNL     1      -7.706  16.194  66.843  1.00  0.00    -0.284 C  
HETATM   28  C   UNL     1      -8.223  17.546  66.364  1.00  0.00    -0.305 C  
HETATM   29  C   UNL     1      -9.739  17.564  66.382  1.00  0.00    -0.299 C  
HETATM   30  C   UNL     1     -10.317  17.112  67.717  1.00  0.00    -0.347 C  
ENDBRANCH  20  25
ENDBRANCH  18  19
BRANCH  18  31
HETATM   31  C   UNL     1     -10.329  13.933  65.811  1.00  0.00    -0.326 C  
HETATM   32  C   UNL     1     -12.660  12.981  65.246  1.00  0.00    -0.516 C  
HETATM   33  C   UNL     1     -11.835  14.212  65.627  1.00  0.00    -0.377 C  
HETATM   34  C   UNL     1     -12.008  15.259  64.521  1.00  0.00    -0.276 C  
ENDBRANCH  18  31
ENDBRANCH  16  18
ENDBRANCH  13  14
ENDBRANCH  11  13
ENDBRANCH   3   4
ENDBRANCH   2   3
TORSDOF 8
ENDMDL
MODEL      225
REMARK 921   NORMALIZED FREE ENERGY PREDICTED BY IDOCK:   -4.08 KCAL/MOL
REMARK 922        TOTAL FREE ENERGY PREDICTED BY IDOCK:   -8.38 KCAL/MOL
REMARK 923 INTER-LIGAND FREE ENERGY PREDICTED BY IDOCK:   -6.81 KCAL/MOL
REMARK 924 INTRA-LIGAND FREE ENERGY PREDICTED BY IDOCK:   -1.57 KCAL/MOL
REMARK 927      BINDING AFFINITY PREDICTED BY RF-SCORE:    0.00 PKD
ROOT
HETATM    1  C   UNL     1      -7.927  14.646  69.226  1.00  0.00    -0.055 C  
HETATM    2  C   UNL     1      -7.640  13.427  68.378  1.00  0.00    -0.133 C  
ENDROOT
BRANCH   2   3
HETATM    3  O   UNL     1      -8.096  13.670  67.031  1.00  0.00    -0.116 OA 
BRANCH   3   4
HETATM    4  C   UNL     1      -9.206  12.951  66.665  1.00  0.00    -0.221 A  
HETATM    5  C   UNL     1     -10.364  13.640  66.272  1.00  0.00    -0.293 A  
HETATM    6  C   UNL     1     -11.523  12.905  65.962  1.00  0.00    -0.384 A  
HETATM    7  C   UNL     1     -10.481  15.134  66.181  1.00  0.00    -0.312 C  
HETATM    8  C   UNL     1     -11.532  11.514  66.036  1.00  0.00    -0.093 A  
HETATM    9  O   UNL     1     -11.538  15.697  65.925  1.00  0.00     0.050 OA 
HETATM   10  O   UNL     1      -9.337  15.811  66.374  1.00  0.00    -0.249 OA 
HETATM   11  C   UNL     1     -10.372  10.822  66.400  1.00  0.00    -0.306 A  
HETATM   12  C   UNL     1      -9.208  11.547  66.671  1.00  0.00    -0.194 A  
BRANCH  11  13
HETATM   13  C   UNL     1     -10.362   9.318  66.501  1.00  0.00    -0.270 C  
BRANCH  13  14
HETATM   14  C   UNL     1      -9.964   8.812  67.874  1.00  0.00    -0.187 C  
HETATM   15  O   UNL     1      -9.279   9.513  68.617  1.00  0.00    -0.134 OA 
HETATM   16  N   UNL     1     -10.435   7.555  68.214  1.00  0.00    -0.256 N  
HETATM   17  H   UNL     1     -10.953   7.012  67.524  1.00  0.00     0.000 HD 
BRANCH  16  18
HETATM   18  C   UNL     1     -10.202   6.986  69.554  1.00  0.00    -0.199 C  
BRANCH  18  19
HETATM   19  C   UNL     1      -9.683   5.538  69.598  1.00  0.00    -0.230 A  
HETATM   20  C   UNL     1      -9.161   4.911  70.780  1.00  0.00    -0.145 A  
HETATM   21  C   UNL     1      -8.861   3.525  70.670  1.00  0.00    -0.141 A  
HETATM   22  C   UNL     1      -9.889   4.740  68.436  1.00  0.00    -0.187 A  
HETATM   23  C   UNL     1      -9.084   2.766  69.520  1.00  0.00    -0.189 A  
HETATM   24  C   UNL     1      -9.599   3.376  68.397  1.00  0.00    -0.144 A  
BRANCH  20  25
HETATM   25  N   UNL     1      -8.904   5.511  72.019  1.00  0.00    -0.134 NA 
HETATM   26  C   UNL     1      -7.642   6.250  72.248  1.00  0.00    -0.095 C  
HETATM   27  C   UNL     1      -7.956   7.591  72.922  1.00  0.00    -0.129 C  
HETATM   28  C   UNL     1      -8.684   7.375  74.244  1.00  0.00    -0.264 C  
HETATM   29  C   UNL     1      -9.927   6.533  74.026  1.00  0.00    -0.320 C  
HETATM   30  C   UNL     1      -9.641   5.252  73.255  1.00  0.00    -0.141 C  
ENDBRANCH  20  25
ENDBRANCH  18  19
BRANCH  18  31
HETATM   31  C   UNL     1     -11.448   7.092  70.455  1.00  0.00    -0.363 C  
HETATM   32  C   UNL     1     -10.805   9.250  71.714  1.00  0.00    -0.358 C  
HETATM   33  C   UNL     1     -11.861   8.514  70.887  1.00  0.00    -0.243 C  
HETATM   34  C   UNL     1     -13.140   8.419  71.727  1.00  0.00    -0.373 C  
ENDBRANCH  18  31
ENDBRANCH  16  18
ENDBRANCH  13  14
ENDBRANCH  11  13
ENDBRANCH   3   4
ENDBRANCH   2   3
TORSDOF 8
ENDMDL
MODEL      226
REMARK 921   NORMALIZED FREE ENERGY PREDICTED BY IDOCK:   -4.06 KCAL/MOL
REMARK 922        TOTAL FREE ENERGY PREDICTED BY IDOCK:   -8.36 KCAL/MOL
REMARK 923 INTER-LIGAND FREE ENERGY PREDICTED BY IDOCK:   -6.58 KCAL/MOL
REMARK 924 INTRA-LIGAND FREE ENERGY PREDICTED BY IDOCK:   -1.78 KCAL/MOL
REMARK 927      BINDING AFFINITY PREDICTED BY RF-SCORE:    0.00 PKD
ROOT
HETATM    1  C   UNL     1      -9.401   3.266  69.379  1.00  0.00    -0.232 C  
HETATM    2  C   UNL     1      -9.540   4.508  68.528  1.00  0.00    -0.149 C  
ENDROOT
BRANCH   2   3
HETATM    3  O   UNL     1      -9.864   4.122  67.176  1.00  0.00    -0.205 OA 
BRANCH   3   4
HETATM    4  C   UNL     1      -9.201   4.829  66.204  1.00  0.00    -0.144 A  
HETATM    5  C   UNL     1      -8.442   4.131  65.253  1.00  0.00    -0.114 A  
HETATM    6  C   UNL     1      -7.708   4.859  64.298  1.00  0.00    -0.080 A  
HETATM    7  C   UNL     1      -8.322   2.636  65.184  1.00  0.00    -0.094 C  
HETATM    8  C   UNL     1      -7.730   6.252  64.286  1.00  0.00    -0.107 A  
HETATM    9  O   UNL     1      -7.575   2.071  64.395  1.00  0.00    -0.061 OA 
HETATM   10  O   UNL     1      -9.114   1.958  66.031  1.00  0.00    -0.117 OA 
HETATM   11  C   UNL     1      -8.506   6.951  65.215  1.00  0.00    -0.062 A  
HETATM   12  C   UNL     1      -9.267   6.230  66.140  1.00  0.00    -0.143 A  
BRANCH  11  13
HETATM   13  C   UNL     1      -8.534   8.458  65.230  1.00  0.00    -0.189 C  
BRANCH  13  14
HETATM   14  C   UNL     1      -8.295   9.048  66.606  1.00  0.00    -0.118 C  
HETATM   15  O   UNL     1      -7.311   8.711  67.262  1.00  0.00    -0.086 OA 
HETATM   16  N   UNL     1      -9.228   9.977  67.036  1.00  0.00    -0.145 N  
HETATM   17  H   UNL     1     -10.047  10.166  66.458  1.00  0.00     0.000 HD 
BRANCH  16  18
HETATM   18  C   UNL     1      -9.062  10.698  68.311  1.00  0.00    -0.153 C  
BRANCH  18  19
HETATM   19  C   UNL     1     -10.292  10.740  69.235  1.00  0.00    -0.228 A  
HETATM   20  C   UNL     1     -11.466  11.524  68.969  1.00  0.00    -0.291 A  
HETATM   21  C   UNL     1     -12.560  11.329  69.857  1.00  0.00    -0.129 A  
HETATM   22  C   UNL     1     -10.316   9.821  70.323  1.00  0.00    -0.348 A  
HETATM   23  C   UNL     1     -12.558  10.413  70.910  1.00  0.00    -0.478 A  
HETATM   24  C   UNL     1     -11.430   9.657  71.146  1.00  0.00    -0.456 A  
BRANCH  20  25
HETATM   25  N   UNL     1     -11.649  12.462  67.946  1.00  0.00    -0.336 NA 
HETATM   26  C   UNL     1     -11.908  13.883  68.268  1.00  0.00    -0.376 C  
HETATM   27  C   UNL     1     -11.010  14.771  67.398  1.00  0.00    -0.313 C  
HETATM   28  C   UNL     1     -11.267  14.515  65.918  1.00  0.00    -0.331 C  
HETATM   29  C   UNL     1     -11.097  13.040  65.604  1.00  0.00    -0.301 C  
HETATM   30  C   UNL     1     -11.898  12.144  66.540  1.00  0.00    -0.246 C  
ENDBRANCH  20  25
ENDBRANCH  18  19
BRANCH  18  31
HETATM   31  C   UNL     1      -8.550  12.137  68.103  1.00  0.00    -0.177 C  
HETATM   32  C   UNL     1      -6.395  11.963  69.511  1.00  0.00    -0.122 C  
HETATM   33  C   UNL     1      -7.022  12.335  68.165  1.00  0.00    -0.087 C  
HETATM   34  C   UNL     1      -6.707  13.808  67.886  1.00  0.00    -0.162 C  
ENDBRANCH  18  31
ENDBRANCH  16  18
ENDBRANCH  13  14
ENDBRANCH  11  13
ENDBRANCH   3   4
ENDBRANCH   2   3
TORSDOF 8
ENDMDL
MODEL      227
REMARK 921   NORMALIZED FREE ENERGY PREDICTED BY IDOCK:   -4.06 KCAL/MOL
REMARK 922        TOTAL FREE ENERGY PREDICTED BY IDOCK:   -8.36 KCAL/MOL
REMARK 923 INTER-LIGAND FREE ENERGY PREDICTED BY IDOCK:   -7.48 KCAL/MOL
REMARK 924 INTRA-LIGAND FREE ENERGY PREDICTED BY IDOCK:   -0.87 KCAL/MOL
REMARK 927      BINDING AFFINITY PREDICTED BY RF-SCORE:    0.00 PKD
ROOT
HETATM    1  C   UNL     1      -7.696   2.169  67.060  1.00  0.00    -0.066 C  
HETATM    2  C   UNL     1      -8.864   2.271  68.015  1.00  0.00    -0.120 C  
ENDROOT
BRANCH   2   3
HETATM    3  O   UNL     1      -8.492   3.106  69.131  1.00  0.00    -0.059 OA 
BRANCH   3   4
HETATM    4  C   UNL     1      -9.336   4.164  69.360  1.00  0.00    -0.168 A  
HETATM    5  C   UNL     1      -9.889   4.328  70.640  1.00  0.00    -0.265 A  
HETATM    6  C   UNL     1     -10.807   5.372  70.857  1.00  0.00    -0.190 A  
HETATM    7  C   UNL     1      -9.597   3.445  71.817  1.00  0.00    -0.155 C  
HETATM    8  C   UNL     1     -11.167   6.238  69.827  1.00  0.00    -0.499 A  
HETATM    9  O   UNL     1     -10.172   3.567  72.892  1.00  0.00    -0.150 OA 
HETATM   10  O   UNL     1      -8.638   2.524  71.620  1.00  0.00    -0.062 OA 
HETATM   11  C   UNL     1     -10.598   6.095  68.558  1.00  0.00    -0.327 A  
HETATM   12  C   UNL     1      -9.656   5.083  68.348  1.00  0.00    -0.195 A  
BRANCH  11  13
HETATM   13  C   UNL     1     -10.982   7.011  67.424  1.00  0.00    -0.336 C  
BRANCH  13  14
HETATM   14  C   UNL     1     -10.571   8.452  67.651  1.00  0.00    -0.195 C  
HETATM   15  O   UNL     1     -10.513   8.906  68.793  1.00  0.00    -0.217 OA 
HETATM   16  N   UNL     1     -10.260   9.178  66.514  1.00  0.00    -0.274 N  
HETATM   17  H   UNL     1     -10.384   8.748  65.597  1.00  0.00     0.000 HD 
BRANCH  16  18
HETATM   18  C   UNL     1      -9.753  10.560  66.601  1.00  0.00    -0.189 C  
BRANCH  18  19
HETATM   19  C   UNL     1     -10.455  11.600  65.710  1.00  0.00    -0.308 A  
HETATM   20  C   UNL     1     -10.415  13.016  65.949  1.00  0.00    -0.281 A  
HETATM   21  C   UNL     1     -11.000  13.835  64.944  1.00  0.00    -0.378 A  
HETATM   22  C   UNL     1     -11.035  11.128  64.497  1.00  0.00    -0.255 A  
HETATM   23  C   UNL     1     -11.551  13.344  63.760  1.00  0.00    -0.362 A  
HETATM   24  C   UNL     1     -11.571  11.984  63.535  1.00  0.00    -0.553 A  
BRANCH  20  25
HETATM   25  N   UNL     1      -9.879  13.675  67.061  1.00  0.00    -0.245 NA 
HETATM   26  C   UNL     1      -8.586  14.390  66.960  1.00  0.00    -0.203 C  
HETATM   27  C   UNL     1      -8.721  15.775  67.604  1.00  0.00    -0.178 C  
HETATM   28  C   UNL     1      -9.139  15.653  69.065  1.00  0.00    -0.241 C  
HETATM   29  C   UNL     1     -10.412  14.837  69.180  1.00  0.00    -0.243 C  
HETATM   30  C   UNL     1     -10.326  13.507  68.443  1.00  0.00    -0.248 C  
ENDBRANCH  20  25
ENDBRANCH  18  19
BRANCH  18  31
HETATM   31  C   UNL     1      -8.234  10.639  66.350  1.00  0.00    -0.146 C  
HETATM   32  C   UNL     1      -8.069   8.818  64.530  1.00  0.00    -0.156 C  
HETATM   33  C   UNL     1      -7.754  10.259  64.934  1.00  0.00    -0.124 C  
HETATM   34  C   UNL     1      -6.235  10.450  64.865  1.00  0.00    -0.097 C  
ENDBRANCH  18  31
ENDBRANCH  16  18
ENDBRANCH  13  14
ENDBRANCH  11  13
ENDBRANCH   3   4
ENDBRANCH   2   3
TORSDOF 8
ENDMDL
MODEL      228
REMARK 921   NORMALIZED FREE ENERGY PREDICTED BY IDOCK:   -4.06 KCAL/MOL
REMARK 922        TOTAL FREE ENERGY PREDICTED BY IDOCK:   -8.36 KCAL/MOL
REMARK 923 INTER-LIGAND FREE ENERGY PREDICTED BY IDOCK:   -6.95 KCAL/MOL
REMARK 924 INTRA-LIGAND FREE ENERGY PREDICTED BY IDOCK:   -1.40 KCAL/MOL
REMARK 927      BINDING AFFINITY PREDICTED BY RF-SCORE:    0.00 PKD
ROOT
HETATM    1  C   UNL     1     -11.888  15.985  69.918  1.00  0.00    -0.237 C  
HETATM    2  C   UNL     1     -10.413  15.757  70.156  1.00  0.00    -0.278 C  
ENDROOT
BRANCH   2   3
HETATM    3  O   UNL     1      -9.771  15.467  68.897  1.00  0.00    -0.198 OA 
BRANCH   3   4
HETATM    4  C   UNL     1     -10.431  14.552  68.115  1.00  0.00    -0.239 A  
HETATM    5  C   UNL     1     -10.737  14.886  66.787  1.00  0.00    -0.312 A  
HETATM    6  C   UNL     1     -11.473  13.975  66.007  1.00  0.00    -0.340 A  
HETATM    7  C   UNL     1     -10.359  16.177  66.121  1.00  0.00    -0.339 C  
HETATM    8  C   UNL     1     -11.895  12.756  66.533  1.00  0.00    -0.471 A  
HETATM    9  O   UNL     1     -10.726  16.466  64.989  1.00  0.00    -0.638 OA 
HETATM   10  O   UNL     1      -9.565  16.984  66.845  1.00  0.00    -0.241 OA 
HETATM   11  C   UNL     1     -11.569  12.408  67.847  1.00  0.00    -0.415 A  
HETATM   12  C   UNL     1     -10.804  13.293  68.613  1.00  0.00    -0.285 A  
BRANCH  11  13
HETATM   13  C   UNL     1     -12.027  11.101  68.443  1.00  0.00    -0.211 C  
BRANCH  13  14
HETATM   14  C   UNL     1     -10.972  10.012  68.383  1.00  0.00    -0.217 C  
HETATM   15  O   UNL     1     -10.831   9.344  67.360  1.00  0.00    -0.263 OA 
HETATM   16  N   UNL     1     -10.200   9.855  69.522  1.00  0.00    -0.209 N  
HETATM   17  H   UNL     1     -10.413  10.412  70.349  1.00  0.00     0.000 HD 
BRANCH  16  18
HETATM   18  C   UNL     1      -9.078   8.901  69.562  1.00  0.00    -0.146 C  
BRANCH  18  19
HETATM   19  C   UNL     1      -9.454   7.409  69.614  1.00  0.00    -0.156 A  
HETATM   20  C   UNL     1      -8.979   6.431  68.676  1.00  0.00    -0.125 A  
HETATM   21  C   UNL     1      -9.314   5.078  68.963  1.00  0.00    -0.176 A  
HETATM   22  C   UNL     1     -10.181   6.965  70.756  1.00  0.00    -0.212 A  
HETATM   23  C   UNL     1     -10.020   4.672  70.096  1.00  0.00    -0.304 A  
HETATM   24  C   UNL     1     -10.458   5.619  70.996  1.00  0.00    -0.316 A  
BRANCH  20  25
HETATM   25  N   UNL     1      -8.239   6.659  67.510  1.00  0.00    -0.121 NA 
HETATM   26  C   UNL     1      -8.876   7.274  66.324  1.00  0.00    -0.159 C  
HETATM   27  C   UNL     1      -7.970   8.385  65.780  1.00  0.00    -0.108 C  
HETATM   28  C   UNL     1      -6.598   7.831  65.410  1.00  0.00    -0.044 C  
HETATM   29  C   UNL     1      -5.984   7.115  66.598  1.00  0.00    -0.035 C  
HETATM   30  C   UNL     1      -6.925   6.089  67.216  1.00  0.00    -0.069 C  
ENDBRANCH  20  25
ENDBRANCH  18  19
BRANCH  18  31
HETATM   31  C   UNL     1      -8.097   9.204  70.711  1.00  0.00    -0.207 C  
HETATM   32  C   UNL     1      -5.904   9.099  69.356  1.00  0.00    -0.034 C  
HETATM   33  C   UNL     1      -6.779   9.903  70.320  1.00  0.00    -0.126 C  
HETATM   34  C   UNL     1      -5.967  10.165  71.592  1.00  0.00     0.278 C  
ENDBRANCH  18  31
ENDBRANCH  16  18
ENDBRANCH  13  14
ENDBRANCH  11  13
ENDBRANCH   3   4
ENDBRANCH   2   3
TORSDOF 8
ENDMDL
MODEL      229
REMARK 921   NORMALIZED FREE ENERGY PREDICTED BY IDOCK:   -4.04 KCAL/MOL
REMARK 922        TOTAL FREE ENERGY PREDICTED BY IDOCK:   -8.33 KCAL/MOL
REMARK 923 INTER-LIGAND FREE ENERGY PREDICTED BY IDOCK:   -6.85 KCAL/MOL
REMARK 924 INTRA-LIGAND FREE ENERGY PREDICTED BY IDOCK:   -1.48 KCAL/MOL
REMARK 927      BINDING AFFINITY PREDICTED BY RF-SCORE:    0.00 PKD
ROOT
HETATM    1  C   UNL     1     -12.207  14.349  69.291  1.00  0.00    -0.274 C  
HETATM    2  C   UNL     1     -11.531  14.271  67.941  1.00  0.00    -0.315 C  
ENDROOT
BRANCH   2   3
HETATM    3  O   UNL     1     -12.046  13.134  67.219  1.00  0.00    -0.354 OA 
BRANCH   3   4
HETATM    4  C   UNL     1     -11.085  12.309  66.689  1.00  0.00    -0.297 A  
HETATM    5  C   UNL     1     -11.262  11.804  65.392  1.00  0.00    -0.310 A  
HETATM    6  C   UNL     1     -10.311  10.905  64.875  1.00  0.00    -0.371 A  
HETATM    7  C   UNL     1     -12.423  12.129  64.498  1.00  0.00    -0.283 C  
HETATM    8  C   UNL     1      -9.206  10.517  65.629  1.00  0.00    -0.221 A  
HETATM    9  O   UNL     1     -12.585  11.594  63.408  1.00  0.00    -0.485 OA 
HETATM   10  O   UNL     1     -13.259  13.071  64.965  1.00  0.00    -0.739 OA 
HETATM   11  C   UNL     1      -9.011  11.039  66.911  1.00  0.00    -0.162 A  
HETATM   12  C   UNL     1      -9.933  11.962  67.413  1.00  0.00    -0.201 A  
BRANCH  11  13
HETATM   13  C   UNL     1      -7.831  10.623  67.751  1.00  0.00    -0.108 C  
BRANCH  13  14
HETATM   14  C   UNL     1      -7.845   9.152  68.119  1.00  0.00    -0.099 C  
HETATM   15  O   UNL     1      -6.947   8.408  67.731  1.00  0.00    -0.072 OA 
HETATM   16  N   UNL     1      -8.901   8.739  68.915  1.00  0.00    -0.137 N  
HETATM   17  H   UNL     1      -9.637   9.403  69.154  1.00  0.00     0.000 HD 
BRANCH  16  18
HETATM   18  C   UNL     1      -8.982   7.358  69.425  1.00  0.00    -0.139 C  
BRANCH  18  19
HETATM   19  C   UNL     1      -9.272   6.263  68.383  1.00  0.00    -0.112 A  
HETATM   20  C   UNL     1      -8.971   4.873  68.578  1.00  0.00    -0.109 A  
HETATM   21  C   UNL     1      -9.439   3.986  67.569  1.00  0.00    -0.231 A  
HETATM   22  C   UNL     1     -10.029   6.645  67.237  1.00  0.00    -0.199 A  
HETATM   23  C   UNL     1     -10.188   4.387  66.462  1.00  0.00    -0.155 A  
HETATM   24  C   UNL     1     -10.483   5.723  66.293  1.00  0.00    -0.131 A  
BRANCH  20  25
HETATM   25  N   UNL     1      -8.260   4.297  69.637  1.00  0.00    -0.059 NA 
HETATM   26  C   UNL     1      -6.782   4.366  69.677  1.00  0.00    -0.037 C  
HETATM   27  C   UNL     1      -6.332   4.794  71.078  1.00  0.00    -0.019 C  
HETATM   28  C   UNL     1      -6.838   3.816  72.131  1.00  0.00    -0.026 C  
HETATM   29  C   UNL     1      -8.345   3.669  72.029  1.00  0.00    -0.083 C  
HETATM   30  C   UNL     1      -8.810   3.356  70.613  1.00  0.00    -0.082 C  
ENDBRANCH  20  25
ENDBRANCH  18  19
BRANCH  18  31
HETATM   31  C   UNL     1      -9.995   7.222  70.579  1.00  0.00    -0.191 C  
HETATM   32  C   UNL     1     -11.172   9.501  70.301  1.00  0.00    -0.307 C  
HETATM   33  C   UNL     1     -11.326   7.983  70.414  1.00  0.00    -0.190 C  
HETATM   34  C   UNL     1     -12.214   7.685  71.627  1.00  0.00    -0.346 C  
ENDBRANCH  18  31
ENDBRANCH  16  18
ENDBRANCH  13  14
ENDBRANCH  11  13
ENDBRANCH   3   4
ENDBRANCH   2   3
TORSDOF 8
ENDMDL
MODEL      230
REMARK 921   NORMALIZED FREE ENERGY PREDICTED BY IDOCK:   -4.04 KCAL/MOL
REMARK 922        TOTAL FREE ENERGY PREDICTED BY IDOCK:   -8.32 KCAL/MOL
REMARK 923 INTER-LIGAND FREE ENERGY PREDICTED BY IDOCK:   -8.01 KCAL/MOL
REMARK 924 INTRA-LIGAND FREE ENERGY PREDICTED BY IDOCK:   -0.31 KCAL/MOL
REMARK 927      BINDING AFFINITY PREDICTED BY RF-SCORE:    0.00 PKD
ROOT
HETATM    1  C   UNL     1      -7.998   7.483  73.011  1.00  0.00    -0.132 C  
HETATM    2  C   UNL     1      -9.366   7.852  73.541  1.00  0.00    -0.268 C  
ENDROOT
BRANCH   2   3
HETATM    3  O   UNL     1     -10.374   7.193  72.747  1.00  0.00    -0.196 OA 
BRANCH   3   4
HETATM    4  C   UNL     1     -10.867   7.944  71.709  1.00  0.00    -0.237 A  
HETATM    5  C   UNL     1     -10.803   7.428  70.405  1.00  0.00    -0.258 A  
HETATM    6  C   UNL     1     -11.246   8.226  69.334  1.00  0.00     0.215 A  
HETATM    7  C   UNL     1     -10.262   6.075  70.046  1.00  0.00    -0.205 C  
HETATM    8  C   UNL     1     -11.745   9.508  69.552  1.00  0.00     0.278 A  
HETATM    9  O   UNL     1     -10.139   5.701  68.887  1.00  0.00    -0.161 OA 
HETATM   10  O   UNL     1      -9.948   5.288  71.089  1.00  0.00    -0.182 OA 
HETATM   11  C   UNL     1     -11.836  10.015  70.852  1.00  0.00    -0.459 A  
HETATM   12  C   UNL     1     -11.433   9.211  71.922  1.00  0.00    -0.423 A  
BRANCH  11  13
HETATM   13  C   UNL     1     -12.359  11.405  71.111  1.00  0.00    -0.404 C  
BRANCH  13  14
HETATM   14  C   UNL     1     -11.898  12.420  70.084  1.00  0.00    -0.262 C  
HETATM   15  O   UNL     1     -12.554  13.442  69.887  1.00  0.00    -0.151 OA 
HETATM   16  N   UNL     1     -10.716  12.123  69.428  1.00  0.00    -0.448 N  
HETATM   17  H   UNL     1     -10.256  11.230  69.607  1.00  0.00     0.000 HD 
BRANCH  16  18
HETATM   18  C   UNL     1     -10.107  13.070  68.477  1.00  0.00    -0.192 C  
BRANCH  18  19
HETATM   19  C   UNL     1     -10.888  13.325  67.175  1.00  0.00    -0.268 A  
HETATM   20  C   UNL     1     -10.969  14.605  66.528  1.00  0.00    -0.318 A  
HETATM   21  C   UNL     1     -11.613  14.623  65.260  1.00  0.00    -0.354 A  
HETATM   22  C   UNL     1     -11.416  12.185  66.504  1.00  0.00    -0.430 A  
HETATM   23  C   UNL     1     -12.112  13.486  64.622  1.00  0.00    -0.450 A  
HETATM   24  C   UNL     1     -12.015  12.262  65.246  1.00  0.00    -0.391 A  
BRANCH  20  25
HETATM   25  N   UNL     1     -10.499  15.832  67.009  1.00  0.00    -0.304 NA 
HETATM   26  C   UNL     1      -9.768  16.760  66.116  1.00  0.00    -0.291 C  
HETATM   27  C   UNL     1     -10.329  18.176  66.288  1.00  0.00    -0.407 C  
HETATM   28  C   UNL     1     -10.203  18.636  67.736  1.00  0.00    -0.427 C  
HETATM   29  C   UNL     1     -10.867  17.636  68.663  1.00  0.00     0.002 C  
HETATM   30  C   UNL     1     -10.399  16.207  68.420  1.00  0.00    -0.257 C  
ENDBRANCH  20  25
ENDBRANCH  18  19
BRANCH  18  31
HETATM   31  C   UNL     1      -8.659  12.684  68.117  1.00  0.00    -0.188 C  
HETATM   32  C   UNL     1      -9.070  10.196  67.570  1.00  0.00    -0.143 C  
HETATM   33  C   UNL     1      -8.489  11.533  67.104  1.00  0.00    -0.158 C  
HETATM   34  C   UNL     1      -6.994  11.333  66.835  1.00  0.00    -0.137 C  
ENDBRANCH  18  31
ENDBRANCH  16  18
ENDBRANCH  13  14
ENDBRANCH  11  13
ENDBRANCH   3   4
ENDBRANCH   2   3
TORSDOF 8
ENDMDL
MODEL      231
REMARK 921   NORMALIZED FREE ENERGY PREDICTED BY IDOCK:   -4.03 KCAL/MOL
REMARK 922        TOTAL FREE ENERGY PREDICTED BY IDOCK:   -8.31 KCAL/MOL
REMARK 923 INTER-LIGAND FREE ENERGY PREDICTED BY IDOCK:   -6.97 KCAL/MOL
REMARK 924 INTRA-LIGAND FREE ENERGY PREDICTED BY IDOCK:   -1.34 KCAL/MOL
REMARK 927      BINDING AFFINITY PREDICTED BY RF-SCORE:    0.00 PKD
ROOT
HETATM    1  C   UNL     1     -10.977  15.164  66.345  1.00  0.00    -0.329 C  
HETATM    2  C   UNL     1     -11.319  15.078  67.815  1.00  0.00    -0.330 C  
ENDROOT
BRANCH   2   3
HETATM    3  O   UNL     1     -10.916  16.300  68.467  1.00  0.00    -0.311 OA 
BRANCH   3   4
HETATM    4  C   UNL     1      -9.564  16.417  68.679  1.00  0.00    -0.240 A  
HETATM    5  C   UNL     1      -8.924  17.619  68.340  1.00  0.00    -0.280 A  
HETATM    6  C   UNL     1      -7.528  17.715  68.494  1.00  0.00    -0.269 A  
HETATM    7  C   UNL     1      -9.616  18.831  67.788  1.00  0.00    -0.312 C  
HETATM    8  C   UNL     1      -6.784  16.641  68.976  1.00  0.00    -0.202 A  
HETATM    9  O   UNL     1      -9.006  19.827  67.419  1.00  0.00    -0.304 OA 
HETATM   10  O   UNL     1     -10.957  18.758  67.753  1.00  0.00    -0.341 OA 
HETATM   11  C   UNL     1      -7.421  15.451  69.340  1.00  0.00    -0.218 A  
HETATM   12  C   UNL     1      -8.812  15.365  69.226  1.00  0.00    -0.258 A  
BRANCH  11  13
HETATM   13  C   UNL     1      -6.635  14.271  69.851  1.00  0.00    -0.109 C  
BRANCH  13  14
HETATM   14  C   UNL     1      -6.599  13.108  68.879  1.00  0.00    -0.104 C  
HETATM   15  O   UNL     1      -5.944  13.189  67.841  1.00  0.00    -0.106 OA 
HETATM   16  N   UNL     1      -7.318  11.985  69.252  1.00  0.00    -0.331 N  
HETATM   17  H   UNL     1      -7.880  12.012  70.103  1.00  0.00     0.000 HD 
BRANCH  16  18
HETATM   18  C   UNL     1      -7.288  10.751  68.446  1.00  0.00    -0.092 C  
BRANCH  18  19
HETATM   19  C   UNL     1      -8.441  10.564  67.444  1.00  0.00    -0.122 A  
HETATM   20  C   UNL     1      -9.773  10.181  67.819  1.00  0.00    -0.153 A  
HETATM   21  C   UNL     1     -10.743  10.196  66.779  1.00  0.00    -0.191 A  
HETATM   22  C   UNL     1      -8.196  10.955  66.095  1.00  0.00    -0.168 A  
HETATM   23  C   UNL     1     -10.476  10.594  65.468  1.00  0.00    -0.246 A  
HETATM   24  C   UNL     1      -9.197  10.973  65.123  1.00  0.00    -0.227 A  
BRANCH  20  25
HETATM   25  N   UNL     1     -10.219   9.784  69.085  1.00  0.00    -0.188 NA 
HETATM   26  C   UNL     1     -10.717  10.786  70.055  1.00  0.00    -0.078 C  
HETATM   27  C   UNL     1     -12.032  10.289  70.666  1.00  0.00    -0.436 C  
HETATM   28  C   UNL     1     -11.833   8.945  71.358  1.00  0.00    -0.383 C  
HETATM   29  C   UNL     1     -11.231   7.942  70.392  1.00  0.00    -0.240 C  
HETATM   30  C   UNL     1      -9.987   8.474  69.693  1.00  0.00    -0.192 C  
ENDBRANCH  20  25
ENDBRANCH  18  19
BRANCH  18  31
HETATM   31  C   UNL     1      -7.183   9.486  69.320  1.00  0.00    -0.063 C  
HETATM   32  C   UNL     1      -6.710   7.783  67.441  1.00  0.00    -0.068 C  
HETATM   33  C   UNL     1      -6.272   8.361  68.789  1.00  0.00    -0.045 C  
HETATM   34  C   UNL     1      -6.255   7.220  69.812  1.00  0.00    -0.031 C  
ENDBRANCH  18  31
ENDBRANCH  16  18
ENDBRANCH  13  14
ENDBRANCH  11  13
ENDBRANCH   3   4
ENDBRANCH   2   3
TORSDOF 8
ENDMDL
MODEL      232
REMARK 921   NORMALIZED FREE ENERGY PREDICTED BY IDOCK:   -4.02 KCAL/MOL
REMARK 922        TOTAL FREE ENERGY PREDICTED BY IDOCK:   -8.30 KCAL/MOL
REMARK 923 INTER-LIGAND FREE ENERGY PREDICTED BY IDOCK:   -5.86 KCAL/MOL
REMARK 924 INTRA-LIGAND FREE ENERGY PREDICTED BY IDOCK:   -2.43 KCAL/MOL
REMARK 927      BINDING AFFINITY PREDICTED BY RF-SCORE:    0.00 PKD
ROOT
HETATM    1  C   UNL     1      -9.680   4.396  68.826  1.00  0.00    -0.200 C  
HETATM    2  C   UNL     1      -8.575   5.241  68.235  1.00  0.00    -0.099 C  
ENDROOT
BRANCH   2   3
HETATM    3  O   UNL     1      -7.583   5.499  69.250  1.00  0.00    -0.082 OA 
BRANCH   3   4
HETATM    4  C   UNL     1      -8.044   6.202  70.335  1.00  0.00    -0.112 A  
HETATM    5  C   UNL     1      -7.929   5.634  71.613  1.00  0.00    -0.117 A  
HETATM    6  C   UNL     1      -8.463   6.324  72.717  1.00  0.00    -0.122 A  
HETATM    7  C   UNL     1      -7.293   4.306  71.905  1.00  0.00    -0.068 C  
HETATM    8  C   UNL     1      -9.095   7.555  72.556  1.00  0.00    -0.189 A  
HETATM    9  O   UNL     1      -7.297   3.805  73.022  1.00  0.00    -0.056 OA 
HETATM   10  O   UNL     1      -6.694   3.715  70.857  1.00  0.00    -0.030 OA 
HETATM   11  C   UNL     1      -9.188   8.138  71.289  1.00  0.00    -0.193 A  
HETATM   12  C   UNL     1      -8.624   7.473  70.195  1.00  0.00    -0.141 A  
BRANCH  11  13
HETATM   13  C   UNL     1      -9.880   9.461  71.088  1.00  0.00    -0.287 C  
BRANCH  13  14
HETATM   14  C   UNL     1     -10.269   9.723  69.646  1.00  0.00    -0.233 C  
HETATM   15  O   UNL     1     -11.015   8.943  69.055  1.00  0.00    -0.102 OA 
HETATM   16  N   UNL     1      -9.753  10.877  69.081  1.00  0.00    -0.360 N  
HETATM   17  H   UNL     1      -9.099  11.446  69.617  1.00  0.00     0.000 HD 
BRANCH  16  18
HETATM   18  C   UNL     1     -10.130  11.299  67.720  1.00  0.00    -0.179 C  
BRANCH  18  19
HETATM   19  C   UNL     1      -9.229  10.798  66.577  1.00  0.00    -0.187 A  
HETATM   20  C   UNL     1      -7.798  10.719  66.663  1.00  0.00    -0.140 A  
HETATM   21  C   UNL     1      -7.141  10.098  65.564  1.00  0.00    -0.138 A  
HETATM   22  C   UNL     1      -9.878  10.234  65.441  1.00  0.00    -0.362 A  
HETATM   23  C   UNL     1      -7.805   9.544  64.469  1.00  0.00    -0.126 A  
HETATM   24  C   UNL     1      -9.180   9.614  64.405  1.00  0.00    -0.258 A  
BRANCH  20  25
HETATM   25  N   UNL     1      -6.980  11.193  67.694  1.00  0.00    -0.081 NA 
HETATM   26  C   UNL     1      -6.540  12.607  67.716  1.00  0.00    -0.130 C  
HETATM   27  C   UNL     1      -6.744  13.180  69.123  1.00  0.00    -0.089 C  
HETATM   28  C   UNL     1      -5.962  12.373  70.154  1.00  0.00    -0.143 C  
HETATM   29  C   UNL     1      -6.339  10.906  70.067  1.00  0.00    -0.142 C  
HETATM   30  C   UNL     1      -6.251  10.359  68.649  1.00  0.00    -0.047 C  
ENDBRANCH  20  25
ENDBRANCH  18  19
BRANCH  18  31
HETATM   31  C   UNL     1     -10.271  12.829  67.603  1.00  0.00    -0.219 C  
HETATM   32  C   UNL     1     -12.188  12.888  65.877  1.00  0.00    -0.469 C  
HETATM   33  C   UNL     1     -11.672  13.362  67.238  1.00  0.00    -0.424 C  
HETATM   34  C   UNL     1     -11.625  14.893  67.221  1.00  0.00    -0.337 C  
ENDBRANCH  18  31
ENDBRANCH  16  18
ENDBRANCH  13  14
ENDBRANCH  11  13
ENDBRANCH   3   4
ENDBRANCH   2   3
TORSDOF 8
ENDMDL
MODEL      233
REMARK 921   NORMALIZED FREE ENERGY PREDICTED BY IDOCK:   -4.02 KCAL/MOL
REMARK 922        TOTAL FREE ENERGY PREDICTED BY IDOCK:   -8.30 KCAL/MOL
REMARK 923 INTER-LIGAND FREE ENERGY PREDICTED BY IDOCK:   -7.41 KCAL/MOL
REMARK 924 INTRA-LIGAND FREE ENERGY PREDICTED BY IDOCK:   -0.88 KCAL/MOL
REMARK 927      BINDING AFFINITY PREDICTED BY RF-SCORE:    0.00 PKD
ROOT
HETATM    1  C   UNL     1     -12.270  12.962  70.633  1.00  0.00    -0.386 C  
HETATM    2  C   UNL     1     -12.136  13.073  69.131  1.00  0.00    -0.187 C  
ENDROOT
BRANCH   2   3
HETATM    3  O   UNL     1     -11.975  11.753  68.572  1.00  0.00    -0.406 OA 
BRANCH   3   4
HETATM    4  C   UNL     1     -10.926  11.036  69.091  1.00  0.00    -0.237 A  
HETATM    5  C   UNL     1      -9.670  11.124  68.471  1.00  0.00    -0.196 A  
HETATM    6  C   UNL     1      -8.611  10.336  68.962  1.00  0.00    -0.162 A  
HETATM    7  C   UNL     1      -9.360  11.986  67.283  1.00  0.00    -0.180 C  
HETATM    8  C   UNL     1      -8.795   9.482  70.046  1.00  0.00    -0.246 A  
HETATM    9  O   UNL     1      -8.275  11.962  66.716  1.00  0.00    -0.170 OA 
HETATM   10  O   UNL     1     -10.350  12.810  66.899  1.00  0.00    -0.236 OA 
HETATM   11  C   UNL     1     -10.037   9.413  70.684  1.00  0.00    -0.356 A  
HETATM   12  C   UNL     1     -11.080  10.222  70.224  1.00  0.00    -0.388 A  
BRANCH  11  13
HETATM   13  C   UNL     1     -10.264   8.485  71.850  1.00  0.00    -0.369 C  
BRANCH  13  14
HETATM   14  C   UNL     1      -9.303   7.312  71.879  1.00  0.00    -0.137 C  
HETATM   15  O   UNL     1      -8.177   7.446  72.355  1.00  0.00    -0.098 OA 
HETATM   16  N   UNL     1      -9.789   6.121  71.365  1.00  0.00    -0.174 N  
HETATM   17  H   UNL     1     -10.715   6.102  70.938  1.00  0.00     0.000 HD 
BRANCH  16  18
HETATM   18  C   UNL     1      -8.994   4.881  71.421  1.00  0.00    -0.134 C  
BRANCH  18  19
HETATM   19  C   UNL     1      -9.186   3.896  70.255  1.00  0.00    -0.215 A  
HETATM   20  C   UNL     1      -9.369   4.299  68.888  1.00  0.00    -0.158 A  
HETATM   21  C   UNL     1      -9.387   3.251  67.926  1.00  0.00    -0.246 A  
HETATM   22  C   UNL     1      -9.006   2.511  70.541  1.00  0.00    -0.160 A  
HETATM   23  C   UNL     1      -9.198   1.903  68.236  1.00  0.00    -0.232 A  
HETATM   24  C   UNL     1      -9.009   1.531  69.549  1.00  0.00    -0.132 A  
BRANCH  20  25
HETATM   25  N   UNL     1      -9.543   5.599  68.401  1.00  0.00    -0.121 NA 
HETATM   26  C   UNL     1      -8.372   6.454  68.103  1.00  0.00    -0.116 C  
HETATM   27  C   UNL     1      -8.560   7.113  66.732  1.00  0.00    -0.124 C  
HETATM   28  C   UNL     1      -9.837   7.946  66.703  1.00  0.00    -0.311 C  
HETATM   29  C   UNL     1     -11.027   7.095  67.103  1.00  0.00    -0.342 C  
HETATM   30  C   UNL     1     -10.801   6.345  68.409  1.00  0.00    -0.311 C  
ENDBRANCH  20  25
ENDBRANCH  18  19
BRANCH  18  31
HETATM   31  C   UNL     1      -9.193   4.122  72.747  1.00  0.00    -0.137 C  
HETATM   32  C   UNL     1     -11.591   4.917  73.266  1.00  0.00    -0.276 C  
HETATM   33  C   UNL     1     -10.642   3.729  73.100  1.00  0.00    -0.268 C  
HETATM   34  C   UNL     1     -10.630   2.943  74.415  1.00  0.00    -0.205 C  
ENDBRANCH  18  31
ENDBRANCH  16  18
ENDBRANCH  13  14
ENDBRANCH  11  13
ENDBRANCH   3   4
ENDBRANCH   2   3
TORSDOF 8
ENDMDL
MODEL      234
REMARK 921   NORMALIZED FREE ENERGY PREDICTED BY IDOCK:   -4.00 KCAL/MOL
REMARK 922        TOTAL FREE ENERGY PREDICTED BY IDOCK:   -8.27 KCAL/MOL
REMARK 923 INTER-LIGAND FREE ENERGY PREDICTED BY IDOCK:   -5.62 KCAL/MOL
REMARK 924 INTRA-LIGAND FREE ENERGY PREDICTED BY IDOCK:   -2.65 KCAL/MOL
REMARK 927      BINDING AFFINITY PREDICTED BY RF-SCORE:    0.00 PKD
ROOT
HETATM    1  C   UNL     1     -10.976   6.650  67.068  1.00  0.00    -0.463 C  
HETATM    2  C   UNL     1     -10.662   5.867  68.323  1.00  0.00    -0.243 C  
ENDROOT
BRANCH   2   3
HETATM    3  O   UNL     1     -11.343   6.471  69.441  1.00  0.00    -0.354 OA 
BRANCH   3   4
HETATM    4  C   UNL     1     -10.527   7.157  70.306  1.00  0.00    -0.217 A  
HETATM    5  C   UNL     1     -11.108   7.888  71.354  1.00  0.00    -0.275 A  
HETATM    6  C   UNL     1     -10.276   8.646  72.199  1.00  0.00    -0.394 A  
HETATM    7  C   UNL     1     -12.580   7.954  71.638  1.00  0.00    -0.321 C  
HETATM    8  C   UNL     1      -8.896   8.675  72.010  1.00  0.00    -0.264 A  
HETATM    9  O   UNL     1     -13.052   8.678  72.506  1.00  0.00    -0.363 OA 
HETATM   10  O   UNL     1     -13.344   7.139  70.891  1.00  0.00    -0.184 OA 
HETATM   11  C   UNL     1      -8.311   7.927  70.984  1.00  0.00    -0.112 A  
HETATM   12  C   UNL     1      -9.130   7.142  70.167  1.00  0.00    -0.152 A  
BRANCH  11  13
HETATM   13  C   UNL     1      -6.822   7.954  70.752  1.00  0.00    -0.041 C  
BRANCH  13  14
HETATM   14  C   UNL     1      -6.439   8.464  69.376  1.00  0.00    -0.038 C  
HETATM   15  O   UNL     1      -5.817   7.742  68.600  1.00  0.00    -0.029 OA 
HETATM   16  N   UNL     1      -6.850   9.752  69.073  1.00  0.00    -0.049 N  
HETATM   17  H   UNL     1      -7.316  10.309  69.789  1.00  0.00     0.000 HD 
BRANCH  16  18
HETATM   18  C   UNL     1      -6.628  10.333  67.737  1.00  0.00    -0.066 C  
BRANCH  18  19
HETATM   19  C   UNL     1      -6.603  11.870  67.658  1.00  0.00    -0.099 A  
HETATM   20  C   UNL     1      -7.773  12.695  67.765  1.00  0.00    -0.145 A  
HETATM   21  C   UNL     1      -7.544  14.098  67.814  1.00  0.00    -0.175 A  
HETATM   22  C   UNL     1      -5.323  12.497  67.642  1.00  0.00    -0.111 A  
HETATM   23  C   UNL     1      -6.278  14.684  67.806  1.00  0.00    -0.154 A  
HETATM   24  C   UNL     1      -5.162  13.880  67.718  1.00  0.00    -0.013 A  
BRANCH  20  25
HETATM   25  N   UNL     1      -9.108  12.277  67.814  1.00  0.00    -0.183 NA 
HETATM   26  C   UNL     1     -10.038  12.601  66.709  1.00  0.00    -0.237 C  
HETATM   27  C   UNL     1     -10.825  11.343  66.323  1.00  0.00    -0.318 C  
HETATM   28  C   UNL     1     -11.601  10.802  67.518  1.00  0.00    -0.011 C  
HETATM   29  C   UNL     1     -10.663  10.561  68.686  1.00  0.00    -0.247 C  
HETATM   30  C   UNL     1      -9.794  11.771  69.002  1.00  0.00     0.100 C  
ENDBRANCH  20  25
ENDBRANCH  18  19
BRANCH  18  31
HETATM   31  C   UNL     1      -7.632   9.801  66.696  1.00  0.00    -0.098 C  
HETATM   32  C   UNL     1      -6.156  10.062  64.597  1.00  0.00    -0.116 C  
HETATM   33  C   UNL     1      -7.030   9.134  65.443  1.00  0.00    -0.081 C  
HETATM   34  C   UNL     1      -8.176   8.627  64.560  1.00  0.00    -0.166 C  
ENDBRANCH  18  31
ENDBRANCH  16  18
ENDBRANCH  13  14
ENDBRANCH  11  13
ENDBRANCH   3   4
ENDBRANCH   2   3
TORSDOF 8
ENDMDL
MODEL      235
REMARK 921   NORMALIZED FREE ENERGY PREDICTED BY IDOCK:   -3.98 KCAL/MOL
REMARK 922        TOTAL FREE ENERGY PREDICTED BY IDOCK:   -8.24 KCAL/MOL
REMARK 923 INTER-LIGAND FREE ENERGY PREDICTED BY IDOCK:   -6.36 KCAL/MOL
REMARK 924 INTRA-LIGAND FREE ENERGY PREDICTED BY IDOCK:   -1.88 KCAL/MOL
REMARK 927      BINDING AFFINITY PREDICTED BY RF-SCORE:    0.00 PKD
ROOT
HETATM    1  C   UNL     1     -11.282   6.158  69.242  1.00  0.00    -0.438 C  
HETATM    2  C   UNL     1     -10.214   6.257  68.176  1.00  0.00    -0.169 C  
ENDROOT
BRANCH   2   3
HETATM    3  O   UNL     1      -8.964   5.778  68.714  1.00  0.00    -0.116 OA 
BRANCH   3   4
HETATM    4  C   UNL     1      -8.158   6.754  69.245  1.00  0.00    -0.120 A  
HETATM    5  C   UNL     1      -7.702   6.616  70.565  1.00  0.00    -0.104 A  
HETATM    6  C   UNL     1      -6.932   7.649  71.132  1.00  0.00    -0.050 A  
HETATM    7  C   UNL     1      -7.997   5.443  71.454  1.00  0.00    -0.115 C  
HETATM    8  C   UNL     1      -6.618   8.793  70.403  1.00  0.00    -0.042 A  
HETATM    9  O   UNL     1      -7.658   5.406  72.630  1.00  0.00    -0.095 OA 
HETATM   10  O   UNL     1      -8.639   4.422  70.861  1.00  0.00    -0.089 OA 
HETATM   11  C   UNL     1      -7.047   8.923  69.078  1.00  0.00    -0.064 A  
HETATM   12  C   UNL     1      -7.779   7.882  68.499  1.00  0.00    -0.114 A  
BRANCH  11  13
HETATM   13  C   UNL     1      -6.732  10.158  68.275  1.00  0.00    -0.054 C  
BRANCH  13  14
HETATM   14  C   UNL     1      -7.739  11.275  68.472  1.00  0.00    -0.131 C  
HETATM   15  O   UNL     1      -8.291  11.425  69.561  1.00  0.00     0.282 OA 
HETATM   16  N   UNL     1      -7.958  12.092  67.376  1.00  0.00    -0.156 N  
HETATM   17  H   UNL     1      -7.503  11.872  66.490  1.00  0.00     0.000 HD 
BRANCH  16  18
HETATM   18  C   UNL     1      -8.838  13.272  67.462  1.00  0.00    -0.206 C  
BRANCH  18  19
HETATM   19  C   UNL     1     -10.126  13.224  66.622  1.00  0.00    -0.266 A  
HETATM   20  C   UNL     1     -11.017  14.339  66.459  1.00  0.00    -0.316 A  
HETATM   21  C   UNL     1     -12.081  14.157  65.533  1.00  0.00    -0.421 A  
HETATM   22  C   UNL     1     -10.346  12.054  65.840  1.00  0.00    -0.278 A  
HETATM   23  C   UNL     1     -12.265  13.002  64.772  1.00  0.00    -0.487 A  
HETATM   24  C   UNL     1     -11.395  11.944  64.927  1.00  0.00    -0.337 A  
BRANCH  20  25
HETATM   25  N   UNL     1     -10.963  15.574  67.116  1.00  0.00    -0.317 NA 
HETATM   26  C   UNL     1     -11.434  15.703  68.514  1.00  0.00    -0.375 C  
HETATM   27  C   UNL     1     -10.398  16.486  69.327  1.00  0.00    -0.318 C  
HETATM   28  C   UNL     1     -10.167  17.867  68.723  1.00  0.00    -0.362 C  
HETATM   29  C   UNL     1      -9.778  17.742  67.262  1.00  0.00    -0.285 C  
HETATM   30  C   UNL     1     -10.742  16.868  66.471  1.00  0.00    -0.087 C  
ENDBRANCH  20  25
ENDBRANCH  18  19
BRANCH  18  31
HETATM   31  C   UNL     1      -8.088  14.581  67.144  1.00  0.00    -0.196 C  
HETATM   32  C   UNL     1      -6.967  14.927  69.442  1.00  0.00    -0.170 C  
HETATM   33  C   UNL     1      -6.782  14.829  67.926  1.00  0.00    -0.177 C  
HETATM   34  C   UNL     1      -6.161  16.142  67.438  1.00  0.00    -0.187 C  
ENDBRANCH  18  31
ENDBRANCH  16  18
ENDBRANCH  13  14
ENDBRANCH  11  13
ENDBRANCH   3   4
ENDBRANCH   2   3
TORSDOF 8
ENDMDL
MODEL      236
REMARK 921   NORMALIZED FREE ENERGY PREDICTED BY IDOCK:   -3.97 KCAL/MOL
REMARK 922        TOTAL FREE ENERGY PREDICTED BY IDOCK:   -8.23 KCAL/MOL
REMARK 923 INTER-LIGAND FREE ENERGY PREDICTED BY IDOCK:   -8.44 KCAL/MOL
REMARK 924 INTRA-LIGAND FREE ENERGY PREDICTED BY IDOCK:    0.21 KCAL/MOL
REMARK 927      BINDING AFFINITY PREDICTED BY RF-SCORE:    0.00 PKD
ROOT
HETATM    1  C   UNL     1     -10.002  19.798  67.020  1.00  0.00    -0.532 C  
HETATM    2  C   UNL     1     -10.778  18.831  66.155  1.00  0.00    -0.257 C  
ENDROOT
BRANCH   2   3
HETATM    3  O   UNL     1      -9.860  17.895  65.553  1.00  0.00    -0.403 OA 
BRANCH   3   4
HETATM    4  C   UNL     1      -9.736  16.704  66.225  1.00  0.00    -0.304 A  
HETATM    5  C   UNL     1      -8.457  16.269  66.608  1.00  0.00    -0.306 A  
HETATM    6  C   UNL     1      -8.322  15.017  67.235  1.00  0.00    -0.228 A  
HETATM    7  C   UNL     1      -7.187  17.034  66.372  1.00  0.00    -0.276 C  
HETATM    8  C   UNL     1      -9.433  14.214  67.481  1.00  0.00    -0.210 A  
HETATM    9  O   UNL     1      -6.083  16.576  66.639  1.00  0.00    -0.307 OA 
HETATM   10  O   UNL     1      -7.348  18.271  65.872  1.00  0.00    -0.403 OA 
HETATM   11  C   UNL     1     -10.712  14.655  67.127  1.00  0.00    -0.292 A  
HETATM   12  C   UNL     1     -10.854  15.915  66.538  1.00  0.00    -0.198 A  
BRANCH  11  13
HETATM   13  C   UNL     1     -11.927  13.797  67.370  1.00  0.00    -0.423 C  
BRANCH  13  14
HETATM   14  C   UNL     1     -11.594  12.433  67.941  1.00  0.00    -0.356 C  
HETATM   15  O   UNL     1     -11.938  11.413  67.347  1.00  0.00    -0.606 OA 
HETATM   16  N   UNL     1     -10.880  12.433  69.128  1.00  0.00    -0.423 N  
HETATM   17  H   UNL     1     -10.676  13.319  69.589  1.00  0.00     0.000 HD 
BRANCH  16  18
HETATM   18  C   UNL     1     -10.408  11.177  69.739  1.00  0.00     0.267 C  
BRANCH  18  19
HETATM   19  C   UNL     1      -9.350  10.389  68.946  1.00  0.00    -0.190 A  
HETATM   20  C   UNL     1      -9.044   9.005  69.176  1.00  0.00    -0.140 A  
HETATM   21  C   UNL     1      -8.142   8.404  68.255  1.00  0.00    -0.120 A  
HETATM   22  C   UNL     1      -8.769  11.040  67.819  1.00  0.00    -0.130 A  
HETATM   23  C   UNL     1      -7.596   9.064  67.153  1.00  0.00    -0.091 A  
HETATM   24  C   UNL     1      -7.909  10.389  66.935  1.00  0.00    -0.114 A  
BRANCH  20  25
HETATM   25  N   UNL     1      -9.521   8.188  70.208  1.00  0.00    -0.169 NA 
HETATM   26  C   UNL     1      -9.015   8.349  71.589  1.00  0.00    -0.199 C  
HETATM   27  C   UNL     1     -10.198   8.365  72.564  1.00  0.00    -0.369 C  
HETATM   28  C   UNL     1     -11.009   7.079  72.451  1.00  0.00    -0.282 C  
HETATM   29  C   UNL     1     -11.448   6.861  71.015  1.00  0.00    -0.358 C  
HETATM   30  C   UNL     1     -10.293   6.959  70.027  1.00  0.00    -0.200 C  
ENDBRANCH  20  25
ENDBRANCH  18  19
BRANCH  18  31
HETATM   31  C   UNL     1     -11.571  10.227  70.089  1.00  0.00    -0.376 C  
HETATM   32  C   UNL     1     -12.663  11.656  71.939  1.00  0.00    -0.233 C  
HETATM   33  C   UNL     1     -12.856  10.889  70.629  1.00  0.00    -0.340 C  
HETATM   34  C   UNL     1     -13.905   9.798  70.867  1.00  0.00     0.126 C  
ENDBRANCH  18  31
ENDBRANCH  16  18
ENDBRANCH  13  14
ENDBRANCH  11  13
ENDBRANCH   3   4
ENDBRANCH   2   3
TORSDOF 8
ENDMDL
MODEL      237
REMARK 921   NORMALIZED FREE ENERGY PREDICTED BY IDOCK:   -3.97 KCAL/MOL
REMARK 922        TOTAL FREE ENERGY PREDICTED BY IDOCK:   -8.22 KCAL/MOL
REMARK 923 INTER-LIGAND FREE ENERGY PREDICTED BY IDOCK:   -5.30 KCAL/MOL
REMARK 924 INTRA-LIGAND FREE ENERGY PREDICTED BY IDOCK:   -2.92 KCAL/MOL
REMARK 927      BINDING AFFINITY PREDICTED BY RF-SCORE:    0.00 PKD
ROOT
HETATM    1  C   UNL     1      -5.856   2.695  68.646  1.00  0.00    -0.023 C  
HETATM    2  C   UNL     1      -6.278   3.775  67.675  1.00  0.00    -0.036 C  
ENDROOT
BRANCH   2   3
HETATM    3  O   UNL     1      -7.612   3.492  67.204  1.00  0.00    -0.077 OA 
BRANCH   3   4
HETATM    4  C   UNL     1      -8.476   4.557  67.260  1.00  0.00    -0.104 A  
HETATM    5  C   UNL     1      -9.514   4.642  66.319  1.00  0.00    -0.167 A  
HETATM    6  C   UNL     1     -10.358   5.768  66.334  1.00  0.00    -0.207 A  
HETATM    7  C   UNL     1      -9.789   3.620  65.254  1.00  0.00    -0.106 C  
HETATM    8  C   UNL     1     -10.178   6.787  67.265  1.00  0.00    -0.271 A  
HETATM    9  O   UNL     1     -10.647   3.779  64.395  1.00  0.00    -0.246 OA 
HETATM   10  O   UNL     1      -9.044   2.504  65.325  1.00  0.00    -0.132 OA 
HETATM   11  C   UNL     1      -9.163   6.694  68.222  1.00  0.00    -0.121 A  
HETATM   12  C   UNL     1      -8.347   5.559  68.235  1.00  0.00    -0.098 A  
BRANCH  11  13
HETATM   13  C   UNL     1      -8.940   7.792  69.231  1.00  0.00    -0.139 C  
BRANCH  13  14
HETATM   14  C   UNL     1      -9.411   9.151  68.752  1.00  0.00    -0.147 C  
HETATM   15  O   UNL     1     -10.427   9.656  69.227  1.00  0.00    -0.200 OA 
HETATM   16  N   UNL     1      -8.623   9.760  67.790  1.00  0.00    -0.125 N  
HETATM   17  H   UNL     1      -7.824   9.256  67.406  1.00  0.00     0.000 HD 
BRANCH  16  18
HETATM   18  C   UNL     1      -8.914  11.123  67.310  1.00  0.00    -0.147 C  
BRANCH  18  19
HETATM   19  C   UNL     1      -9.553  11.232  65.915  1.00  0.00    -0.249 A  
HETATM   20  C   UNL     1      -9.117  10.477  64.774  1.00  0.00    -0.211 A  
HETATM   21  C   UNL     1      -9.915  10.599  63.603  1.00  0.00    -0.364 A  
HETATM   22  C   UNL     1     -10.744  12.007  65.807  1.00  0.00    -0.319 A  
HETATM   23  C   UNL     1     -11.084  11.359  63.530  1.00  0.00    -0.373 A  
HETATM   24  C   UNL     1     -11.500  12.068  64.636  1.00  0.00    -0.371 A  
BRANCH  20  25
HETATM   25  N   UNL     1      -7.993   9.648  64.682  1.00  0.00    -0.127 NA 
HETATM   26  C   UNL     1      -6.660  10.219  64.387  1.00  0.00    -0.076 C  
HETATM   27  C   UNL     1      -5.629   9.630  65.356  1.00  0.00    -0.055 C  
HETATM   28  C   UNL     1      -5.585   8.110  65.240  1.00  0.00    -0.043 C  
HETATM   29  C   UNL     1      -6.971   7.528  65.446  1.00  0.00    -0.059 C  
HETATM   30  C   UNL     1      -8.023   8.190  64.566  1.00  0.00    -0.142 C  
ENDBRANCH  20  25
ENDBRANCH  18  19
BRANCH  18  31
HETATM   31  C   UNL     1      -7.672  12.035  67.357  1.00  0.00    -0.162 C  
HETATM   32  C   UNL     1      -8.784  14.113  68.406  1.00  0.00    -0.178 C  
HETATM   33  C   UNL     1      -7.644  13.096  68.477  1.00  0.00    -0.122 C  
HETATM   34  C   UNL     1      -6.319  13.862  68.393  1.00  0.00    -0.104 C  
ENDBRANCH  18  31
ENDBRANCH  16  18
ENDBRANCH  13  14
ENDBRANCH  11  13
ENDBRANCH   3   4
ENDBRANCH   2   3
TORSDOF 8
ENDMDL
MODEL      238
REMARK 921   NORMALIZED FREE ENERGY PREDICTED BY IDOCK:   -3.96 KCAL/MOL
REMARK 922        TOTAL FREE ENERGY PREDICTED BY IDOCK:   -8.21 KCAL/MOL
REMARK 923 INTER-LIGAND FREE ENERGY PREDICTED BY IDOCK:   -7.34 KCAL/MOL
REMARK 924 INTRA-LIGAND FREE ENERGY PREDICTED BY IDOCK:   -0.87 KCAL/MOL
REMARK 927      BINDING AFFINITY PREDICTED BY RF-SCORE:    0.00 PKD
ROOT
HETATM    1  C   UNL     1     -10.320  11.091  69.589  1.00  0.00     0.001 C  
HETATM    2  C   UNL     1     -11.779  11.051  69.191  1.00  0.00    -0.333 C  
ENDROOT
BRANCH   2   3
HETATM    3  O   UNL     1     -11.905  11.458  67.813  1.00  0.00    -0.595 OA 
BRANCH   3   4
HETATM    4  C   UNL     1     -10.973  10.909  66.967  1.00  0.00    -0.247 A  
HETATM    5  C   UNL     1     -10.355  11.730  66.011  1.00  0.00    -0.276 A  
HETATM    6  C   UNL     1      -9.451  11.154  65.100  1.00  0.00    -0.257 A  
HETATM    7  C   UNL     1     -10.604  13.203  65.859  1.00  0.00    -0.280 C  
HETATM    8  C   UNL     1      -9.164   9.792  65.137  1.00  0.00    -0.297 A  
HETATM    9  O   UNL     1     -10.113  13.863  64.951  1.00  0.00    -0.369 OA 
HETATM   10  O   UNL     1     -11.383  13.753  66.805  1.00  0.00    -0.311 OA 
HETATM   11  C   UNL     1      -9.757   8.975  66.105  1.00  0.00    -0.354 A  
HETATM   12  C   UNL     1     -10.626   9.551  67.037  1.00  0.00    -0.271 A  
BRANCH  11  13
HETATM   13  C   UNL     1      -9.474   7.495  66.156  1.00  0.00    -0.095 C  
BRANCH  13  14
HETATM   14  C   UNL     1     -10.016   6.823  67.403  1.00  0.00    -0.148 C  
HETATM   15  O   UNL     1     -11.185   6.442  67.441  1.00  0.00    -0.352 OA 
HETATM   16  N   UNL     1      -9.116   6.662  68.443  1.00  0.00    -0.126 N  
HETATM   17  H   UNL     1      -8.178   7.052  68.356  1.00  0.00     0.000 HD 
BRANCH  16  18
HETATM   18  C   UNL     1      -9.487   5.938  69.672  1.00  0.00    -0.143 C  
BRANCH  18  19
HETATM   19  C   UNL     1      -9.365   4.404  69.623  1.00  0.00    -0.228 A  
HETATM   20  C   UNL     1      -9.262   3.572  70.789  1.00  0.00    -0.134 A  
HETATM   21  C   UNL     1      -9.301   2.169  70.558  1.00  0.00    -0.192 A  
HETATM   22  C   UNL     1      -9.528   3.783  68.351  1.00  0.00    -0.211 A  
HETATM   23  C   UNL     1      -9.473   1.588  69.301  1.00  0.00    -0.146 A  
HETATM   24  C   UNL     1      -9.585   2.398  68.191  1.00  0.00    -0.100 A  
BRANCH  20  25
HETATM   25  N   UNL     1      -9.115   3.985  72.118  1.00  0.00    -0.117 NA 
HETATM   26  C   UNL     1      -7.768   4.195  72.695  1.00  0.00    -0.079 C  
HETATM   27  C   UNL     1      -7.743   5.529  73.450  1.00  0.00    -0.096 C  
HETATM   28  C   UNL     1      -8.794   5.545  74.555  1.00  0.00    -0.117 C  
HETATM   29  C   UNL     1     -10.163   5.233  73.980  1.00  0.00    -0.273 C  
HETATM   30  C   UNL     1     -10.169   3.968  73.131  1.00  0.00    -0.155 C  
ENDBRANCH  20  25
ENDBRANCH  18  19
BRANCH  18  31
HETATM   31  C   UNL     1     -10.903   6.305  70.159  1.00  0.00    -0.375 C  
HETATM   32  C   UNL     1     -10.242   8.130  71.859  1.00  0.00    -0.289 C  
HETATM   33  C   UNL     1     -11.103   7.753  70.652  1.00  0.00    -0.264 C  
HETATM   34  C   UNL     1     -12.573   7.939  71.041  1.00  0.00    -0.111 C  
ENDBRANCH  18  31
ENDBRANCH  16  18
ENDBRANCH  13  14
ENDBRANCH  11  13
ENDBRANCH   3   4
ENDBRANCH   2   3
TORSDOF 8
ENDMDL
MODEL      239
REMARK 921   NORMALIZED FREE ENERGY PREDICTED BY IDOCK:   -3.94 KCAL/MOL
REMARK 922        TOTAL FREE ENERGY PREDICTED BY IDOCK:   -8.18 KCAL/MOL
REMARK 923 INTER-LIGAND FREE ENERGY PREDICTED BY IDOCK:   -6.81 KCAL/MOL
REMARK 924 INTRA-LIGAND FREE ENERGY PREDICTED BY IDOCK:   -1.37 KCAL/MOL
REMARK 927      BINDING AFFINITY PREDICTED BY RF-SCORE:    0.00 PKD
ROOT
HETATM    1  C   UNL     1     -10.702  12.845  64.009  1.00  0.00    -0.429 C  
HETATM    2  C   UNL     1     -10.716  12.681  65.512  1.00  0.00    -0.274 C  
ENDROOT
BRANCH   2   3
HETATM    3  O   UNL     1     -10.967  13.962  66.125  1.00  0.00    -0.291 OA 
BRANCH   3   4
HETATM    4  C   UNL     1     -11.349  13.901  67.442  1.00  0.00    -0.326 A  
HETATM    5  C   UNL     1     -11.270  15.061  68.229  1.00  0.00    -0.309 A  
HETATM    6  C   UNL     1     -11.597  14.983  69.595  1.00  0.00    -0.333 A  
HETATM    7  C   UNL     1     -10.828  16.405  67.728  1.00  0.00    -0.306 C  
HETATM    8  C   UNL     1     -11.997  13.779  70.169  1.00  0.00    -0.404 A  
HETATM    9  O   UNL     1     -10.685  17.370  68.469  1.00  0.00    -0.348 OA 
HETATM   10  O   UNL     1     -10.627  16.485  66.402  1.00  0.00    -0.295 OA 
HETATM   11  C   UNL     1     -12.104  12.626  69.384  1.00  0.00    -0.236 A  
HETATM   12  C   UNL     1     -11.817  12.709  68.018  1.00  0.00    -0.376 A  
BRANCH  11  13
HETATM   13  C   UNL     1     -12.521  11.309  69.986  1.00  0.00    -0.251 C  
BRANCH  13  14
HETATM   14  C   UNL     1     -11.377  10.324  70.126  1.00  0.00    -0.316 C  
HETATM   15  O   UNL     1     -10.944  10.034  71.240  1.00  0.00    -0.264 OA 
HETATM   16  N   UNL     1     -10.894   9.786  68.945  1.00  0.00    -0.302 N  
HETATM   17  H   UNL     1     -11.269  10.117  68.056  1.00  0.00     0.000 HD 
BRANCH  16  18
HETATM   18  C   UNL     1      -9.850   8.746  68.946  1.00  0.00    -0.178 C  
BRANCH  18  19
HETATM   19  C   UNL     1      -9.062   8.569  67.636  1.00  0.00    -0.144 A  
HETATM   20  C   UNL     1      -7.640   8.380  67.577  1.00  0.00    -0.098 A  
HETATM   21  C   UNL     1      -7.102   8.091  66.292  1.00  0.00    -0.066 A  
HETATM   22  C   UNL     1      -9.821   8.426  66.439  1.00  0.00    -0.310 A  
HETATM   23  C   UNL     1      -7.873   7.946  65.138  1.00  0.00    -0.114 A  
HETATM   24  C   UNL     1      -9.238   8.116  65.210  1.00  0.00     0.261 A  
BRANCH  20  25
HETATM   25  N   UNL     1      -6.726   8.460  68.635  1.00  0.00    -0.058 NA 
HETATM   26  C   UNL     1      -6.416   9.764  69.263  1.00  0.00    -0.048 C  
HETATM   27  C   UNL     1      -6.463   9.616  70.787  1.00  0.00    -0.104 C  
HETATM   28  C   UNL     1      -5.472   8.559  71.260  1.00  0.00    -0.034 C  
HETATM   29  C   UNL     1      -5.726   7.246  70.544  1.00  0.00    -0.024 C  
HETATM   30  C   UNL     1      -5.795   7.404  69.031  1.00  0.00    -0.022 C  
ENDBRANCH  20  25
ENDBRANCH  18  19
BRANCH  18  31
HETATM   31  C   UNL     1     -10.398   7.372  69.382  1.00  0.00    -0.211 C  
HETATM   32  C   UNL     1      -8.953   7.058  71.496  1.00  0.00    -0.139 C  
HETATM   33  C   UNL     1     -10.359   7.069  70.894  1.00  0.00    -0.214 C  
HETATM   34  C   UNL     1     -10.989   5.693  71.134  1.00  0.00    -0.248 C  
ENDBRANCH  18  31
ENDBRANCH  16  18
ENDBRANCH  13  14
ENDBRANCH  11  13
ENDBRANCH   3   4
ENDBRANCH   2   3
TORSDOF 8
ENDMDL
MODEL      240
REMARK 921   NORMALIZED FREE ENERGY PREDICTED BY IDOCK:   -3.93 KCAL/MOL
REMARK 922        TOTAL FREE ENERGY PREDICTED BY IDOCK:   -8.17 KCAL/MOL
REMARK 923 INTER-LIGAND FREE ENERGY PREDICTED BY IDOCK:   -6.44 KCAL/MOL
REMARK 924 INTRA-LIGAND FREE ENERGY PREDICTED BY IDOCK:   -1.73 KCAL/MOL
REMARK 927      BINDING AFFINITY PREDICTED BY RF-SCORE:    0.00 PKD
ROOT
HETATM    1  C   UNL     1      -6.461   6.711  66.447  1.00  0.00    -0.043 C  
HETATM    2  C   UNL     1      -7.679   7.415  65.892  1.00  0.00    -0.093 C  
ENDROOT
BRANCH   2   3
HETATM    3  O   UNL     1      -8.570   7.743  66.978  1.00  0.00    -0.124 OA 
BRANCH   3   4
HETATM    4  C   UNL     1      -8.034   8.577  67.927  1.00  0.00    -0.108 A  
HETATM    5  C   UNL     1      -8.211   8.268  69.284  1.00  0.00    -0.118 A  
HETATM    6  C   UNL     1      -7.721   9.158  70.257  1.00  0.00    -0.115 A  
HETATM    7  C   UNL     1      -8.923   7.050  69.798  1.00  0.00    -0.141 C  
HETATM    8  C   UNL     1      -7.065  10.331  69.890  1.00  0.00    -0.152 A  
HETATM    9  O   UNL     1      -9.136   6.865  70.989  1.00  0.00    -0.154 OA 
HETATM   10  O   UNL     1      -9.286   6.160  68.859  1.00  0.00    -0.126 OA 
HETATM   11  C   UNL     1      -6.862  10.631  68.539  1.00  0.00    -0.065 A  
HETATM   12  C   UNL     1      -7.314   9.729  67.571  1.00  0.00    -0.090 A  
BRANCH  11  13
HETATM   13  C   UNL     1      -6.168  11.901  68.119  1.00  0.00    -0.051 C  
BRANCH  13  14
HETATM   14  C   UNL     1      -7.037  13.135  68.262  1.00  0.00    -0.105 C  
HETATM   15  O   UNL     1      -7.271  13.601  69.376  1.00  0.00    -0.001 OA 
HETATM   16  N   UNL     1      -7.507  13.683  67.080  1.00  0.00    -0.358 N  
HETATM   17  H   UNL     1      -7.314  13.209  66.198  1.00  0.00     0.000 HD 
BRANCH  16  18
HETATM   18  C   UNL     1      -8.281  14.938  67.072  1.00  0.00    -0.196 C  
BRANCH  18  19
HETATM   19  C   UNL     1      -9.607  14.915  66.291  1.00  0.00    -0.334 A  
HETATM   20  C   UNL     1     -10.480  16.048  66.163  1.00  0.00    -0.326 A  
HETATM   21  C   UNL     1     -11.588  15.885  65.286  1.00  0.00     0.213 A  
HETATM   22  C   UNL     1      -9.887  13.746  65.524  1.00  0.00    -0.189 A  
HETATM   23  C   UNL     1     -11.831  14.731  64.540  1.00  0.00    -0.428 A  
HETATM   24  C   UNL     1     -10.978  13.656  64.661  1.00  0.00    -0.403 A  
BRANCH  20  25
HETATM   25  N   UNL     1     -10.370  17.284  66.810  1.00  0.00    -0.320 NA 
HETATM   26  C   UNL     1     -10.666  17.404  68.256  1.00  0.00    -0.327 C  
HETATM   27  C   UNL     1      -9.553  18.209  68.936  1.00  0.00    -0.247 C  
HETATM   28  C   UNL     1      -9.427  19.593  68.311  1.00  0.00    -0.453 C  
HETATM   29  C   UNL     1      -9.220  19.475  66.813  1.00  0.00    -0.415 C  
HETATM   30  C   UNL     1     -10.257  18.582  66.145  1.00  0.00    -0.398 C  
ENDBRANCH  20  25
ENDBRANCH  18  19
BRANCH  18  31
HETATM   31  C   UNL     1      -7.442  16.136  66.585  1.00  0.00    -0.200 C  
HETATM   32  C   UNL     1      -6.466  16.846  68.866  1.00  0.00    -0.186 C  
HETATM   33  C   UNL     1      -6.182  16.468  67.410  1.00  0.00    -0.193 C  
HETATM   34  C   UNL     1      -5.458  17.644  66.747  1.00  0.00    -0.193 C  
ENDBRANCH  18  31
ENDBRANCH  16  18
ENDBRANCH  13  14
ENDBRANCH  11  13
ENDBRANCH   3   4
ENDBRANCH   2   3
TORSDOF 8
ENDMDL
MODEL      241
REMARK 921   NORMALIZED FREE ENERGY PREDICTED BY IDOCK:   -3.92 KCAL/MOL
REMARK 922        TOTAL FREE ENERGY PREDICTED BY IDOCK:   -8.15 KCAL/MOL
REMARK 923 INTER-LIGAND FREE ENERGY PREDICTED BY IDOCK:   -5.89 KCAL/MOL
REMARK 924 INTRA-LIGAND FREE ENERGY PREDICTED BY IDOCK:   -2.26 KCAL/MOL
REMARK 927      BINDING AFFINITY PREDICTED BY RF-SCORE:    0.00 PKD
ROOT
HETATM    1  C   UNL     1     -12.104   9.885  70.564  1.00  0.00    -0.289 C  
HETATM    2  C   UNL     1     -11.962  11.250  69.929  1.00  0.00    -0.365 C  
ENDROOT
BRANCH   2   3
HETATM    3  O   UNL     1     -11.689  11.091  68.521  1.00  0.00    -0.372 OA 
BRANCH   3   4
HETATM    4  C   UNL     1     -10.427  11.469  68.136  1.00  0.00    -0.193 A  
HETATM    5  C   UNL     1     -10.283  12.523  67.220  1.00  0.00    -0.222 A  
HETATM    6  C   UNL     1      -8.993  12.866  66.774  1.00  0.00    -0.182 A  
HETATM    7  C   UNL     1     -11.418  13.315  66.641  1.00  0.00    -0.347 C  
HETATM    8  C   UNL     1      -7.870  12.180  67.229  1.00  0.00    -0.176 A  
HETATM    9  O   UNL     1     -11.254  14.164  65.774  1.00  0.00    -0.304 OA 
HETATM   10  O   UNL     1     -12.628  13.046  67.161  1.00  0.00    -0.118 OA 
HETATM   11  C   UNL     1      -8.007  11.148  68.163  1.00  0.00    -0.125 A  
HETATM   12  C   UNL     1      -9.282  10.830  68.638  1.00  0.00    -0.184 A  
BRANCH  11  13
HETATM   13  C   UNL     1      -6.807  10.382  68.659  1.00  0.00    -0.058 C  
BRANCH  13  14
HETATM   14  C   UNL     1      -7.133   8.960  69.074  1.00  0.00    -0.064 C  
HETATM   15  O   UNL     1      -6.929   8.028  68.298  1.00  0.00    -0.069 OA 
HETATM   16  N   UNL     1      -7.637   8.805  70.354  1.00  0.00    -0.073 N  
HETATM   17  H   UNL     1      -7.828   9.631  70.919  1.00  0.00     0.000 HD 
BRANCH  16  18
HETATM   18  C   UNL     1      -7.904   7.468  70.916  1.00  0.00    -0.094 C  
BRANCH  18  19
HETATM   19  C   UNL     1      -9.373   7.148  71.246  1.00  0.00    -0.155 A  
HETATM   20  C   UNL     1     -10.227   6.356  70.406  1.00  0.00    -0.192 A  
HETATM   21  C   UNL     1     -11.509   6.045  70.938  1.00  0.00    -0.230 A  
HETATM   22  C   UNL     1      -9.844   7.530  72.535  1.00  0.00    -0.226 A  
HETATM   23  C   UNL     1     -11.940   6.424  72.210  1.00  0.00    -0.289 A  
HETATM   24  C   UNL     1     -11.105   7.172  73.012  1.00  0.00    -0.323 A  
BRANCH  20  25
HETATM   25  N   UNL     1      -9.946   5.870  69.124  1.00  0.00    -0.154 NA 
HETATM   26  C   UNL     1     -10.699   6.367  67.950  1.00  0.00    -0.299 C  
HETATM   27  C   UNL     1      -9.716   6.703  66.823  1.00  0.00    -0.217 C  
HETATM   28  C   UNL     1      -8.895   5.478  66.437  1.00  0.00    -0.126 C  
HETATM   29  C   UNL     1      -8.198   4.909  67.659  1.00  0.00    -0.105 C  
HETATM   30  C   UNL     1      -9.151   4.680  68.825  1.00  0.00    -0.116 C  
ENDBRANCH  20  25
ENDBRANCH  18  19
BRANCH  18  31
HETATM   31  C   UNL     1      -7.043   7.178  72.162  1.00  0.00    -0.068 C  
HETATM   32  C   UNL     1      -7.375   4.621  72.247  1.00  0.00    -0.081 C  
HETATM   33  C   UNL     1      -6.383   5.786  72.228  1.00  0.00    -0.052 C  
HETATM   34  C   UNL     1      -5.534   5.707  73.502  1.00  0.00    -0.024 C  
ENDBRANCH  18  31
ENDBRANCH  16  18
ENDBRANCH  13  14
ENDBRANCH  11  13
ENDBRANCH   3   4
ENDBRANCH   2   3
TORSDOF 8
ENDMDL
MODEL      242
REMARK 921   NORMALIZED FREE ENERGY PREDICTED BY IDOCK:   -3.89 KCAL/MOL
REMARK 922        TOTAL FREE ENERGY PREDICTED BY IDOCK:   -8.11 KCAL/MOL
REMARK 923 INTER-LIGAND FREE ENERGY PREDICTED BY IDOCK:   -7.70 KCAL/MOL
REMARK 924 INTRA-LIGAND FREE ENERGY PREDICTED BY IDOCK:   -0.40 KCAL/MOL
REMARK 927      BINDING AFFINITY PREDICTED BY RF-SCORE:    0.00 PKD
ROOT
HETATM    1  C   UNL     1      -8.035  15.637  68.706  1.00  0.00    -0.172 C  
HETATM    2  C   UNL     1      -9.487  15.412  68.351  1.00  0.00    -0.200 C  
ENDROOT
BRANCH   2   3
HETATM    3  O   UNL     1      -9.562  14.628  67.142  1.00  0.00    -0.222 OA 
BRANCH   3   4
HETATM    4  C   UNL     1     -10.063  13.361  67.312  1.00  0.00    -0.238 A  
HETATM    5  C   UNL     1     -11.235  12.995  66.632  1.00  0.00    -0.341 A  
HETATM    6  C   UNL     1     -11.785  11.720  66.859  1.00  0.00    -0.221 A  
HETATM    7  C   UNL     1     -11.984  13.882  65.681  1.00  0.00    -0.392 C  
HETATM    8  C   UNL     1     -11.183  10.825  67.740  1.00  0.00    -0.385 A  
HETATM    9  O   UNL     1     -13.053  13.557  65.181  1.00  0.00    -0.737 OA 
HETATM   10  O   UNL     1     -11.385  15.051  65.395  1.00  0.00    -0.347 OA 
HETATM   11  C   UNL     1     -10.000  11.175  68.399  1.00  0.00    -0.193 A  
HETATM   12  C   UNL     1      -9.430  12.426  68.146  1.00  0.00    -0.214 A  
BRANCH  11  13
HETATM   13  C   UNL     1      -9.339  10.228  69.367  1.00  0.00    -0.217 C  
BRANCH  13  14
HETATM   14  C   UNL     1      -9.427   8.776  68.942  1.00  0.00    -0.145 C  
HETATM   15  O   UNL     1      -9.233   8.462  67.769  1.00  0.00    -0.132 OA 
HETATM   16  N   UNL     1      -9.713   7.868  69.948  1.00  0.00    -0.175 N  
HETATM   17  H   UNL     1      -9.914   8.210  70.887  1.00  0.00     0.000 HD 
BRANCH  16  18
HETATM   18  C   UNL     1      -9.732   6.417  69.689  1.00  0.00    -0.152 C  
BRANCH  18  19
HETATM   19  C   UNL     1     -10.029   5.513  70.898  1.00  0.00    -0.260 A  
HETATM   20  C   UNL     1     -11.060   5.779  71.862  1.00  0.00    -0.248 A  
HETATM   21  C   UNL     1     -11.286   4.761  72.830  1.00  0.00    -0.286 A  
HETATM   22  C   UNL     1      -9.343   4.265  70.957  1.00  0.00    -0.221 A  
HETATM   23  C   UNL     1     -10.604   3.544  72.857  1.00  0.00    -0.218 A  
HETATM   24  C   UNL     1      -9.627   3.295  71.918  1.00  0.00    -0.221 A  
BRANCH  20  25
HETATM   25  N   UNL     1     -11.855   6.926  71.962  1.00  0.00    -0.302 NA 
HETATM   26  C   UNL     1     -11.396   8.092  72.750  1.00  0.00    -0.336 C  
HETATM   27  C   UNL     1     -11.611   9.372  71.934  1.00  0.00    -0.348 C  
HETATM   28  C   UNL     1     -13.081   9.536  71.563  1.00  0.00    -0.470 C  
HETATM   29  C   UNL     1     -13.581   8.300  70.841  1.00  0.00     0.246 C  
HETATM   30  C   UNL     1     -13.267   7.013  71.592  1.00  0.00    -0.307 C  
ENDBRANCH  20  25
ENDBRANCH  18  19
BRANCH  18  31
HETATM   31  C   UNL     1      -8.434   5.929  69.014  1.00  0.00    -0.105 C  
HETATM   32  C   UNL     1      -6.753   7.240  70.468  1.00  0.00    -0.048 C  
HETATM   33  C   UNL     1      -7.176   5.882  69.906  1.00  0.00    -0.073 C  
HETATM   34  C   UNL     1      -6.011   5.326  69.079  1.00  0.00    -0.021 C  
ENDBRANCH  18  31
ENDBRANCH  16  18
ENDBRANCH  13  14
ENDBRANCH  11  13
ENDBRANCH   3   4
ENDBRANCH   2   3
TORSDOF 8
ENDMDL
MODEL      243
REMARK 921   NORMALIZED FREE ENERGY PREDICTED BY IDOCK:   -3.88 KCAL/MOL
REMARK 922        TOTAL FREE ENERGY PREDICTED BY IDOCK:   -8.10 KCAL/MOL
REMARK 923 INTER-LIGAND FREE ENERGY PREDICTED BY IDOCK:   -7.50 KCAL/MOL
REMARK 924 INTRA-LIGAND FREE ENERGY PREDICTED BY IDOCK:   -0.59 KCAL/MOL
REMARK 927      BINDING AFFINITY PREDICTED BY RF-SCORE:    0.00 PKD
ROOT
HETATM    1  C   UNL     1     -10.882  18.453  65.964  1.00  0.00    -0.044 C  
HETATM    2  C   UNL     1      -9.857  17.679  66.763  1.00  0.00    -0.304 C  
ENDROOT
BRANCH   2   3
HETATM    3  O   UNL     1      -9.094  16.843  65.869  1.00  0.00    -0.504 OA 
BRANCH   3   4
HETATM    4  C   UNL     1      -8.943  15.545  66.289  1.00  0.00    -0.327 A  
HETATM    5  C   UNL     1      -7.867  15.223  67.131  1.00  0.00    -0.249 A  
HETATM    6  C   UNL     1      -7.672  13.881  67.506  1.00  0.00    -0.192 A  
HETATM    7  C   UNL     1      -6.865  16.210  67.653  1.00  0.00    -0.152 C  
HETATM    8  C   UNL     1      -8.530  12.879  67.059  1.00  0.00    -0.146 A  
HETATM    9  O   UNL     1      -5.887  15.872  68.309  1.00  0.00    -0.098 OA 
HETATM   10  O   UNL     1      -7.130  17.498  67.375  1.00  0.00    -0.163 OA 
HETATM   11  C   UNL     1      -9.620  13.199  66.243  1.00  0.00    -0.241 A  
HETATM   12  C   UNL     1      -9.838  14.536  65.899  1.00  0.00    -0.347 A  
BRANCH  11  13
HETATM   13  C   UNL     1     -10.553  12.130  65.734  1.00  0.00    -0.295 C  
BRANCH  13  14
HETATM   14  C   UNL     1     -10.744  10.986  66.711  1.00  0.00    -0.266 C  
HETATM   15  O   UNL     1     -11.807  10.860  67.316  1.00  0.00    -0.389 OA 
HETATM   16  N   UNL     1      -9.672  10.119  66.844  1.00  0.00    -0.180 N  
HETATM   17  H   UNL     1      -8.803  10.320  66.349  1.00  0.00     0.000 HD 
BRANCH  16  18
HETATM   18  C   UNL     1      -9.761   8.913  67.686  1.00  0.00    -0.161 C  
BRANCH  18  19
HETATM   19  C   UNL     1      -8.630   8.712  68.711  1.00  0.00    -0.130 A  
HETATM   20  C   UNL     1      -8.811   8.808  70.132  1.00  0.00    -0.154 A  
HETATM   21  C   UNL     1      -7.689   8.451  70.929  1.00  0.00    -0.088 A  
HETATM   22  C   UNL     1      -7.379   8.247  68.211  1.00  0.00    -0.095 A  
HETATM   23  C   UNL     1      -6.478   7.988  70.411  1.00  0.00    -0.037 A  
HETATM   24  C   UNL     1      -6.321   7.887  69.046  1.00  0.00    -0.036 A  
BRANCH  20  25
HETATM   25  N   UNL     1      -9.959   9.223  70.817  1.00  0.00    -0.269 NA 
HETATM   26  C   UNL     1     -10.610  10.510  70.483  1.00  0.00     0.226 C  
HETATM   27  C   UNL     1     -12.122  10.295  70.353  1.00  0.00    -0.373 C  
HETATM   28  C   UNL     1     -12.702   9.736  71.648  1.00  0.00    -0.517 C  
HETATM   29  C   UNL     1     -11.970   8.468  72.045  1.00  0.00    -0.427 C  
HETATM   30  C   UNL     1     -10.458   8.643  72.064  1.00  0.00    -0.352 C  
ENDBRANCH  20  25
ENDBRANCH  18  19
BRANCH  18  31
HETATM   31  C   UNL     1      -9.902   7.627  66.848  1.00  0.00    -0.304 C  
HETATM   32  C   UNL     1     -10.827   6.085  68.699  1.00  0.00    -0.379 C  
HETATM   33  C   UNL     1     -11.007   6.643  67.285  1.00  0.00    -0.456 C  
HETATM   34  C   UNL     1     -11.027   5.463  66.308  1.00  0.00    -0.053 C  
ENDBRANCH  18  31
ENDBRANCH  16  18
ENDBRANCH  13  14
ENDBRANCH  11  13
ENDBRANCH   3   4
ENDBRANCH   2   3
TORSDOF 8
ENDMDL
MODEL      244
REMARK 921   NORMALIZED FREE ENERGY PREDICTED BY IDOCK:   -3.88 KCAL/MOL
REMARK 922        TOTAL FREE ENERGY PREDICTED BY IDOCK:   -8.09 KCAL/MOL
REMARK 923 INTER-LIGAND FREE ENERGY PREDICTED BY IDOCK:   -6.59 KCAL/MOL
REMARK 924 INTRA-LIGAND FREE ENERGY PREDICTED BY IDOCK:   -1.50 KCAL/MOL
REMARK 927      BINDING AFFINITY PREDICTED BY RF-SCORE:    0.00 PKD
ROOT
HETATM    1  C   UNL     1     -10.725   3.736  63.246  1.00  0.00    -0.192 C  
HETATM    2  C   UNL     1      -9.830   3.100  64.286  1.00  0.00    -0.158 C  
ENDROOT
BRANCH   2   3
HETATM    3  O   UNL     1      -8.695   3.958  64.521  1.00  0.00    -0.114 OA 
BRANCH   3   4
HETATM    4  C   UNL     1      -8.715   4.617  65.725  1.00  0.00    -0.124 A  
HETATM    5  C   UNL     1      -7.850   4.194  66.747  1.00  0.00    -0.097 A  
HETATM    6  C   UNL     1      -7.919   4.825  68.003  1.00  0.00    -0.085 A  
HETATM    7  C   UNL     1      -6.854   3.080  66.617  1.00  0.00    -0.052 C  
HETATM    8  C   UNL     1      -8.825   5.856  68.240  1.00  0.00    -0.110 A  
HETATM    9  O   UNL     1      -6.184   2.682  67.562  1.00  0.00    -0.027 OA 
HETATM   10  O   UNL     1      -6.727   2.565  65.382  1.00  0.00    -0.037 OA 
HETATM   11  C   UNL     1      -9.669   6.299  67.217  1.00  0.00    -0.150 A  
HETATM   12  C   UNL     1      -9.577   5.701  65.957  1.00  0.00    -0.104 A  
BRANCH  11  13
HETATM   13  C   UNL     1     -10.667   7.403  67.454  1.00  0.00    -0.348 C  
BRANCH  13  14
HETATM   14  C   UNL     1     -10.116   8.784  67.156  1.00  0.00    -0.252 C  
HETATM   15  O   UNL     1      -9.880   9.567  68.074  1.00  0.00    -0.148 OA 
HETATM   16  N   UNL     1      -9.891   9.069  65.820  1.00  0.00    -0.461 N  
HETATM   17  H   UNL     1     -10.162   8.388  65.111  1.00  0.00     0.000 HD 
BRANCH  16  18
HETATM   18  C   UNL     1      -9.267  10.338  65.401  1.00  0.00    -0.193 C  
BRANCH  18  19
HETATM   19  C   UNL     1     -10.228  11.500  65.092  1.00  0.00    -0.322 A  
HETATM   20  C   UNL     1     -10.246  12.738  65.818  1.00  0.00    -0.289 A  
HETATM   21  C   UNL     1     -11.101  13.751  65.303  1.00  0.00    -0.315 A  
HETATM   22  C   UNL     1     -11.024  11.386  63.915  1.00  0.00    -0.442 A  
HETATM   23  C   UNL     1     -11.862  13.615  64.140  1.00  0.00    -0.463 A  
HETATM   24  C   UNL     1     -11.825  12.426  63.444  1.00  0.00    -0.571 A  
BRANCH  20  25
HETATM   25  N   UNL     1      -9.530  13.054  66.979  1.00  0.00    -0.229 NA 
HETATM   26  C   UNL     1      -8.142  12.572  67.160  1.00  0.00    -0.156 C  
HETATM   27  C   UNL     1      -7.263  13.731  67.644  1.00  0.00    -0.183 C  
HETATM   28  C   UNL     1      -7.794  14.302  68.954  1.00  0.00    -0.097 C  
HETATM   29  C   UNL     1      -9.248  14.707  68.799  1.00  0.00    -0.184 C  
HETATM   30  C   UNL     1     -10.107  13.597  68.209  1.00  0.00    -0.240 C  
ENDBRANCH  20  25
ENDBRANCH  18  19
BRANCH  18  31
HETATM   31  C   UNL     1      -8.316  10.151  64.202  1.00  0.00    -0.168 C  
HETATM   32  C   UNL     1      -6.640   8.537  65.316  1.00  0.00    -0.063 C  
HETATM   33  C   UNL     1      -7.566   8.806  64.128  1.00  0.00    -0.122 C  
HETATM   34  C   UNL     1      -6.717   8.788  62.852  1.00  0.00    -0.090 C  
ENDBRANCH  18  31
ENDBRANCH  16  18
ENDBRANCH  13  14
ENDBRANCH  11  13
ENDBRANCH   3   4
ENDBRANCH   2   3
TORSDOF 8
ENDMDL
MODEL      245
REMARK 921   NORMALIZED FREE ENERGY PREDICTED BY IDOCK:   -3.87 KCAL/MOL
REMARK 922        TOTAL FREE ENERGY PREDICTED BY IDOCK:   -8.08 KCAL/MOL
REMARK 923 INTER-LIGAND FREE ENERGY PREDICTED BY IDOCK:   -6.38 KCAL/MOL
REMARK 924 INTRA-LIGAND FREE ENERGY PREDICTED BY IDOCK:   -1.70 KCAL/MOL
REMARK 927      BINDING AFFINITY PREDICTED BY RF-SCORE:    0.00 PKD
ROOT
HETATM    1  C   UNL     1     -11.994  13.355  67.858  1.00  0.00    -0.360 C  
HETATM    2  C   UNL     1     -10.538  13.423  68.261  1.00  0.00    -0.254 C  
ENDROOT
BRANCH   2   3
HETATM    3  O   UNL     1      -9.763  13.920  67.151  1.00  0.00    -0.231 OA 
BRANCH   3   4
HETATM    4  C   UNL     1      -8.458  14.221  67.453  1.00  0.00    -0.203 A  
HETATM    5  C   UNL     1      -7.930  15.453  67.036  1.00  0.00    -0.259 A  
HETATM    6  C   UNL     1      -6.574  15.733  67.286  1.00  0.00    -0.169 A  
HETATM    7  C   UNL     1      -8.702  16.511  66.303  1.00  0.00    -0.333 C  
HETATM    8  C   UNL     1      -5.759  14.811  67.940  1.00  0.00    -0.133 A  
HETATM    9  O   UNL     1      -8.177  17.532  65.876  1.00  0.00    -0.538 OA 
HETATM   10  O   UNL     1     -10.017  16.272  66.171  1.00  0.00    -0.293 OA 
HETATM   11  C   UNL     1      -6.288  13.594  68.381  1.00  0.00    -0.098 A  
HETATM   12  C   UNL     1      -7.644  13.329  68.169  1.00  0.00    -0.141 A  
BRANCH  11  13
HETATM   13  C   UNL     1      -5.423  12.575  69.077  1.00  0.00    -0.067 C  
BRANCH  13  14
HETATM   14  C   UNL     1      -6.218  11.488  69.775  1.00  0.00    -0.138 C  
HETATM   15  O   UNL     1      -6.138  11.349  70.994  1.00  0.00    -0.360 OA 
HETATM   16  N   UNL     1      -7.025  10.713  68.960  1.00  0.00    -0.072 N  
HETATM   17  H   UNL     1      -6.998  10.854  67.950  1.00  0.00     0.000 HD 
BRANCH  16  18
HETATM   18  C   UNL     1      -7.923   9.687  69.522  1.00  0.00    -0.125 C  
BRANCH  18  19
HETATM   19  C   UNL     1      -7.562   8.223  69.214  1.00  0.00    -0.094 A  
HETATM   20  C   UNL     1      -8.246   7.094  69.781  1.00  0.00    -0.131 A  
HETATM   21  C   UNL     1      -7.871   5.820  69.273  1.00  0.00    -0.090 A  
HETATM   22  C   UNL     1      -6.604   7.996  68.184  1.00  0.00    -0.056 A  
HETATM   23  C   UNL     1      -6.935   5.628  68.255  1.00  0.00    -0.068 A  
HETATM   24  C   UNL     1      -6.297   6.721  67.709  1.00  0.00    -0.048 A  
BRANCH  20  25
HETATM   25  N   UNL     1      -9.224   7.107  70.781  1.00  0.00    -0.157 NA 
HETATM   26  C   UNL     1      -8.843   7.006  72.208  1.00  0.00    -0.132 C  
HETATM   27  C   UNL     1      -9.599   8.070  73.011  1.00  0.00    -0.347 C  
HETATM   28  C   UNL     1     -11.106   7.894  72.859  1.00  0.00    -0.442 C  
HETATM   29  C   UNL     1     -11.488   7.899  71.391  1.00  0.00    -0.293 C  
HETATM   30  C   UNL     1     -10.659   6.925  70.564  1.00  0.00    -0.220 C  
ENDBRANCH  20  25
ENDBRANCH  18  19
BRANCH  18  31
HETATM   31  C   UNL     1      -9.395   9.926  69.132  1.00  0.00    -0.197 C  
HETATM   32  C   UNL     1      -9.032  10.441  66.631  1.00  0.00    -0.155 C  
HETATM   33  C   UNL     1      -9.777   9.605  67.673  1.00  0.00    -0.182 C  
HETATM   34  C   UNL     1     -11.279   9.853  67.494  1.00  0.00     0.010 C  
ENDBRANCH  18  31
ENDBRANCH  16  18
ENDBRANCH  13  14
ENDBRANCH  11  13
ENDBRANCH   3   4
ENDBRANCH   2   3
TORSDOF 8
ENDMDL
MODEL      246
REMARK 921   NORMALIZED FREE ENERGY PREDICTED BY IDOCK:   -3.85 KCAL/MOL
REMARK 922        TOTAL FREE ENERGY PREDICTED BY IDOCK:   -8.05 KCAL/MOL
REMARK 923 INTER-LIGAND FREE ENERGY PREDICTED BY IDOCK:   -6.74 KCAL/MOL
REMARK 924 INTRA-LIGAND FREE ENERGY PREDICTED BY IDOCK:   -1.31 KCAL/MOL
REMARK 927      BINDING AFFINITY PREDICTED BY RF-SCORE:    0.00 PKD
ROOT
HETATM    1  C   UNL     1     -10.928  12.579  64.102  1.00  0.00    -0.425 C  
HETATM    2  C   UNL     1     -11.029  12.357  65.594  1.00  0.00    -0.286 C  
ENDROOT
BRANCH   2   3
HETATM    3  O   UNL     1     -11.328  13.612  66.239  1.00  0.00    -0.302 OA 
BRANCH   3   4
HETATM    4  C   UNL     1     -11.484  13.533  67.601  1.00  0.00    -0.318 A  
HETATM    5  C   UNL     1     -11.204  14.663  68.385  1.00  0.00    -0.290 A  
HETATM    6  C   UNL     1     -11.297  14.561  69.785  1.00  0.00    -0.305 A  
HETATM    7  C   UNL     1     -10.775  15.995  67.843  1.00  0.00    -0.316 C  
HETATM    8  C   UNL     1     -11.664  13.364  70.395  1.00  0.00    -0.184 A  
HETATM    9  O   UNL     1     -10.451  16.928  68.567  1.00  0.00    -0.316 OA 
HETATM   10  O   UNL     1     -10.798  16.103  66.504  1.00  0.00    -0.262 OA 
HETATM   11  C   UNL     1     -11.970  12.243  69.617  1.00  0.00    -0.347 A  
HETATM   12  C   UNL     1     -11.916  12.351  68.225  1.00  0.00    -0.270 A  
BRANCH  11  13
HETATM   13  C   UNL     1     -12.355  10.933  70.255  1.00  0.00    -0.412 C  
BRANCH  13  14
HETATM   14  C   UNL     1     -11.171  10.163  70.806  1.00  0.00    -0.336 C  
HETATM   15  O   UNL     1     -11.310   9.430  71.783  1.00  0.00    -0.379 OA 
HETATM   16  N   UNL     1      -9.973  10.333  70.132  1.00  0.00    -0.423 N  
HETATM   17  H   UNL     1      -9.923  11.000  69.362  1.00  0.00     0.000 HD 
BRANCH  16  18
HETATM   18  C   UNL     1      -8.769   9.569  70.504  1.00  0.00    -0.197 C  
BRANCH  18  19
HETATM   19  C   UNL     1      -7.556   9.709  69.566  1.00  0.00    -0.104 A  
HETATM   20  C   UNL     1      -6.328   8.983  69.733  1.00  0.00    -0.038 A  
HETATM   21  C   UNL     1      -5.371   9.131  68.691  1.00  0.00    -0.034 A  
HETATM   22  C   UNL     1      -7.740  10.481  68.383  1.00  0.00    -0.104 A  
HETATM   23  C   UNL     1      -5.583   9.887  67.537  1.00  0.00    -0.039 A  
HETATM   24  C   UNL     1      -6.771  10.568  67.383  1.00  0.00    -0.071 A  
BRANCH  20  25
HETATM   25  N   UNL     1      -5.964   8.162  70.805  1.00  0.00    -0.033 NA 
HETATM   26  C   UNL     1      -5.553   8.752  72.099  1.00  0.00    -0.059 C  
HETATM   27  C   UNL     1      -6.275   8.027  73.240  1.00  0.00    -0.076 C  
HETATM   28  C   UNL     1      -5.956   6.536  73.221  1.00  0.00    -0.058 C  
HETATM   29  C   UNL     1      -6.286   5.947  71.862  1.00  0.00    -0.044 C  
HETATM   30  C   UNL     1      -5.665   6.733  70.714  1.00  0.00    -0.027 C  
ENDBRANCH  20  25
ENDBRANCH  18  19
BRANCH  18  31
HETATM   31  C   UNL     1      -9.069   8.070  70.703  1.00  0.00    -0.154 C  
HETATM   32  C   UNL     1     -10.138   7.604  68.401  1.00  0.00    -0.208 C  
HETATM   33  C   UNL     1      -9.079   7.200  69.430  1.00  0.00    -0.145 C  
HETATM   34  C   UNL     1      -9.341   5.744  69.833  1.00  0.00    -0.177 C  
ENDBRANCH  18  31
ENDBRANCH  16  18
ENDBRANCH  13  14
ENDBRANCH  11  13
ENDBRANCH   3   4
ENDBRANCH   2   3
TORSDOF 8
ENDMDL
MODEL      247
REMARK 921   NORMALIZED FREE ENERGY PREDICTED BY IDOCK:   -3.85 KCAL/MOL
REMARK 922        TOTAL FREE ENERGY PREDICTED BY IDOCK:   -8.04 KCAL/MOL
REMARK 923 INTER-LIGAND FREE ENERGY PREDICTED BY IDOCK:   -8.60 KCAL/MOL
REMARK 924 INTRA-LIGAND FREE ENERGY PREDICTED BY IDOCK:    0.55 KCAL/MOL
REMARK 927      BINDING AFFINITY PREDICTED BY RF-SCORE:    0.00 PKD
ROOT
HETATM    1  C   UNL     1      -9.773  19.005  68.261  1.00  0.00    -0.419 C  
HETATM    2  C   UNL     1     -10.149  19.302  66.827  1.00  0.00    -0.389 C  
ENDROOT
BRANCH   2   3
HETATM    3  O   UNL     1      -9.494  18.352  65.960  1.00  0.00    -0.498 OA 
BRANCH   3   4
HETATM    4  C   UNL     1      -9.459  17.068  66.443  1.00  0.00    -0.271 A  
HETATM    5  C   UNL     1      -8.214  16.448  66.637  1.00  0.00    -0.314 A  
HETATM    6  C   UNL     1      -8.179  15.108  67.067  1.00  0.00    -0.262 A  
HETATM    7  C   UNL     1      -6.886  17.102  66.392  1.00  0.00    -0.249 C  
HETATM    8  C   UNL     1      -9.355  14.399  67.302  1.00  0.00    -0.211 A  
HETATM    9  O   UNL     1      -5.826  16.495  66.485  1.00  0.00    -0.307 OA 
HETATM   10  O   UNL     1      -6.938  18.410  66.089  1.00  0.00    -0.225 OA 
HETATM   11  C   UNL     1     -10.596  15.021  67.136  1.00  0.00    -0.295 A  
HETATM   12  C   UNL     1     -10.634  16.363  66.747  1.00  0.00    -0.238 A  
BRANCH  11  13
HETATM   13  C   UNL     1     -11.882  14.269  67.370  1.00  0.00    -0.441 C  
BRANCH  13  14
HETATM   14  C   UNL     1     -11.733  12.767  67.226  1.00  0.00    -0.378 C  
HETATM   15  O   UNL     1     -12.097  12.205  66.194  1.00  0.00    -0.621 OA 
HETATM   16  N   UNL     1     -11.157  12.111  68.301  1.00  0.00    -0.225 N  
HETATM   17  H   UNL     1     -10.930  12.638  69.144  1.00  0.00     0.000 HD 
BRANCH  16  18
HETATM   18  C   UNL     1     -10.867  10.667  68.252  1.00  0.00    -0.241 C  
BRANCH  18  19
HETATM   19  C   UNL     1     -10.855   9.928  69.602  1.00  0.00    -0.281 A  
HETATM   20  C   UNL     1      -9.661   9.462  70.249  1.00  0.00    -0.249 A  
HETATM   21  C   UNL     1      -9.828   8.929  71.557  1.00  0.00    -0.384 A  
HETATM   22  C   UNL     1     -12.089   9.856  70.311  1.00  0.00    -0.168 A  
HETATM   23  C   UNL     1     -11.049   8.881  72.231  1.00  0.00    -0.256 A  
HETATM   24  C   UNL     1     -12.186   9.344  71.605  1.00  0.00    -0.467 A  
BRANCH  20  25
HETATM   25  N   UNL     1      -8.359   9.462  69.734  1.00  0.00    -0.140 NA 
HETATM   26  C   UNL     1      -7.546  10.699  69.745  1.00  0.00    -0.043 C  
HETATM   27  C   UNL     1      -6.142  10.378  70.270  1.00  0.00    -0.107 C  
HETATM   28  C   UNL     1      -5.470   9.318  69.404  1.00  0.00    -0.035 C  
HETATM   29  C   UNL     1      -6.347   8.084  69.312  1.00  0.00    -0.035 C  
HETATM   30  C   UNL     1      -7.778   8.409  68.902  1.00  0.00    -0.105 C  
ENDBRANCH  20  25
ENDBRANCH  18  19
BRANCH  18  31
HETATM   31  C   UNL     1      -9.549  10.363  67.512  1.00  0.00    -0.178 C  
HETATM   32  C   UNL     1     -10.281   8.181  66.346  1.00  0.00    -0.120 C  
HETATM   33  C   UNL     1      -9.673   9.576  66.191  1.00  0.00    -0.324 C  
HETATM   34  C   UNL     1      -8.275   9.420  65.581  1.00  0.00    -0.121 C  
ENDBRANCH  18  31
ENDBRANCH  16  18
ENDBRANCH  13  14
ENDBRANCH  11  13
ENDBRANCH   3   4
ENDBRANCH   2   3
TORSDOF 8
ENDMDL
MODEL      248
REMARK 921   NORMALIZED FREE ENERGY PREDICTED BY IDOCK:   -3.84 KCAL/MOL
REMARK 922        TOTAL FREE ENERGY PREDICTED BY IDOCK:   -8.03 KCAL/MOL
REMARK 923 INTER-LIGAND FREE ENERGY PREDICTED BY IDOCK:   -7.39 KCAL/MOL
REMARK 924 INTRA-LIGAND FREE ENERGY PREDICTED BY IDOCK:   -0.65 KCAL/MOL
REMARK 927      BINDING AFFINITY PREDICTED BY RF-SCORE:    0.00 PKD
ROOT
HETATM    1  C   UNL     1     -12.229  15.509  70.827  1.00  0.00    -0.450 C  
HETATM    2  C   UNL     1     -11.999  15.716  69.347  1.00  0.00    -0.331 C  
ENDROOT
BRANCH   2   3
HETATM    3  O   UNL     1     -10.860  16.581  69.161  1.00  0.00    -0.310 OA 
BRANCH   3   4
HETATM    4  C   UNL     1      -9.823  16.018  68.459  1.00  0.00    -0.216 A  
HETATM    5  C   UNL     1      -9.291  16.711  67.360  1.00  0.00    -0.223 A  
HETATM    6  C   UNL     1      -8.275  16.105  66.599  1.00  0.00    -0.321 A  
HETATM    7  C   UNL     1      -9.746  18.066  66.901  1.00  0.00    -0.314 C  
HETATM    8  C   UNL     1      -7.794  14.838  66.923  1.00  0.00     0.045 A  
HETATM    9  O   UNL     1      -9.318  18.594  65.883  1.00  0.00    -0.475 OA 
HETATM   10  O   UNL     1     -10.637  18.673  67.703  1.00  0.00    -0.407 OA 
HETATM   11  C   UNL     1      -8.302  14.156  68.033  1.00  0.00    -0.160 A  
HETATM   12  C   UNL     1      -9.285  14.772  68.814  1.00  0.00    -0.196 A  
BRANCH  11  13
HETATM   13  C   UNL     1      -7.808  12.779  68.394  1.00  0.00    -0.132 C  
BRANCH  13  14
HETATM   14  C   UNL     1      -8.224  11.712  67.400  1.00  0.00    -0.153 C  
HETATM   15  O   UNL     1      -7.486  10.754  67.176  1.00  0.00    -0.094 OA 
HETATM   16  N   UNL     1      -9.462  11.889  66.806  1.00  0.00    -0.195 N  
HETATM   17  H   UNL     1      -9.994  12.737  67.003  1.00  0.00     0.000 HD 
BRANCH  16  18
HETATM   18  C   UNL     1     -10.028  10.877  65.896  1.00  0.00    -0.243 C  
BRANCH  18  19
HETATM   19  C   UNL     1      -9.015   9.998  65.141  1.00  0.00    -0.227 A  
HETATM   20  C   UNL     1      -8.687   8.651  65.517  1.00  0.00    -0.186 A  
HETATM   21  C   UNL     1      -7.839   7.942  64.622  1.00  0.00    -0.133 A  
HETATM   22  C   UNL     1      -8.506  10.507  63.911  1.00  0.00    -0.120 A  
HETATM   23  C   UNL     1      -7.365   8.464  63.417  1.00  0.00    -0.104 A  
HETATM   24  C   UNL     1      -7.698   9.753  63.061  1.00  0.00    -0.133 A  
BRANCH  20  25
HETATM   25  N   UNL     1      -9.097   7.966  66.667  1.00  0.00    -0.155 NA 
HETATM   26  C   UNL     1      -8.103   7.510  67.665  1.00  0.00    -0.118 C  
HETATM   27  C   UNL     1      -8.587   7.885  69.070  1.00  0.00    -0.135 C  
HETATM   28  C   UNL     1      -9.945   7.256  69.360  1.00  0.00    -0.170 C  
HETATM   29  C   UNL     1     -10.942   7.642  68.284  1.00  0.00     0.082 C  
HETATM   30  C   UNL     1     -10.420   7.380  66.877  1.00  0.00    -0.309 C  
ENDBRANCH  20  25
ENDBRANCH  18  19
BRANCH  18  31
HETATM   31  C   UNL     1     -11.004  11.494  64.875  1.00  0.00    -0.319 C  
HETATM   32  C   UNL     1     -11.525  13.679  66.143  1.00  0.00    -0.342 C  
HETATM   33  C   UNL     1     -11.067  13.034  64.833  1.00  0.00    -0.326 C  
HETATM   34  C   UNL     1     -12.045  13.455  63.730  1.00  0.00    -0.516 C  
ENDBRANCH  18  31
ENDBRANCH  16  18
ENDBRANCH  13  14
ENDBRANCH  11  13
ENDBRANCH   3   4
ENDBRANCH   2   3
TORSDOF 8
ENDMDL
MODEL      249
REMARK 921   NORMALIZED FREE ENERGY PREDICTED BY IDOCK:   -3.83 KCAL/MOL
REMARK 922        TOTAL FREE ENERGY PREDICTED BY IDOCK:   -8.01 KCAL/MOL
REMARK 923 INTER-LIGAND FREE ENERGY PREDICTED BY IDOCK:   -5.95 KCAL/MOL
REMARK 924 INTRA-LIGAND FREE ENERGY PREDICTED BY IDOCK:   -2.06 KCAL/MOL
REMARK 927      BINDING AFFINITY PREDICTED BY RF-SCORE:    0.00 PKD
ROOT
HETATM    1  C   UNL     1     -12.682  15.625  70.761  1.00  0.00    -0.483 C  
HETATM    2  C   UNL     1     -12.151  16.106  69.429  1.00  0.00     0.049 C  
ENDROOT
BRANCH   2   3
HETATM    3  O   UNL     1     -10.735  16.356  69.548  1.00  0.00    -0.288 OA 
BRANCH   3   4
HETATM    4  C   UNL     1      -9.943  15.527  68.792  1.00  0.00    -0.214 A  
HETATM    5  C   UNL     1      -9.616  15.908  67.481  1.00  0.00    -0.221 A  
HETATM    6  C   UNL     1      -8.861  15.028  66.684  1.00  0.00    -0.307 A  
HETATM    7  C   UNL     1     -10.037  17.195  66.834  1.00  0.00    -0.298 C  
HETATM    8  C   UNL     1      -8.437  13.797  67.178  1.00  0.00    -0.189 A  
HETATM    9  O   UNL     1      -9.808  17.446  65.658  1.00  0.00    -0.544 OA 
HETATM   10  O   UNL     1     -10.662  18.066  67.644  1.00  0.00    -0.415 OA 
HETATM   11  C   UNL     1      -8.737  13.425  68.492  1.00  0.00    -0.071 A  
HETATM   12  C   UNL     1      -9.454  14.313  69.299  1.00  0.00     0.210 A  
BRANCH  11  13
HETATM   13  C   UNL     1      -8.301  12.092  69.043  1.00  0.00     0.279 C  
BRANCH  13  14
HETATM   14  C   UNL     1      -9.152  10.934  68.557  1.00  0.00    -0.173 C  
HETATM   15  O   UNL     1      -9.760  10.232  69.363  1.00  0.00    -0.213 OA 
HETATM   16  N   UNL     1      -9.201  10.755  67.185  1.00  0.00    -0.147 N  
HETATM   17  H   UNL     1      -8.627  11.346  66.583  1.00  0.00     0.000 HD 
BRANCH  16  18
HETATM   18  C   UNL     1     -10.067   9.729  66.576  1.00  0.00    -0.239 C  
BRANCH  18  19
HETATM   19  C   UNL     1      -9.613   8.268  66.744  1.00  0.00    -0.288 A  
HETATM   20  C   UNL     1      -8.238   7.857  66.783  1.00  0.00    -0.116 A  
HETATM   21  C   UNL     1      -8.005   6.487  67.088  1.00  0.00    -0.112 A  
HETATM   22  C   UNL     1     -10.623   7.307  67.039  1.00  0.00    -0.415 A  
HETATM   23  C   UNL     1      -9.015   5.570  67.383  1.00  0.00    -0.107 A  
HETATM   24  C   UNL     1     -10.330   5.981  67.356  1.00  0.00    -0.268 A  
BRANCH  20  25
HETATM   25  N   UNL     1      -7.107   8.646  66.543  1.00  0.00    -0.079 NA 
HETATM   26  C   UNL     1      -6.865   9.225  65.202  1.00  0.00    -0.082 C  
HETATM   27  C   UNL     1      -6.488  10.703  65.348  1.00  0.00    -0.034 C  
HETATM   28  C   UNL     1      -5.246  10.861  66.218  1.00  0.00    -0.105 C  
HETATM   29  C   UNL     1      -5.455  10.183  67.559  1.00  0.00    -0.041 C  
HETATM   30  C   UNL     1      -5.942   8.747  67.422  1.00  0.00    -0.047 C  
ENDBRANCH  20  25
ENDBRANCH  18  19
BRANCH  18  31
HETATM   31  C   UNL     1     -10.324   9.998  65.080  1.00  0.00     0.077 C  
HETATM   32  C   UNL     1     -11.455  12.305  65.313  1.00  0.00    -0.399 C  
HETATM   33  C   UNL     1     -10.354  11.478  64.646  1.00  0.00    -0.349 C  
HETATM   34  C   UNL     1     -10.567  11.539  63.129  1.00  0.00    -0.323 C  
ENDBRANCH  18  31
ENDBRANCH  16  18
ENDBRANCH  13  14
ENDBRANCH  11  13
ENDBRANCH   3   4
ENDBRANCH   2   3
TORSDOF 8
ENDMDL
MODEL      250
REMARK 921   NORMALIZED FREE ENERGY PREDICTED BY IDOCK:   -3.83 KCAL/MOL
REMARK 922        TOTAL FREE ENERGY PREDICTED BY IDOCK:   -8.01 KCAL/MOL
REMARK 923 INTER-LIGAND FREE ENERGY PREDICTED BY IDOCK:   -6.91 KCAL/MOL
REMARK 924 INTRA-LIGAND FREE ENERGY PREDICTED BY IDOCK:   -1.10 KCAL/MOL
REMARK 927      BINDING AFFINITY PREDICTED BY RF-SCORE:    0.00 PKD
ROOT
HETATM    1  C   UNL     1      -5.352  15.678  69.814  1.00  0.00    -0.110 C  
HETATM    2  C   UNL     1      -6.859  15.743  69.700  1.00  0.00    -0.169 C  
ENDROOT
BRANCH   2   3
HETATM    3  O   UNL     1      -7.250  15.356  68.367  1.00  0.00    -0.109 OA 
BRANCH   3   4
HETATM    4  C   UNL     1      -8.606  15.323  68.155  1.00  0.00    -0.160 A  
HETATM    5  C   UNL     1      -9.168  16.194  67.209  1.00  0.00    -0.218 A  
HETATM    6  C   UNL     1     -10.565  16.209  67.041  1.00  0.00    -0.292 A  
HETATM    7  C   UNL     1      -8.387  17.155  66.360  1.00  0.00    -0.280 C  
HETATM    8  C   UNL     1     -11.387  15.374  67.794  1.00  0.00    -0.308 A  
HETATM    9  O   UNL     1      -8.926  17.962  65.614  1.00  0.00    -0.331 OA 
HETATM   10  O   UNL     1      -7.051  17.049  66.456  1.00  0.00    -0.225 OA 
HETATM   11  C   UNL     1     -10.829  14.486  68.718  1.00  0.00    -0.256 A  
HETATM   12  C   UNL     1      -9.439  14.441  68.860  1.00  0.00    -0.107 A  
BRANCH  11  13
HETATM   13  C   UNL     1     -11.700  13.583  69.555  1.00  0.00    -0.382 C  
BRANCH  13  14
HETATM   14  C   UNL     1     -11.517  12.112  69.239  1.00  0.00    -0.302 C  
HETATM   15  O   UNL     1     -12.484  11.423  68.916  1.00  0.00    -0.386 OA 
HETATM   16  N   UNL     1     -10.220  11.633  69.320  1.00  0.00    -0.425 N  
HETATM   17  H   UNL     1      -9.479  12.252  69.647  1.00  0.00     0.000 HD 
BRANCH  16  18
HETATM   18  C   UNL     1      -9.890  10.246  68.945  1.00  0.00    -0.195 C  
BRANCH  18  19
HETATM   19  C   UNL     1      -8.428   9.814  69.153  1.00  0.00    -0.143 A  
HETATM   20  C   UNL     1      -8.017   8.454  69.365  1.00  0.00    -0.112 A  
HETATM   21  C   UNL     1      -6.614   8.224  69.394  1.00  0.00    -0.042 A  
HETATM   22  C   UNL     1      -7.425  10.808  68.958  1.00  0.00    -0.118 A  
HETATM   23  C   UNL     1      -5.655   9.217  69.190  1.00  0.00    -0.036 A  
HETATM   24  C   UNL     1      -6.061  10.516  68.973  1.00  0.00    -0.040 A  
BRANCH  20  25
HETATM   25  N   UNL     1      -8.839   7.338  69.558  1.00  0.00    -0.137 NA 
HETATM   26  C   UNL     1      -9.099   6.394  68.447  1.00  0.00    -0.118 C  
HETATM   27  C   UNL     1      -8.924   4.958  68.951  1.00  0.00    -0.136 C  
HETATM   28  C   UNL     1      -9.870   4.672  70.111  1.00  0.00    -0.306 C  
HETATM   29  C   UNL     1      -9.674   5.698  71.212  1.00  0.00    -0.211 C  
HETATM   30  C   UNL     1      -9.732   7.130  70.698  1.00  0.00    -0.175 C  
ENDBRANCH  20  25
ENDBRANCH  18  19
BRANCH  18  31
HETATM   31  C   UNL     1     -10.300   9.922  67.494  1.00  0.00    -0.289 C  
HETATM   32  C   UNL     1      -9.197  11.951  66.343  1.00  0.00    -0.218 C  
HETATM   33  C   UNL     1      -9.353  10.430  66.387  1.00  0.00    -0.197 C  
HETATM   34  C   UNL     1      -9.896   9.969  65.030  1.00  0.00    -0.374 C  
ENDBRANCH  18  31
ENDBRANCH  16  18
ENDBRANCH  13  14
ENDBRANCH  11  13
ENDBRANCH   3   4
ENDBRANCH   2   3
TORSDOF 8
ENDMDL
MODEL      251
REMARK 921   NORMALIZED FREE ENERGY PREDICTED BY IDOCK:   -3.76 KCAL/MOL
REMARK 922        TOTAL FREE ENERGY PREDICTED BY IDOCK:   -7.91 KCAL/MOL
REMARK 923 INTER-LIGAND FREE ENERGY PREDICTED BY IDOCK:   -5.99 KCAL/MOL
REMARK 924 INTRA-LIGAND FREE ENERGY PREDICTED BY IDOCK:   -1.91 KCAL/MOL
REMARK 927      BINDING AFFINITY PREDICTED BY RF-SCORE:    0.00 PKD
ROOT
HETATM    1  C   UNL     1      -6.842  15.121  68.250  1.00  0.00    -0.119 C  
HETATM    2  C   UNL     1      -8.299  14.773  68.457  1.00  0.00    -0.160 C  
ENDROOT
BRANCH   2   3
HETATM    3  O   UNL     1      -8.859  14.317  67.209  1.00  0.00    -0.192 OA 
BRANCH   3   4
HETATM    4  C   UNL     1      -9.469  13.089  67.270  1.00  0.00    -0.224 A  
HETATM    5  C   UNL     1     -10.799  12.968  66.838  1.00  0.00    -0.282 A  
HETATM    6  C   UNL     1     -11.447  11.725  66.965  1.00  0.00    -0.368 A  
HETATM    7  C   UNL     1     -11.618  14.088  66.266  1.00  0.00    -0.369 C  
HETATM    8  C   UNL     1     -10.787  10.624  67.505  1.00  0.00    -0.351 A  
HETATM    9  O   UNL     1     -12.804  13.961  65.988  1.00  0.00    -0.430 OA 
HETATM   10  O   UNL     1     -10.951  15.234  66.052  1.00  0.00    -0.332 OA 
HETATM   11  C   UNL     1      -9.453  10.733  67.911  1.00  0.00    -0.165 A  
HETATM   12  C   UNL     1      -8.795  11.956  67.751  1.00  0.00    -0.166 A  
BRANCH  11  13
HETATM   13  C   UNL     1      -8.723   9.559  68.511  1.00  0.00    -0.124 C  
BRANCH  13  14
HETATM   14  C   UNL     1      -7.916   8.772  67.497  1.00  0.00    -0.102 C  
HETATM   15  O   UNL     1      -6.701   8.641  67.640  1.00  0.00    -0.064 OA 
HETATM   16  N   UNL     1      -8.635   8.217  66.452  1.00  0.00    -0.126 N  
HETATM   17  H   UNL     1      -9.632   8.414  66.372  1.00  0.00     0.000 HD 
BRANCH  16  18
HETATM   18  C   UNL     1      -7.987   7.349  65.452  1.00  0.00    -0.125 C  
BRANCH  18  19
HETATM   19  C   UNL     1      -7.218   6.134  66.001  1.00  0.00    -0.075 A  
HETATM   20  C   UNL     1      -7.743   5.236  66.991  1.00  0.00    -0.096 A  
HETATM   21  C   UNL     1      -6.951   4.088  67.274  1.00  0.00    -0.059 A  
HETATM   22  C   UNL     1      -5.988   5.804  65.362  1.00  0.00    -0.025 A  
HETATM   23  C   UNL     1      -5.754   3.786  66.624  1.00  0.00    -0.022 A  
HETATM   24  C   UNL     1      -5.268   4.649  65.665  1.00  0.00    -0.009 A  
BRANCH  20  25
HETATM   25  N   UNL     1      -8.933   5.369  67.715  1.00  0.00    -0.109 NA 
HETATM   26  C   UNL     1      -8.941   5.202  69.186  1.00  0.00    -0.100 C  
HETATM   27  C   UNL     1      -9.734   6.349  69.822  1.00  0.00    -0.172 C  
HETATM   28  C   UNL     1     -11.163   6.379  69.291  1.00  0.00    -0.440 C  
HETATM   29  C   UNL     1     -11.158   6.452  67.776  1.00  0.00    -0.376 C  
HETATM   30  C   UNL     1     -10.278   5.384  67.139  1.00  0.00    -0.224 C  
ENDBRANCH  20  25
ENDBRANCH  18  19
BRANCH  18  31
HETATM   31  C   UNL     1      -7.057   8.138  64.510  1.00  0.00    -0.077 C  
HETATM   32  C   UNL     1      -8.842   9.641  63.409  1.00  0.00    -0.251 C  
HETATM   33  C   UNL     1      -7.504   9.569  64.148  1.00  0.00    -0.122 C  
HETATM   34  C   UNL     1      -6.434  10.206  63.255  1.00  0.00    -0.138 C  
ENDBRANCH  18  31
ENDBRANCH  16  18
ENDBRANCH  13  14
ENDBRANCH  11  13
ENDBRANCH   3   4
ENDBRANCH   2   3
TORSDOF 8
ENDMDL
MODEL      252
REMARK 921   NORMALIZED FREE ENERGY PREDICTED BY IDOCK:   -3.75 KCAL/MOL
REMARK 922        TOTAL FREE ENERGY PREDICTED BY IDOCK:   -7.90 KCAL/MOL
REMARK 923 INTER-LIGAND FREE ENERGY PREDICTED BY IDOCK:   -6.96 KCAL/MOL
REMARK 924 INTRA-LIGAND FREE ENERGY PREDICTED BY IDOCK:   -0.94 KCAL/MOL
REMARK 927      BINDING AFFINITY PREDICTED BY RF-SCORE:    0.00 PKD
ROOT
HETATM    1  C   UNL     1      -6.430   1.548  68.011  1.00  0.00    -0.025 C  
HETATM    2  C   UNL     1      -6.719   2.138  66.649  1.00  0.00    -0.039 C  
ENDROOT
BRANCH   2   3
HETATM    3  O   UNL     1      -8.101   1.898  66.313  1.00  0.00    -0.075 OA 
BRANCH   3   4
HETATM    4  C   UNL     1      -8.932   2.974  66.506  1.00  0.00    -0.154 A  
HETATM    5  C   UNL     1      -9.559   3.558  65.394  1.00  0.00    -0.132 A  
HETATM    6  C   UNL     1     -10.356   4.702  65.584  1.00  0.00    -0.266 A  
HETATM    7  C   UNL     1      -9.424   3.069  63.982  1.00  0.00    -0.132 C  
HETATM    8  C   UNL     1     -10.530   5.253  66.851  1.00  0.00    -0.313 A  
HETATM    9  O   UNL     1      -9.913   3.664  63.030  1.00  0.00    -0.134 OA 
HETATM   10  O   UNL     1      -8.750   1.915  63.837  1.00  0.00    -0.087 OA 
HETATM   11  C   UNL     1      -9.930   4.658  67.965  1.00  0.00    -0.129 A  
HETATM   12  C   UNL     1      -9.169   3.500  67.786  1.00  0.00    -0.229 A  
BRANCH  11  13
HETATM   13  C   UNL     1     -10.093   5.245  69.344  1.00  0.00    -0.311 C  
BRANCH  13  14
HETATM   14  C   UNL     1     -10.597   6.675  69.332  1.00  0.00    -0.240 C  
HETATM   15  O   UNL     1     -11.767   6.921  69.621  1.00  0.00    -0.157 OA 
HETATM   16  N   UNL     1      -9.663   7.643  69.001  1.00  0.00    -0.158 N  
HETATM   17  H   UNL     1      -8.725   7.357  68.721  1.00  0.00     0.000 HD 
BRANCH  16  18
HETATM   18  C   UNL     1      -9.997   9.078  69.046  1.00  0.00    -0.185 C  
BRANCH  18  19
HETATM   19  C   UNL     1      -8.840  10.055  68.772  1.00  0.00    -0.137 A  
HETATM   20  C   UNL     1      -8.776  10.917  67.625  1.00  0.00    -0.127 A  
HETATM   21  C   UNL     1      -7.706  11.855  67.609  1.00  0.00    -0.141 A  
HETATM   22  C   UNL     1      -7.871  10.217  69.804  1.00  0.00    -0.151 A  
HETATM   23  C   UNL     1      -6.777  11.998  68.641  1.00  0.00    -0.080 A  
HETATM   24  C   UNL     1      -6.858  11.174  69.743  1.00  0.00    -0.090 A  
BRANCH  20  25
HETATM   25  N   UNL     1      -9.635  10.929  66.521  1.00  0.00    -0.190 NA 
HETATM   26  C   UNL     1     -10.711  11.941  66.416  1.00  0.00    -0.266 C  
HETATM   27  C   UNL     1     -10.704  12.545  65.008  1.00  0.00    -0.326 C  
HETATM   28  C   UNL     1     -10.902  11.461  63.954  1.00  0.00    -0.463 C  
HETATM   29  C   UNL     1      -9.859  10.372  64.120  1.00  0.00    -0.379 C  
HETATM   30  C   UNL     1      -9.780   9.847  65.547  1.00  0.00    -0.302 C  
ENDBRANCH  20  25
ENDBRANCH  18  19
BRANCH  18  31
HETATM   31  C   UNL     1     -10.676   9.476  70.371  1.00  0.00    -0.341 C  
HETATM   32  C   UNL     1     -12.031  11.490  69.495  1.00  0.00    -0.402 C  
HETATM   33  C   UNL     1     -12.053  10.162  70.254  1.00  0.00    -0.282 C  
HETATM   34  C   UNL     1     -12.587  10.431  71.665  1.00  0.00    -0.521 C  
ENDBRANCH  18  31
ENDBRANCH  16  18
ENDBRANCH  13  14
ENDBRANCH  11  13
ENDBRANCH   3   4
ENDBRANCH   2   3
TORSDOF 8
ENDMDL
MODEL      253
REMARK 921   NORMALIZED FREE ENERGY PREDICTED BY IDOCK:   -3.75 KCAL/MOL
REMARK 922        TOTAL FREE ENERGY PREDICTED BY IDOCK:   -7.90 KCAL/MOL
REMARK 923 INTER-LIGAND FREE ENERGY PREDICTED BY IDOCK:   -7.28 KCAL/MOL
REMARK 924 INTRA-LIGAND FREE ENERGY PREDICTED BY IDOCK:   -0.62 KCAL/MOL
REMARK 927      BINDING AFFINITY PREDICTED BY RF-SCORE:    0.00 PKD
ROOT
HETATM    1  C   UNL     1      -5.309   8.430  63.271  1.00  0.00    -0.063 C  
HETATM    2  C   UNL     1      -6.498   9.161  63.853  1.00  0.00    -0.089 C  
ENDROOT
BRANCH   2   3
HETATM    3  O   UNL     1      -7.611   8.248  63.954  1.00  0.00    -0.116 OA 
BRANCH   3   4
HETATM    4  C   UNL     1      -8.498   8.538  64.960  1.00  0.00    -0.164 A  
HETATM    5  C   UNL     1      -8.723   7.583  65.964  1.00  0.00    -0.178 A  
HETATM    6  C   UNL     1      -9.683   7.852  66.958  1.00  0.00    -0.269 A  
HETATM    7  C   UNL     1      -8.030   6.255  66.053  1.00  0.00    -0.114 C  
HETATM    8  C   UNL     1     -10.402   9.045  66.957  1.00  0.00    -0.339 A  
HETATM    9  O   UNL     1      -8.324   5.413  66.892  1.00  0.00    -0.108 OA 
HETATM   10  O   UNL     1      -7.042   6.064  65.162  1.00  0.00    -0.061 OA 
HETATM   11  C   UNL     1     -10.161  10.010  65.975  1.00  0.00    -0.318 A  
HETATM   12  C   UNL     1      -9.181   9.763  65.009  1.00  0.00    -0.307 A  
BRANCH  11  13
HETATM   13  C   UNL     1     -10.937  11.302  65.946  1.00  0.00    -0.221 C  
BRANCH  13  14
HETATM   14  C   UNL     1     -10.552  12.258  67.059  1.00  0.00    -0.223 C  
HETATM   15  O   UNL     1     -10.499  11.863  68.223  1.00  0.00    -0.192 OA 
HETATM   16  N   UNL     1     -10.258  13.553  66.668  1.00  0.00    -0.270 N  
HETATM   17  H   UNL     1     -10.375  13.819  65.691  1.00  0.00     0.000 HD 
BRANCH  16  18
HETATM   18  C   UNL     1      -9.777  14.556  67.636  1.00  0.00    -0.215 C  
BRANCH  18  19
HETATM   19  C   UNL     1      -8.265  14.843  67.624  1.00  0.00    -0.184 A  
HETATM   20  C   UNL     1      -7.701  16.164  67.660  1.00  0.00    -0.142 A  
HETATM   21  C   UNL     1      -6.286  16.235  67.787  1.00  0.00    -0.163 A  
HETATM   22  C   UNL     1      -7.392  13.724  67.749  1.00  0.00    -0.170 A  
HETATM   23  C   UNL     1      -5.457  15.120  67.918  1.00  0.00    -0.125 A  
HETATM   24  C   UNL     1      -6.011  13.858  67.897  1.00  0.00    -0.143 A  
BRANCH  20  25
HETATM   25  N   UNL     1      -8.383  17.383  67.570  1.00  0.00    -0.204 NA 
HETATM   26  C   UNL     1      -8.994  17.811  66.291  1.00  0.00    -0.174 C  
HETATM   27  C   UNL     1     -10.419  18.309  66.551  1.00  0.00    -0.378 C  
HETATM   28  C   UNL     1     -10.415  19.468  67.543  1.00  0.00    -0.596 C  
HETATM   29  C   UNL     1      -9.703  19.063  68.819  1.00  0.00    -0.473 C  
HETATM   30  C   UNL     1      -8.329  18.458  68.560  1.00  0.00    -0.323 C  
ENDBRANCH  20  25
ENDBRANCH  18  19
BRANCH  18  31
HETATM   31  C   UNL     1     -10.205  14.224  69.079  1.00  0.00    -0.156 C  
HETATM   32  C   UNL     1     -11.907  16.136  69.402  1.00  0.00    -0.154 C  
HETATM   33  C   UNL     1     -11.638  14.631  69.478  1.00  0.00    -0.350 C  
HETATM   34  C   UNL     1     -11.894  14.175  70.918  1.00  0.00    -0.294 C  
ENDBRANCH  18  31
ENDBRANCH  16  18
ENDBRANCH  13  14
ENDBRANCH  11  13
ENDBRANCH   3   4
ENDBRANCH   2   3
TORSDOF 8
ENDMDL
MODEL      254
REMARK 921   NORMALIZED FREE ENERGY PREDICTED BY IDOCK:   -3.70 KCAL/MOL
REMARK 922        TOTAL FREE ENERGY PREDICTED BY IDOCK:   -7.83 KCAL/MOL
REMARK 923 INTER-LIGAND FREE ENERGY PREDICTED BY IDOCK:   -5.67 KCAL/MOL
REMARK 924 INTRA-LIGAND FREE ENERGY PREDICTED BY IDOCK:   -2.16 KCAL/MOL
REMARK 927      BINDING AFFINITY PREDICTED BY RF-SCORE:    0.00 PKD
ROOT
HETATM    1  C   UNL     1     -11.111   4.830  73.563  1.00  0.00    -0.412 C  
HETATM    2  C   UNL     1     -10.841   5.557  72.265  1.00  0.00    -0.241 C  
ENDROOT
BRANCH   2   3
HETATM    3  O   UNL     1     -10.580   6.947  72.547  1.00  0.00    -0.206 OA 
BRANCH   3   4
HETATM    4  C   UNL     1      -9.682   7.544  71.697  1.00  0.00    -0.161 A  
HETATM    5  C   UNL     1      -8.516   8.115  72.231  1.00  0.00    -0.227 A  
HETATM    6  C   UNL     1      -7.629   8.787  71.369  1.00  0.00    -0.131 A  
HETATM    7  C   UNL     1      -8.141   8.094  73.684  1.00  0.00    -0.212 C  
HETATM    8  C   UNL     1      -7.892   8.887  70.005  1.00  0.00    -0.095 A  
HETATM    9  O   UNL     1      -7.161   8.684  74.120  1.00  0.00    -0.310 OA 
HETATM   10  O   UNL     1      -8.942   7.356  74.472  1.00  0.00    -0.187 OA 
HETATM   11  C   UNL     1      -9.038   8.296  69.465  1.00  0.00    -0.154 A  
HETATM   12  C   UNL     1      -9.901   7.595  70.311  1.00  0.00    -0.180 A  
BRANCH  11  13
HETATM   13  C   UNL     1      -9.351   8.404  67.994  1.00  0.00    -0.146 C  
BRANCH  13  14
HETATM   14  C   UNL     1      -9.953   9.740  67.605  1.00  0.00    -0.174 C  
HETATM   15  O   UNL     1     -11.139   9.973  67.831  1.00  0.00    -0.275 OA 
HETATM   16  N   UNL     1      -9.085  10.646  67.018  1.00  0.00    -0.144 N  
HETATM   17  H   UNL     1      -8.127  10.360  66.815  1.00  0.00     0.000 HD 
BRANCH  16  18
HETATM   18  C   UNL     1      -9.518  12.014  66.681  1.00  0.00    -0.217 C  
BRANCH  18  19
HETATM   19  C   UNL     1     -10.386  12.163  65.419  1.00  0.00    -0.301 A  
HETATM   20  C   UNL     1     -10.151  11.446  64.197  1.00  0.00    -0.309 A  
HETATM   21  C   UNL     1     -11.138  11.601  63.184  1.00  0.00    -0.209 A  
HETATM   22  C   UNL     1     -11.578  12.934  65.541  1.00  0.00    -0.395 A  
HETATM   23  C   UNL     1     -12.302  12.355  63.336  1.00  0.00    -0.603 A  
HETATM   24  C   UNL     1     -12.523  13.027  64.519  1.00  0.00    -0.427 A  
BRANCH  20  25
HETATM   25  N   UNL     1      -9.059  10.627  63.888  1.00  0.00    -0.210 NA 
HETATM   26  C   UNL     1      -7.720  11.214  63.659  1.00  0.00     0.791 C  
HETATM   27  C   UNL     1      -6.674  10.412  64.441  1.00  0.00    -0.000 C  
HETATM   28  C   UNL     1      -6.684   8.948  64.013  1.00  0.00    -0.087 C  
HETATM   29  C   UNL     1      -8.079   8.370  64.155  1.00  0.00    -0.145 C  
HETATM   30  C   UNL     1      -9.141   9.226  63.477  1.00  0.00     0.089 C  
ENDBRANCH  20  25
ENDBRANCH  18  19
BRANCH  18  31
HETATM   31  C   UNL     1      -8.330  12.992  66.581  1.00  0.00     0.159 C  
HETATM   32  C   UNL     1      -9.492  15.077  67.562  1.00  0.00    -0.203 C  
HETATM   33  C   UNL     1      -8.292  14.130  67.622  1.00  0.00    -0.187 C  
HETATM   34  C   UNL     1      -7.022  14.958  67.397  1.00  0.00    -0.162 C  
ENDBRANCH  18  31
ENDBRANCH  16  18
ENDBRANCH  13  14
ENDBRANCH  11  13
ENDBRANCH   3   4
ENDBRANCH   2   3
TORSDOF 8
ENDMDL
MODEL      255
REMARK 921   NORMALIZED FREE ENERGY PREDICTED BY IDOCK:   -3.70 KCAL/MOL
REMARK 922        TOTAL FREE ENERGY PREDICTED BY IDOCK:   -7.82 KCAL/MOL
REMARK 923 INTER-LIGAND FREE ENERGY PREDICTED BY IDOCK:   -7.59 KCAL/MOL
REMARK 924 INTRA-LIGAND FREE ENERGY PREDICTED BY IDOCK:   -0.23 KCAL/MOL
REMARK 927      BINDING AFFINITY PREDICTED BY RF-SCORE:    0.00 PKD
ROOT
HETATM    1  C   UNL     1      -9.310   5.238  73.815  1.00  0.00    -0.132 C  
HETATM    2  C   UNL     1     -10.815   5.086  73.798  1.00  0.00    -0.304 C  
ENDROOT
BRANCH   2   3
HETATM    3  O   UNL     1     -11.247   4.824  72.447  1.00  0.00    -0.069 OA 
BRANCH   3   4
HETATM    4  C   UNL     1     -10.864   5.771  71.530  1.00  0.00    -0.253 A  
HETATM    5  C   UNL     1     -10.006   5.398  70.484  1.00  0.00    -0.288 A  
HETATM    6  C   UNL     1      -9.559   6.383  69.584  1.00  0.00    -0.157 A  
HETATM    7  C   UNL     1      -9.489   4.007  70.257  1.00  0.00    -0.185 C  
HETATM    8  C   UNL     1      -9.958   7.710  69.716  1.00  0.00    -0.184 A  
HETATM    9  O   UNL     1      -8.668   3.743  69.387  1.00  0.00    -0.071 OA 
HETATM   10  O   UNL     1     -10.012   3.064  71.058  1.00  0.00    -0.090 OA 
HETATM   11  C   UNL     1     -10.835   8.082  70.740  1.00  0.00    -0.244 A  
HETATM   12  C   UNL     1     -11.312   7.099  71.613  1.00  0.00    -0.282 A  
BRANCH  11  13
HETATM   13  C   UNL     1     -11.270   9.515  70.912  1.00  0.00    -0.411 C  
BRANCH  13  14
HETATM   14  C   UNL     1     -10.777  10.428  69.806  1.00  0.00    -0.278 C  
HETATM   15  O   UNL     1      -9.585  10.717  69.727  1.00  0.00    -0.052 OA 
HETATM   16  N   UNL     1     -11.741  10.873  68.916  1.00  0.00    -0.376 N  
HETATM   17  H   UNL     1     -12.719  10.634  69.078  1.00  0.00     0.000 HD 
BRANCH  16  18
HETATM   18  C   UNL     1     -11.381  11.686  67.740  1.00  0.00    -0.288 C  
BRANCH  18  19
HETATM   19  C   UNL     1     -10.725  10.936  66.568  1.00  0.00    -0.270 A  
HETATM   20  C   UNL     1     -10.397  11.546  65.310  1.00  0.00    -0.272 A  
HETATM   21  C   UNL     1      -9.667  10.738  64.396  1.00  0.00    -0.356 A  
HETATM   22  C   UNL     1     -10.279   9.606  66.819  1.00  0.00    -0.308 A  
HETATM   23  C   UNL     1      -9.233   9.440  64.674  1.00  0.00    -0.185 A  
HETATM   24  C   UNL     1      -9.543   8.870  65.890  1.00  0.00    -0.293 A  
BRANCH  20  25
HETATM   25  N   UNL     1     -10.725  12.837  64.880  1.00  0.00    -0.292 NA 
HETATM   26  C   UNL     1     -11.648  13.038  63.740  1.00  0.00    -0.457 C  
HETATM   27  C   UNL     1     -12.685  14.104  64.110  1.00  0.00     0.092 C  
HETATM   28  C   UNL     1     -12.004  15.420  64.470  1.00  0.00    -0.226 C  
HETATM   29  C   UNL     1     -10.986  15.199  65.573  1.00  0.00    -0.370 C  
HETATM   30  C   UNL     1     -10.022  14.062  65.262  1.00  0.00    -0.252 C  
ENDBRANCH  20  25
ENDBRANCH  18  19
BRANCH  18  31
HETATM   31  C   UNL     1     -10.493  12.890  68.114  1.00  0.00    -0.245 C  
HETATM   32  C   UNL     1     -12.371  14.560  68.697  1.00  0.00    -0.040 C  
HETATM   33  C   UNL     1     -11.078  13.877  69.146  1.00  0.00    -0.284 C  
HETATM   34  C   UNL     1     -10.038  14.967  69.425  1.00  0.00    -0.166 C  
ENDBRANCH  18  31
ENDBRANCH  16  18
ENDBRANCH  13  14
ENDBRANCH  11  13
ENDBRANCH   3   4
ENDBRANCH   2   3
TORSDOF 8
ENDMDL
MODEL      256
REMARK 921   NORMALIZED FREE ENERGY PREDICTED BY IDOCK:   -3.68 KCAL/MOL
REMARK 922        TOTAL FREE ENERGY PREDICTED BY IDOCK:   -7.80 KCAL/MOL
REMARK 923 INTER-LIGAND FREE ENERGY PREDICTED BY IDOCK:   -6.63 KCAL/MOL
REMARK 924 INTRA-LIGAND FREE ENERGY PREDICTED BY IDOCK:   -1.17 KCAL/MOL
REMARK 927      BINDING AFFINITY PREDICTED BY RF-SCORE:    0.00 PKD
ROOT
HETATM    1  C   UNL     1      -8.223   4.606  65.883  1.00  0.00    -0.111 C  
HETATM    2  C   UNL     1      -8.162   6.117  65.881  1.00  0.00    -0.131 C  
ENDROOT
BRANCH   2   3
HETATM    3  O   UNL     1      -6.789   6.535  66.021  1.00  0.00    -0.054 OA 
BRANCH   3   4
HETATM    4  C   UNL     1      -6.608   7.895  66.082  1.00  0.00    -0.050 A  
HETATM    5  C   UNL     1      -6.111   8.566  64.955  1.00  0.00    -0.060 A  
HETATM    6  C   UNL     1      -5.861   9.949  65.040  1.00  0.00    -0.094 A  
HETATM    7  C   UNL     1      -5.788   7.913  63.643  1.00  0.00    -0.058 C  
HETATM    8  C   UNL     1      -6.104  10.651  66.218  1.00  0.00    -0.111 A  
HETATM    9  O   UNL     1      -5.268   8.519  62.715  1.00  0.00    -0.067 OA 
HETATM   10  O   UNL     1      -6.135   6.618  63.547  1.00  0.00    -0.036 OA 
HETATM   11  C   UNL     1      -6.625   9.991  67.335  1.00  0.00    -0.069 A  
HETATM   12  C   UNL     1      -6.911   8.626  67.242  1.00  0.00    -0.067 A  
BRANCH  11  13
HETATM   13  C   UNL     1      -6.882  10.727  68.625  1.00  0.00    -0.060 C  
BRANCH  13  14
HETATM   14  C   UNL     1      -7.495  12.099  68.421  1.00  0.00    -0.114 C  
HETATM   15  O   UNL     1      -6.928  13.100  68.856  1.00  0.00    -0.101 OA 
HETATM   16  N   UNL     1      -8.686  12.130  67.716  1.00  0.00    -0.162 N  
HETATM   17  H   UNL     1      -9.122  11.252  67.434  1.00  0.00     0.000 HD 
BRANCH  16  18
HETATM   18  C   UNL     1      -9.336  13.405  67.365  1.00  0.00    -0.221 C  
BRANCH  18  19
HETATM   19  C   UNL     1     -10.284  14.000  68.421  1.00  0.00    -0.239 A  
HETATM   20  C   UNL     1     -10.525  15.407  68.579  1.00  0.00    -0.234 A  
HETATM   21  C   UNL     1     -11.539  15.766  69.509  1.00  0.00    -0.368 A  
HETATM   22  C   UNL     1     -11.081  13.083  69.165  1.00  0.00    -0.245 A  
HETATM   23  C   UNL     1     -12.311  14.844  70.217  1.00  0.00    -0.393 A  
HETATM   24  C   UNL     1     -12.081  13.496  70.046  1.00  0.00    -0.411 A  
BRANCH  20  25
HETATM   25  N   UNL     1      -9.867  16.460  67.932  1.00  0.00    -0.235 NA 
HETATM   26  C   UNL     1     -10.360  16.969  66.632  1.00  0.00    -0.299 C  
HETATM   27  C   UNL     1     -10.406  18.501  66.672  1.00  0.00    -0.442 C  
HETATM   28  C   UNL     1      -9.025  19.075  66.969  1.00  0.00    -0.314 C  
HETATM   29  C   UNL     1      -8.475  18.481  68.252  1.00  0.00    -0.341 C  
HETATM   30  C   UNL     1      -8.534  16.959  68.267  1.00  0.00    -0.229 C  
ENDBRANCH  20  25
ENDBRANCH  18  19
BRANCH  18  31
HETATM   31  C   UNL     1     -10.083  13.327  66.019  1.00  0.00    -0.301 C  
HETATM   32  C   UNL     1     -10.903  10.887  66.200  1.00  0.00    -0.166 C  
HETATM   33  C   UNL     1     -11.276  12.351  65.955  1.00  0.00    -0.373 C  
HETATM   34  C   UNL     1     -11.917  12.451  64.566  1.00  0.00    -0.474 C  
ENDBRANCH  18  31
ENDBRANCH  16  18
ENDBRANCH  13  14
ENDBRANCH  11  13
ENDBRANCH   3   4
ENDBRANCH   2   3
TORSDOF 8
ENDMDL
MODEL      257
REMARK 921   NORMALIZED FREE ENERGY PREDICTED BY IDOCK:   -3.68 KCAL/MOL
REMARK 922        TOTAL FREE ENERGY PREDICTED BY IDOCK:   -7.79 KCAL/MOL
REMARK 923 INTER-LIGAND FREE ENERGY PREDICTED BY IDOCK:   -7.82 KCAL/MOL
REMARK 924 INTRA-LIGAND FREE ENERGY PREDICTED BY IDOCK:    0.03 KCAL/MOL
REMARK 927      BINDING AFFINITY PREDICTED BY RF-SCORE:    0.00 PKD
ROOT
HETATM    1  C   UNL     1      -8.650   7.989  73.728  1.00  0.00    -0.328 C  
HETATM    2  C   UNL     1      -9.344   6.792  74.337  1.00  0.00    -0.230 C  
ENDROOT
BRANCH   2   3
HETATM    3  O   UNL     1     -10.592   6.569  73.650  1.00  0.00    -0.282 OA 
BRANCH   3   4
HETATM    4  C   UNL     1     -10.606   6.981  72.341  1.00  0.00    -0.223 A  
HETATM    5  C   UNL     1     -10.307   6.053  71.332  1.00  0.00    -0.269 A  
HETATM    6  C   UNL     1     -10.255   6.491  69.995  1.00  0.00    -0.219 A  
HETATM    7  C   UNL     1     -10.002   4.602  71.567  1.00  0.00    -0.195 C  
HETATM    8  C   UNL     1     -10.498   7.823  69.667  1.00  0.00    -0.229 A  
HETATM    9  O   UNL     1      -9.655   3.848  70.667  1.00  0.00    -0.164 OA 
HETATM   10  O   UNL     1     -10.164   4.181  72.832  1.00  0.00    -0.152 OA 
HETATM   11  C   UNL     1     -10.824   8.745  70.666  1.00  0.00    -0.273 A  
HETATM   12  C   UNL     1     -10.914   8.305  71.990  1.00  0.00    -0.374 A  
BRANCH  11  13
HETATM   13  C   UNL     1     -11.077  10.194  70.336  1.00  0.00    -0.393 C  
BRANCH  13  14
HETATM   14  C   UNL     1     -10.145  10.739  69.271  1.00  0.00    -0.177 C  
HETATM   15  O   UNL     1      -8.936  10.815  69.487  1.00  0.00    -0.047 OA 
HETATM   16  N   UNL     1     -10.742  11.108  68.077  1.00  0.00    -0.197 N  
HETATM   17  H   UNL     1     -11.757  11.065  67.993  1.00  0.00     0.000 HD 
BRANCH  16  18
HETATM   18  C   UNL     1      -9.939  11.560  66.927  1.00  0.00    -0.205 C  
BRANCH  18  19
HETATM   19  C   UNL     1     -10.677  12.402  65.871  1.00  0.00    -0.299 A  
HETATM   20  C   UNL     1     -10.384  13.782  65.601  1.00  0.00    -0.311 A  
HETATM   21  C   UNL     1     -11.067  14.359  64.494  1.00  0.00    -0.301 A  
HETATM   22  C   UNL     1     -11.584  11.715  65.013  1.00  0.00    -0.133 A  
HETATM   23  C   UNL     1     -11.943  13.658  63.665  1.00  0.00    -0.371 A  
HETATM   24  C   UNL     1     -12.205  12.330  63.926  1.00  0.00    -0.608 A  
BRANCH  20  25
HETATM   25  N   UNL     1      -9.517  14.622  66.308  1.00  0.00    -0.299 NA 
HETATM   26  C   UNL     1      -8.964  14.203  67.616  1.00  0.00    -0.192 C  
HETATM   27  C   UNL     1      -7.457  14.478  67.641  1.00  0.00    -0.195 C  
HETATM   28  C   UNL     1      -7.172  15.957  67.403  1.00  0.00    -0.227 C  
HETATM   29  C   UNL     1      -7.821  16.413  66.110  1.00  0.00    -0.057 C  
HETATM   30  C   UNL     1      -9.295  16.040  66.028  1.00  0.00    -0.345 C  
ENDBRANCH  20  25
ENDBRANCH  18  19
BRANCH  18  31
HETATM   31  C   UNL     1      -9.228  10.391  66.217  1.00  0.00    -0.195 C  
HETATM   32  C   UNL     1      -6.796  11.070  66.746  1.00  0.00    -0.128 C  
HETATM   33  C   UNL     1      -7.860   9.972  66.794  1.00  0.00    -0.110 C  
HETATM   34  C   UNL     1      -7.340   8.771  65.996  1.00  0.00    -0.089 C  
ENDBRANCH  18  31
ENDBRANCH  16  18
ENDBRANCH  13  14
ENDBRANCH  11  13
ENDBRANCH   3   4
ENDBRANCH   2   3
TORSDOF 8
ENDMDL
MODEL      258
REMARK 921   NORMALIZED FREE ENERGY PREDICTED BY IDOCK:   -3.67 KCAL/MOL
REMARK 922        TOTAL FREE ENERGY PREDICTED BY IDOCK:   -7.78 KCAL/MOL
REMARK 923 INTER-LIGAND FREE ENERGY PREDICTED BY IDOCK:   -6.47 KCAL/MOL
REMARK 924 INTRA-LIGAND FREE ENERGY PREDICTED BY IDOCK:   -1.31 KCAL/MOL
REMARK 927      BINDING AFFINITY PREDICTED BY RF-SCORE:    0.00 PKD
ROOT
HETATM    1  C   UNL     1      -5.630  16.245  69.438  1.00  0.00    -0.132 C  
HETATM    2  C   UNL     1      -6.814  17.160  69.654  1.00  0.00     0.027 C  
ENDROOT
BRANCH   2   3
HETATM    3  O   UNL     1      -7.318  17.591  68.373  1.00  0.00    -0.211 OA 
BRANCH   3   4
HETATM    4  C   UNL     1      -8.653  17.341  68.170  1.00  0.00    -0.242 A  
HETATM    5  C   UNL     1      -9.368  18.151  67.274  1.00  0.00    -0.252 A  
HETATM    6  C   UNL     1     -10.750  17.939  67.118  1.00  0.00    -0.241 A  
HETATM    7  C   UNL     1      -8.773  19.270  66.471  1.00  0.00    -0.345 C  
HETATM    8  C   UNL     1     -11.409  16.942  67.833  1.00  0.00     0.113 A  
HETATM    9  O   UNL     1      -9.451  20.012  65.771  1.00  0.00    -0.306 OA 
HETATM   10  O   UNL     1      -7.437  19.385  66.551  1.00  0.00    -0.225 OA 
HETATM   11  C   UNL     1     -10.695  16.115  68.706  1.00  0.00    -0.294 A  
HETATM   12  C   UNL     1      -9.315  16.297  68.835  1.00  0.00    -0.248 A  
BRANCH  11  13
HETATM   13  C   UNL     1     -11.389  15.039  69.502  1.00  0.00    -0.308 C  
BRANCH  13  14
HETATM   14  C   UNL     1     -11.040  13.636  69.045  1.00  0.00    -0.255 C  
HETATM   15  O   UNL     1     -11.706  12.676  69.429  1.00  0.00    -0.297 OA 
HETATM   16  N   UNL     1      -9.966  13.532  68.177  1.00  0.00    -0.234 N  
HETATM   17  H   UNL     1      -9.429  14.368  67.945  1.00  0.00     0.000 HD 
BRANCH  16  18
HETATM   18  C   UNL     1      -9.583  12.239  67.581  1.00  0.00    -0.191 C  
BRANCH  18  19
HETATM   19  C   UNL     1      -8.151  11.756  67.866  1.00  0.00    -0.144 A  
HETATM   20  C   UNL     1      -7.806  10.386  68.129  1.00  0.00    -0.108 A  
HETATM   21  C   UNL     1      -6.416  10.101  68.229  1.00  0.00    -0.053 A  
HETATM   22  C   UNL     1      -7.101  12.704  67.696  1.00  0.00    -0.139 A  
HETATM   23  C   UNL     1      -5.409  11.051  68.047  1.00  0.00    -0.042 A  
HETATM   24  C   UNL     1      -5.752  12.359  67.782  1.00  0.00    -0.105 A  
BRANCH  20  25
HETATM   25  N   UNL     1      -8.680   9.308  68.308  1.00  0.00    -0.128 NA 
HETATM   26  C   UNL     1      -8.945   8.362  67.201  1.00  0.00    -0.137 C  
HETATM   27  C   UNL     1      -8.847   6.926  67.727  1.00  0.00    -0.119 C  
HETATM   28  C   UNL     1      -9.841   6.696  68.860  1.00  0.00    -0.143 C  
HETATM   29  C   UNL     1      -9.636   7.727  69.954  1.00  0.00    -0.164 C  
HETATM   30  C   UNL     1      -9.616   9.153  69.422  1.00  0.00    -0.165 C  
ENDBRANCH  20  25
ENDBRANCH  18  19
BRANCH  18  31
HETATM   31  C   UNL     1      -9.822  12.207  66.058  1.00  0.00    -0.260 C  
HETATM   32  C   UNL     1     -12.115  13.388  66.023  1.00  0.00    -0.487 C  
HETATM   33  C   UNL     1     -10.686  13.344  65.477  1.00  0.00    -0.301 C  
HETATM   34  C   UNL     1     -10.765  13.171  63.956  1.00  0.00    -0.330 C  
ENDBRANCH  18  31
ENDBRANCH  16  18
ENDBRANCH  13  14
ENDBRANCH  11  13
ENDBRANCH   3   4
ENDBRANCH   2   3
TORSDOF 8
ENDMDL
MODEL      259
REMARK 921   NORMALIZED FREE ENERGY PREDICTED BY IDOCK:   -3.66 KCAL/MOL
REMARK 922        TOTAL FREE ENERGY PREDICTED BY IDOCK:   -7.77 KCAL/MOL
REMARK 923 INTER-LIGAND FREE ENERGY PREDICTED BY IDOCK:   -6.36 KCAL/MOL
REMARK 924 INTRA-LIGAND FREE ENERGY PREDICTED BY IDOCK:   -1.40 KCAL/MOL
REMARK 927      BINDING AFFINITY PREDICTED BY RF-SCORE:    0.00 PKD
ROOT
HETATM    1  C   UNL     1      -5.866   8.762  63.849  1.00  0.00    -0.071 C  
HETATM    2  C   UNL     1      -7.173   8.258  64.417  1.00  0.00    -0.088 C  
ENDROOT
BRANCH   2   3
HETATM    3  O   UNL     1      -7.449   6.949  63.878  1.00  0.00    -0.080 OA 
BRANCH   3   4
HETATM    4  C   UNL     1      -8.068   6.089  64.751  1.00  0.00    -0.132 A  
HETATM    5  C   UNL     1      -7.642   4.753  64.807  1.00  0.00    -0.077 A  
HETATM    6  C   UNL     1      -8.320   3.855  65.652  1.00  0.00    -0.109 A  
HETATM    7  C   UNL     1      -6.513   4.181  64.000  1.00  0.00    -0.041 C  
HETATM    8  C   UNL     1      -9.398   4.276  66.429  1.00  0.00    -0.170 A  
HETATM    9  O   UNL     1      -6.234   2.988  64.011  1.00  0.00    -0.021 OA 
HETATM   10  O   UNL     1      -5.810   5.074  63.285  1.00  0.00    -0.016 OA 
HETATM   11  C   UNL     1      -9.808   5.612  66.397  1.00  0.00    -0.184 A  
HETATM   12  C   UNL     1      -9.112   6.515  65.588  1.00  0.00     0.061 A  
BRANCH  11  13
HETATM   13  C   UNL     1     -10.981   6.087  67.217  1.00  0.00    -0.356 C  
BRANCH  13  14
HETATM   14  C   UNL     1     -10.590   7.048  68.322  1.00  0.00    -0.196 C  
HETATM   15  O   UNL     1     -10.046   6.629  69.342  1.00  0.00    -0.166 OA 
HETATM   16  N   UNL     1     -10.866   8.384  68.087  1.00  0.00    -0.456 N  
HETATM   17  H   UNL     1     -11.367   8.649  67.239  1.00  0.00     0.000 HD 
BRANCH  16  18
HETATM   18  C   UNL     1     -10.449   9.432  69.036  1.00  0.00    -0.217 C  
BRANCH  18  19
HETATM   19  C   UNL     1      -9.035  10.005  68.841  1.00  0.00    -0.152 A  
HETATM   20  C   UNL     1      -8.759  11.244  68.170  1.00  0.00    -0.155 A  
HETATM   21  C   UNL     1      -7.408  11.687  68.209  1.00  0.00    -0.093 A  
HETATM   22  C   UNL     1      -7.968   9.338  69.511  1.00  0.00    -0.098 A  
HETATM   23  C   UNL     1      -6.385  11.018  68.883  1.00  0.00    -0.051 A  
HETATM   24  C   UNL     1      -6.665   9.837  69.535  1.00  0.00    -0.054 A  
BRANCH  20  25
HETATM   25  N   UNL     1      -9.664  12.055  67.474  1.00  0.00    -0.185 NA 
HETATM   26  C   UNL     1      -9.790  11.949  66.003  1.00  0.00    -0.235 C  
HETATM   27  C   UNL     1     -11.274  11.889  65.625  1.00  0.00    -0.360 C  
HETATM   28  C   UNL     1     -12.011  13.127  66.126  1.00  0.00    -0.478 C  
HETATM   29  C   UNL     1     -11.802  13.293  67.620  1.00  0.00    -0.400 C  
HETATM   30  C   UNL     1     -10.332  13.237  68.017  1.00  0.00    -0.241 C  
ENDBRANCH  20  25
ENDBRANCH  18  19
BRANCH  18  31
HETATM   31  C   UNL     1     -10.602   8.983  70.503  1.00  0.00    -0.274 C  
HETATM   32  C   UNL     1     -12.629  10.453  71.125  1.00  0.00    -0.512 C  
HETATM   33  C   UNL     1     -12.026   9.047  71.093  1.00  0.00    -0.356 C  
HETATM   34  C   UNL     1     -11.985   8.515  72.530  1.00  0.00    -0.401 C  
ENDBRANCH  18  31
ENDBRANCH  16  18
ENDBRANCH  13  14
ENDBRANCH  11  13
ENDBRANCH   3   4
ENDBRANCH   2   3
TORSDOF 8
ENDMDL
MODEL      260
REMARK 921   NORMALIZED FREE ENERGY PREDICTED BY IDOCK:   -3.66 KCAL/MOL
REMARK 922        TOTAL FREE ENERGY PREDICTED BY IDOCK:   -7.76 KCAL/MOL
REMARK 923 INTER-LIGAND FREE ENERGY PREDICTED BY IDOCK:   -6.77 KCAL/MOL
REMARK 924 INTRA-LIGAND FREE ENERGY PREDICTED BY IDOCK:   -0.99 KCAL/MOL
REMARK 927      BINDING AFFINITY PREDICTED BY RF-SCORE:    0.00 PKD
ROOT
HETATM    1  C   UNL     1      -8.669   9.237  67.158  1.00  0.00    -0.134 C  
HETATM    2  C   UNL     1      -7.663  10.362  67.072  1.00  0.00    -0.105 C  
ENDROOT
BRANCH   2   3
HETATM    3  O   UNL     1      -6.413   9.924  67.644  1.00  0.00    -0.063 OA 
BRANCH   3   4
HETATM    4  C   UNL     1      -5.998  10.647  68.734  1.00  0.00    -0.040 A  
HETATM    5  C   UNL     1      -5.737   9.973  69.938  1.00  0.00    -0.043 A  
HETATM    6  C   UNL     1      -5.378  10.721  71.074  1.00  0.00    -0.098 A  
HETATM    7  C   UNL     1      -5.839   8.488  70.126  1.00  0.00    -0.027 C  
HETATM    8  C   UNL     1      -5.276  12.109  71.017  1.00  0.00    -0.141 A  
HETATM    9  O   UNL     1      -5.693   7.950  71.217  1.00  0.00    -0.034 OA 
HETATM   10  O   UNL     1      -6.076   7.783  69.007  1.00  0.00    -0.033 OA 
HETATM   11  C   UNL     1      -5.508  12.782  69.813  1.00  0.00    -0.092 A  
HETATM   12  C   UNL     1      -5.828  12.039  68.673  1.00  0.00    -0.053 A  
BRANCH  11  13
HETATM   13  C   UNL     1      -5.418  14.285  69.731  1.00  0.00    -0.096 C  
BRANCH  13  14
HETATM   14  C   UNL     1      -6.610  14.920  69.042  1.00  0.00    -0.109 C  
HETATM   15  O   UNL     1      -6.504  15.352  67.895  1.00  0.00    -0.124 OA 
HETATM   16  N   UNL     1      -7.785  14.952  69.774  1.00  0.00    -0.393 N  
HETATM   17  H   UNL     1      -7.781  14.622  70.739  1.00  0.00     0.000 HD 
BRANCH  16  18
HETATM   18  C   UNL     1      -9.041  15.453  69.187  1.00  0.00    -0.243 C  
BRANCH  18  19
HETATM   19  C   UNL     1     -10.058  14.388  68.743  1.00  0.00    -0.234 A  
HETATM   20  C   UNL     1     -11.386  14.275  69.280  1.00  0.00    -0.283 A  
HETATM   21  C   UNL     1     -12.234  13.324  68.649  1.00  0.00    -0.115 A  
HETATM   22  C   UNL     1      -9.703  13.581  67.623  1.00  0.00    -0.229 A  
HETATM   23  C   UNL     1     -11.862  12.554  67.546  1.00  0.00    -0.389 A  
HETATM   24  C   UNL     1     -10.590  12.681  67.031  1.00  0.00    -0.255 A  
BRANCH  20  25
HETATM   25  N   UNL     1     -11.931  14.985  70.356  1.00  0.00    -0.299 NA 
HETATM   26  C   UNL     1     -13.375  15.307  70.390  1.00  0.00    -0.044 C  
HETATM   27  C   UNL     1     -13.938  14.969  71.774  1.00  0.00    -0.598 C  
HETATM   28  C   UNL     1     -13.203  15.745  72.862  1.00  0.00    -0.640 C  
HETATM   29  C   UNL     1     -11.710  15.492  72.768  1.00  0.00    -0.545 C  
HETATM   30  C   UNL     1     -11.163  15.716  71.364  1.00  0.00    -0.324 C  
ENDBRANCH  20  25
ENDBRANCH  18  19
BRANCH  18  31
HETATM   31  C   UNL     1      -8.790  16.417  68.011  1.00  0.00    -0.184 C  
HETATM   32  C   UNL     1     -10.340  18.334  68.773  1.00  0.00    -0.246 C  
HETATM   33  C   UNL     1      -8.939  17.922  68.316  1.00  0.00    -0.277 C  
HETATM   34  C   UNL     1      -8.601  18.715  67.048  1.00  0.00    -0.280 C  
ENDBRANCH  18  31
ENDBRANCH  16  18
ENDBRANCH  13  14
ENDBRANCH  11  13
ENDBRANCH   3   4
ENDBRANCH   2   3
TORSDOF 8
ENDMDL
MODEL      261
REMARK 921   NORMALIZED FREE ENERGY PREDICTED BY IDOCK:   -3.64 KCAL/MOL
REMARK 922        TOTAL FREE ENERGY PREDICTED BY IDOCK:   -7.74 KCAL/MOL
REMARK 923 INTER-LIGAND FREE ENERGY PREDICTED BY IDOCK:   -6.95 KCAL/MOL
REMARK 924 INTRA-LIGAND FREE ENERGY PREDICTED BY IDOCK:   -0.80 KCAL/MOL
REMARK 927      BINDING AFFINITY PREDICTED BY RF-SCORE:    0.00 PKD
ROOT
HETATM    1  C   UNL     1     -10.068  16.592  68.265  1.00  0.00    -0.259 C  
HETATM    2  C   UNL     1     -11.215  15.642  68.005  1.00  0.00    -0.339 C  
ENDROOT
BRANCH   2   3
HETATM    3  O   UNL     1     -11.854  15.318  69.257  1.00  0.00    -0.312 OA 
BRANCH   3   4
HETATM    4  C   UNL     1     -11.907  13.976  69.543  1.00  0.00    -0.325 A  
HETATM    5  C   UNL     1     -12.483  13.560  70.753  1.00  0.00    -0.428 A  
HETATM    6  C   UNL     1     -12.476  12.190  71.076  1.00  0.00    -0.369 A  
HETATM    7  C   UNL     1     -13.096  14.479  71.769  1.00  0.00    -0.346 C  
HETATM    8  C   UNL     1     -11.911  11.253  70.215  1.00  0.00    -0.466 A  
HETATM    9  O   UNL     1     -13.504  14.083  72.854  1.00  0.00    -0.647 OA 
HETATM   10  O   UNL     1     -13.192  15.766  71.394  1.00  0.00    -0.495 OA 
HETATM   11  C   UNL     1     -11.361  11.660  68.995  1.00  0.00    -0.337 A  
HETATM   12  C   UNL     1     -11.401  13.015  68.654  1.00  0.00    -0.329 A  
BRANCH  11  13
HETATM   13  C   UNL     1     -10.732  10.665  68.054  1.00  0.00    -0.275 C  
BRANCH  13  14
HETATM   14  C   UNL     1     -10.721   9.249  68.597  1.00  0.00    -0.143 C  
HETATM   15  O   UNL     1     -10.726   8.291  67.826  1.00  0.00    -0.195 OA 
HETATM   16  N   UNL     1     -10.685   9.131  69.976  1.00  0.00    -0.226 N  
HETATM   17  H   UNL     1     -10.736   9.972  70.551  1.00  0.00     0.000 HD 
BRANCH  16  18
HETATM   18  C   UNL     1     -10.573   7.815  70.630  1.00  0.00    -0.222 C  
BRANCH  18  19
HETATM   19  C   UNL     1     -11.877   7.218  71.187  1.00  0.00    -0.345 A  
HETATM   20  C   UNL     1     -11.927   6.082  72.064  1.00  0.00    -0.176 A  
HETATM   21  C   UNL     1     -13.207   5.758  72.593  1.00  0.00     0.855 A  
HETATM   22  C   UNL     1     -13.078   7.944  70.940  1.00  0.00     0.131 A  
HETATM   23  C   UNL     1     -14.366   6.495  72.341  1.00  0.00     0.233 A  
HETATM   24  C   UNL     1     -14.302   7.592  71.509  1.00  0.00    -0.603 A  
BRANCH  20  25
HETATM   25  N   UNL     1     -10.865   5.254  72.445  1.00  0.00    -0.229 NA 
HETATM   26  C   UNL     1     -10.386   4.182  71.542  1.00  0.00     0.050 C  
HETATM   27  C   UNL     1      -8.856   4.229  71.466  1.00  0.00    -0.147 C  
HETATM   28  C   UNL     1      -8.240   4.061  72.850  1.00  0.00    -0.092 C  
HETATM   29  C   UNL     1      -8.803   5.098  73.804  1.00  0.00    -0.118 C  
HETATM   30  C   UNL     1     -10.325   5.137  73.799  1.00  0.00    -0.238 C  
ENDBRANCH  20  25
ENDBRANCH  18  19
BRANCH  18  31
HETATM   31  C   UNL     1      -9.510   7.808  71.747  1.00  0.00    -0.191 C  
HETATM   32  C   UNL     1      -7.430   7.433  70.267  1.00  0.00    -0.083 C  
HETATM   33  C   UNL     1      -8.098   8.284  71.350  1.00  0.00    -0.148 C  
HETATM   34  C   UNL     1      -7.204   8.257  72.594  1.00  0.00    -0.133 C  
ENDBRANCH  18  31
ENDBRANCH  16  18
ENDBRANCH  13  14
ENDBRANCH  11  13
ENDBRANCH   3   4
ENDBRANCH   2   3
TORSDOF 8
ENDMDL
MODEL      262
REMARK 921   NORMALIZED FREE ENERGY PREDICTED BY IDOCK:   -3.64 KCAL/MOL
REMARK 922        TOTAL FREE ENERGY PREDICTED BY IDOCK:   -7.74 KCAL/MOL
REMARK 923 INTER-LIGAND FREE ENERGY PREDICTED BY IDOCK:   -6.72 KCAL/MOL
REMARK 924 INTRA-LIGAND FREE ENERGY PREDICTED BY IDOCK:   -1.02 KCAL/MOL
REMARK 927      BINDING AFFINITY PREDICTED BY RF-SCORE:    0.00 PKD
ROOT
HETATM    1  C   UNL     1      -5.880   2.004  67.585  1.00  0.00    -0.019 C  
HETATM    2  C   UNL     1      -6.540   3.069  66.739  1.00  0.00    -0.037 C  
ENDROOT
BRANCH   2   3
HETATM    3  O   UNL     1      -7.923   2.717  66.529  1.00  0.00    -0.079 OA 
BRANCH   3   4
HETATM    4  C   UNL     1      -8.822   3.694  66.879  1.00  0.00    -0.130 A  
HETATM    5  C   UNL     1      -9.793   4.091  65.947  1.00  0.00    -0.179 A  
HETATM    6  C   UNL     1     -10.671   5.139  66.281  1.00  0.00    -0.272 A  
HETATM    7  C   UNL     1      -9.960   3.496  64.579  1.00  0.00    -0.171 C  
HETATM    8  C   UNL     1     -10.589   5.778  67.516  1.00  0.00    -0.327 A  
HETATM    9  O   UNL     1     -10.760   3.935  63.763  1.00  0.00    -0.253 OA 
HETATM   10  O   UNL     1      -9.187   2.427  64.322  1.00  0.00    -0.113 OA 
HETATM   11  C   UNL     1      -9.641   5.367  68.458  1.00  0.00    -0.169 A  
HETATM   12  C   UNL     1      -8.793   4.301  68.145  1.00  0.00    -0.129 A  
BRANCH  11  13
HETATM   13  C   UNL     1      -9.524   6.053  69.795  1.00  0.00    -0.173 C  
BRANCH  13  14
HETATM   14  C   UNL     1      -9.849   7.533  69.741  1.00  0.00    -0.180 C  
HETATM   15  O   UNL     1     -10.546   8.046  70.614  1.00  0.00    -0.212 OA 
HETATM   16  N   UNL     1      -9.298   8.234  68.681  1.00  0.00    -0.143 N  
HETATM   17  H   UNL     1      -8.774   7.729  67.967  1.00  0.00     0.000 HD 
BRANCH  16  18
HETATM   18  C   UNL     1      -9.455   9.695  68.563  1.00  0.00    -0.141 C  
BRANCH  18  19
HETATM   19  C   UNL     1     -10.069  10.211  67.250  1.00  0.00    -0.254 A  
HETATM   20  C   UNL     1     -11.013  11.291  67.178  1.00  0.00    -0.291 A  
HETATM   21  C   UNL     1     -11.364  11.726  65.870  1.00  0.00    -0.324 A  
HETATM   22  C   UNL     1      -9.539   9.684  66.037  1.00  0.00    -0.305 A  
HETATM   23  C   UNL     1     -10.819  11.198  64.699  1.00  0.00    -0.295 A  
HETATM   24  C   UNL     1      -9.904  10.171  64.781  1.00  0.00    -0.382 A  
BRANCH  20  25
HETATM   25  N   UNL     1     -11.632  11.952  68.245  1.00  0.00    -0.307 NA 
HETATM   26  C   UNL     1     -12.400  11.192  69.257  1.00  0.00    -0.101 C  
HETATM   27  C   UNL     1     -11.997  11.662  70.658  1.00  0.00    -0.356 C  
HETATM   28  C   UNL     1     -12.252  13.157  70.822  1.00  0.00    -0.375 C  
HETATM   29  C   UNL     1     -11.545  13.932  69.727  1.00  0.00    -0.335 C  
HETATM   30  C   UNL     1     -11.850  13.396  68.335  1.00  0.00    -0.366 C  
ENDBRANCH  20  25
ENDBRANCH  18  19
BRANCH  18  31
HETATM   31  C   UNL     1      -8.132  10.444  68.818  1.00  0.00    -0.125 C  
HETATM   32  C   UNL     1      -6.510   8.506  68.300  1.00  0.00    -0.060 C  
HETATM   33  C   UNL     1      -6.906   9.958  68.019  1.00  0.00    -0.072 C  
HETATM   34  C   UNL     1      -5.710  10.851  68.366  1.00  0.00    -0.043 C  
ENDBRANCH  18  31
ENDBRANCH  16  18
ENDBRANCH  13  14
ENDBRANCH  11  13
ENDBRANCH   3   4
ENDBRANCH   2   3
TORSDOF 8
ENDMDL
MODEL      263
REMARK 921   NORMALIZED FREE ENERGY PREDICTED BY IDOCK:   -3.64 KCAL/MOL
REMARK 922        TOTAL FREE ENERGY PREDICTED BY IDOCK:   -7.73 KCAL/MOL
REMARK 923 INTER-LIGAND FREE ENERGY PREDICTED BY IDOCK:   -6.32 KCAL/MOL
REMARK 924 INTRA-LIGAND FREE ENERGY PREDICTED BY IDOCK:   -1.41 KCAL/MOL
REMARK 927      BINDING AFFINITY PREDICTED BY RF-SCORE:    0.00 PKD
ROOT
HETATM    1  C   UNL     1      -9.020  18.487  66.827  1.00  0.00    -0.293 C  
HETATM    2  C   UNL     1      -8.881  17.031  67.211  1.00  0.00    -0.211 C  
ENDROOT
BRANCH   2   3
HETATM    3  O   UNL     1      -9.967  16.282  66.629  1.00  0.00    -0.243 OA 
BRANCH   3   4
HETATM    4  C   UNL     1      -9.762  14.926  66.574  1.00  0.00    -0.276 A  
HETATM    5  C   UNL     1     -10.515  14.160  65.670  1.00  0.00    -0.333 A  
HETATM    6  C   UNL     1     -10.354  12.762  65.662  1.00  0.00    -0.296 A  
HETATM    7  C   UNL     1     -11.522  14.718  64.708  1.00  0.00    -0.410 C  
HETATM    8  C   UNL     1      -9.462  12.137  66.531  1.00  0.00    -0.235 A  
HETATM    9  O   UNL     1     -12.224  14.004  64.002  1.00  0.00    -0.578 OA 
HETATM   10  O   UNL     1     -11.581  16.059  64.654  1.00  0.00    -0.312 OA 
HETATM   11  C   UNL     1      -8.690  12.898  67.414  1.00  0.00    -0.197 A  
HETATM   12  C   UNL     1      -8.819  14.290  67.398  1.00  0.00    -0.211 A  
BRANCH  11  13
HETATM   13  C   UNL     1      -7.730  12.243  68.373  1.00  0.00    -0.141 C  
BRANCH  13  14
HETATM   14  C   UNL     1      -8.180  10.869  68.828  1.00  0.00    -0.151 C  
HETATM   15  O   UNL     1      -9.321  10.702  69.257  1.00  0.00    -0.187 OA 
HETATM   16  N   UNL     1      -7.245   9.855  68.707  1.00  0.00    -0.074 N  
HETATM   17  H   UNL     1      -6.301  10.081  68.392  1.00  0.00     0.000 HD 
BRANCH  16  18
HETATM   18  C   UNL     1      -7.585   8.456  69.022  1.00  0.00    -0.092 C  
BRANCH  18  19
HETATM   19  C   UNL     1      -8.854   7.897  68.354  1.00  0.00    -0.130 A  
HETATM   20  C   UNL     1      -8.993   7.701  66.939  1.00  0.00    -0.138 A  
HETATM   21  C   UNL     1     -10.180   7.041  66.514  1.00  0.00    -0.127 A  
HETATM   22  C   UNL     1      -9.874   7.400  69.217  1.00  0.00    -0.168 A  
HETATM   23  C   UNL     1     -11.157   6.556  67.384  1.00  0.00    -0.411 A  
HETATM   24  C   UNL     1     -11.005   6.737  68.742  1.00  0.00    -0.267 A  
BRANCH  20  25
HETATM   25  N   UNL     1      -8.103   8.095  65.934  1.00  0.00    -0.108 NA 
HETATM   26  C   UNL     1      -6.799   7.412  65.773  1.00  0.00    -0.056 C  
HETATM   27  C   UNL     1      -6.577   7.085  64.292  1.00  0.00    -0.039 C  
HETATM   28  C   UNL     1      -6.610   8.354  63.447  1.00  0.00    -0.085 C  
HETATM   29  C   UNL     1      -7.905   9.108  63.684  1.00  0.00    -0.136 C  
HETATM   30  C   UNL     1      -8.191   9.335  65.163  1.00  0.00    -0.141 C  
ENDBRANCH  20  25
ENDBRANCH  18  19
BRANCH  18  31
HETATM   31  C   UNL     1      -7.675   8.207  70.540  1.00  0.00    -0.085 C  
HETATM   32  C   UNL     1      -5.197   7.622  70.960  1.00  0.00    -0.027 C  
HETATM   33  C   UNL     1      -6.396   8.486  71.356  1.00  0.00    -0.050 C  
HETATM   34  C   UNL     1      -6.695   8.233  72.838  1.00  0.00    -0.111 C  
ENDBRANCH  18  31
ENDBRANCH  16  18
ENDBRANCH  13  14
ENDBRANCH  11  13
ENDBRANCH   3   4
ENDBRANCH   2   3
TORSDOF 8
ENDMDL
MODEL      264
REMARK 921   NORMALIZED FREE ENERGY PREDICTED BY IDOCK:   -3.64 KCAL/MOL
REMARK 922        TOTAL FREE ENERGY PREDICTED BY IDOCK:   -7.73 KCAL/MOL
REMARK 923 INTER-LIGAND FREE ENERGY PREDICTED BY IDOCK:   -5.61 KCAL/MOL
REMARK 924 INTRA-LIGAND FREE ENERGY PREDICTED BY IDOCK:   -2.12 KCAL/MOL
REMARK 927      BINDING AFFINITY PREDICTED BY RF-SCORE:    0.00 PKD
ROOT
HETATM    1  C   UNL     1      -7.161   8.827  66.220  1.00  0.00    -0.086 C  
HETATM    2  C   UNL     1      -7.531   9.292  67.611  1.00  0.00    -0.088 C  
ENDROOT
BRANCH   2   3
HETATM    3  O   UNL     1      -8.258  10.534  67.517  1.00  0.00    -0.114 OA 
BRANCH   3   4
HETATM    4  C   UNL     1      -9.462  10.544  68.176  1.00  0.00    -0.151 A  
HETATM    5  C   UNL     1     -10.573  11.137  67.556  1.00  0.00    -0.258 A  
HETATM    6  C   UNL     1     -11.790  11.207  68.259  1.00  0.00    -0.260 A  
HETATM    7  C   UNL     1     -10.564  11.742  66.182  1.00  0.00    -0.260 C  
HETATM    8  C   UNL     1     -11.903  10.697  69.551  1.00  0.00    -0.345 A  
HETATM    9  O   UNL     1     -11.531  12.331  65.716  1.00  0.00    -0.338 OA 
HETATM   10  O   UNL     1      -9.428  11.567  65.487  1.00  0.00    -0.224 OA 
HETATM   11  C   UNL     1     -10.807  10.081  70.162  1.00  0.00    -0.365 A  
HETATM   12  C   UNL     1      -9.608   9.974  69.451  1.00  0.00    -0.237 A  
BRANCH  11  13
HETATM   13  C   UNL     1     -10.901   9.535  71.563  1.00  0.00    -0.321 C  
BRANCH  13  14
HETATM   14  C   UNL     1      -9.881   8.452  71.856  1.00  0.00    -0.258 C  
HETATM   15  O   UNL     1      -8.861   8.718  72.488  1.00  0.00    -0.402 OA 
HETATM   16  N   UNL     1     -10.192   7.187  71.387  1.00  0.00    -0.193 N  
HETATM   17  H   UNL     1     -11.032   7.055  70.824  1.00  0.00     0.000 HD 
BRANCH  16  18
HETATM   18  C   UNL     1      -9.334   6.026  71.687  1.00  0.00    -0.148 C  
BRANCH  18  19
HETATM   19  C   UNL     1      -8.254   5.690  70.643  1.00  0.00    -0.118 A  
HETATM   20  C   UNL     1      -6.844   5.831  70.878  1.00  0.00    -0.058 A  
HETATM   21  C   UNL     1      -5.989   5.338  69.852  1.00  0.00    -0.018 A  
HETATM   22  C   UNL     1      -8.688   5.053  69.445  1.00  0.00    -0.108 A  
HETATM   23  C   UNL     1      -6.443   4.709  68.693  1.00  0.00    -0.037 A  
HETATM   24  C   UNL     1      -7.799   4.567  68.486  1.00  0.00    -0.079 A  
BRANCH  20  25
HETATM   25  N   UNL     1      -6.219   6.407  71.990  1.00  0.00    -0.042 NA 
HETATM   26  C   UNL     1      -5.155   7.421  71.814  1.00  0.00    -0.028 C  
HETATM   27  C   UNL     1      -5.422   8.604  72.751  1.00  0.00    -0.061 C  
HETATM   28  C   UNL     1      -5.470   8.143  74.203  1.00  0.00    -0.067 C  
HETATM   29  C   UNL     1      -6.493   7.034  74.368  1.00  0.00    -0.079 C  
HETATM   30  C   UNL     1      -6.304   5.907  73.362  1.00  0.00    -0.067 C  
ENDBRANCH  20  25
ENDBRANCH  18  19
BRANCH  18  31
HETATM   31  C   UNL     1     -10.155   4.754  71.975  1.00  0.00    -0.258 C  
HETATM   32  C   UNL     1      -9.745   4.623  74.519  1.00  0.00    -0.175 C  
HETATM   33  C   UNL     1     -10.771   4.642  73.384  1.00  0.00    -0.322 C  
HETATM   34  C   UNL     1     -11.587   3.347  73.461  1.00  0.00    -0.051 C  
ENDBRANCH  18  31
ENDBRANCH  16  18
ENDBRANCH  13  14
ENDBRANCH  11  13
ENDBRANCH   3   4
ENDBRANCH   2   3
TORSDOF 8
ENDMDL
MODEL      265
REMARK 921   NORMALIZED FREE ENERGY PREDICTED BY IDOCK:   -3.61 KCAL/MOL
REMARK 922        TOTAL FREE ENERGY PREDICTED BY IDOCK:   -7.70 KCAL/MOL
REMARK 923 INTER-LIGAND FREE ENERGY PREDICTED BY IDOCK:   -5.81 KCAL/MOL
REMARK 924 INTRA-LIGAND FREE ENERGY PREDICTED BY IDOCK:   -1.88 KCAL/MOL
REMARK 927      BINDING AFFINITY PREDICTED BY RF-SCORE:    0.00 PKD
ROOT
HETATM    1  C   UNL     1      -8.659   7.908  73.779  1.00  0.00    -0.323 C  
HETATM    2  C   UNL     1      -9.699   7.963  72.683  1.00  0.00    -0.240 C  
ENDROOT
BRANCH   2   3
HETATM    3  O   UNL     1      -9.213   7.240  71.533  1.00  0.00    -0.145 OA 
BRANCH   3   4
HETATM    4  C   UNL     1      -8.266   7.906  70.796  1.00  0.00    -0.110 A  
HETATM    5  C   UNL     1      -6.996   7.329  70.638  1.00  0.00    -0.057 A  
HETATM    6  C   UNL     1      -6.004   8.043  69.941  1.00  0.00    -0.022 A  
HETATM    7  C   UNL     1      -6.590   5.993  71.188  1.00  0.00    -0.050 C  
HETATM    8  C   UNL     1      -6.267   9.303  69.409  1.00  0.00    -0.040 A  
HETATM    9  O   UNL     1      -5.444   5.567  71.106  1.00  0.00    -0.008 OA 
HETATM   10  O   UNL     1      -7.580   5.281  71.753  1.00  0.00    -0.100 OA 
HETATM   11  C   UNL     1      -7.538   9.870  69.541  1.00  0.00    -0.125 A  
HETATM   12  C   UNL     1      -8.537   9.148  70.199  1.00  0.00    -0.195 A  
BRANCH  11  13
HETATM   13  C   UNL     1      -7.841  11.239  68.986  1.00  0.00    -0.079 C  
BRANCH  13  14
HETATM   14  C   UNL     1      -8.137  11.231  67.498  1.00  0.00    -0.124 C  
HETATM   15  O   UNL     1      -7.250  11.500  66.690  1.00  0.00    -0.132 OA 
HETATM   16  N   UNL     1      -9.430  10.889  67.141  1.00  0.00    -0.160 N  
HETATM   17  H   UNL     1     -10.125  10.731  67.871  1.00  0.00     0.000 HD 
BRANCH  16  18
HETATM   18  C   UNL     1      -9.824  10.749  65.727  1.00  0.00    -0.240 C  
BRANCH  18  19
HETATM   19  C   UNL     1      -8.911   9.875  64.850  1.00  0.00    -0.223 A  
HETATM   20  C   UNL     1      -8.649   8.486  65.103  1.00  0.00    -0.152 A  
HETATM   21  C   UNL     1      -7.897   7.802  64.108  1.00  0.00    -0.133 A  
HETATM   22  C   UNL     1      -8.439  10.449  63.634  1.00  0.00    -0.168 A  
HETATM   23  C   UNL     1      -7.457   8.388  62.921  1.00  0.00    -0.108 A  
HETATM   24  C   UNL     1      -7.727   9.718  62.682  1.00  0.00    -0.125 A  
BRANCH  20  25
HETATM   25  N   UNL     1      -9.037   7.737  66.220  1.00  0.00    -0.180 NA 
HETATM   26  C   UNL     1     -10.422   7.820  66.737  1.00  0.00    -0.248 C  
HETATM   27  C   UNL     1     -10.951   6.406  66.999  1.00  0.00    -0.463 C  
HETATM   28  C   UNL     1     -10.063   5.673  67.998  1.00  0.00    -0.211 C  
HETATM   29  C   UNL     1      -8.624   5.671  67.518  1.00  0.00    -0.108 C  
HETATM   30  C   UNL     1      -8.127   7.061  67.145  1.00  0.00    -0.118 C  
ENDBRANCH  20  25
ENDBRANCH  18  19
BRANCH  18  31
HETATM   31  C   UNL     1     -10.012  12.115  65.038  1.00  0.00    -0.242 C  
HETATM   32  C   UNL     1     -11.861  13.048  66.575  1.00  0.00    -0.464 C  
HETATM   33  C   UNL     1     -10.490  13.275  65.935  1.00  0.00    -0.289 C  
HETATM   34  C   UNL     1     -10.566  14.550  65.089  1.00  0.00    -0.429 C  
ENDBRANCH  18  31
ENDBRANCH  16  18
ENDBRANCH  13  14
ENDBRANCH  11  13
ENDBRANCH   3   4
ENDBRANCH   2   3
TORSDOF 8
ENDMDL
MODEL      266
REMARK 921   NORMALIZED FREE ENERGY PREDICTED BY IDOCK:   -3.61 KCAL/MOL
REMARK 922        TOTAL FREE ENERGY PREDICTED BY IDOCK:   -7.69 KCAL/MOL
REMARK 923 INTER-LIGAND FREE ENERGY PREDICTED BY IDOCK:   -6.67 KCAL/MOL
REMARK 924 INTRA-LIGAND FREE ENERGY PREDICTED BY IDOCK:   -1.02 KCAL/MOL
REMARK 927      BINDING AFFINITY PREDICTED BY RF-SCORE:    0.00 PKD
ROOT
HETATM    1  C   UNL     1      -7.350   9.079  62.601  1.00  0.00    -0.098 C  
HETATM    2  C   UNL     1      -8.199   8.195  63.488  1.00  0.00    -0.057 C  
ENDROOT
BRANCH   2   3
HETATM    3  O   UNL     1      -7.565   6.906  63.616  1.00  0.00    -0.088 OA 
BRANCH   3   4
HETATM    4  C   UNL     1      -7.846   6.244  64.785  1.00  0.00    -0.110 A  
HETATM    5  C   UNL     1      -8.249   4.900  64.726  1.00  0.00    -0.126 A  
HETATM    6  C   UNL     1      -8.603   4.241  65.918  1.00  0.00    -0.114 A  
HETATM    7  C   UNL     1      -8.362   4.096  63.464  1.00  0.00    -0.096 C  
HETATM    8  C   UNL     1      -8.556   4.901  67.144  1.00  0.00    -0.104 A  
HETATM    9  O   UNL     1      -8.806   2.954  63.448  1.00  0.00    -0.092 OA 
HETATM   10  O   UNL     1      -7.916   4.706  62.353  1.00  0.00    -0.063 OA 
HETATM   11  C   UNL     1      -8.130   6.231  67.210  1.00  0.00    -0.109 A  
HETATM   12  C   UNL     1      -7.740   6.877  66.033  1.00  0.00    -0.096 A  
BRANCH  11  13
HETATM   13  C   UNL     1      -8.085   6.970  68.523  1.00  0.00    -0.124 C  
BRANCH  13  14
HETATM   14  C   UNL     1      -9.400   6.935  69.277  1.00  0.00    -0.144 C  
HETATM   15  O   UNL     1      -9.838   5.870  69.709  1.00  0.00    -0.156 OA 
HETATM   16  N   UNL     1     -10.031   8.156  69.449  1.00  0.00    -0.183 N  
HETATM   17  H   UNL     1      -9.633   8.989  69.016  1.00  0.00     0.000 HD 
BRANCH  16  18
HETATM   18  C   UNL     1     -11.265   8.276  70.246  1.00  0.00    -0.176 C  
BRANCH  18  19
HETATM   19  C   UNL     1     -11.711   9.706  70.599  1.00  0.00    -0.353 A  
HETATM   20  C   UNL     1     -11.452  10.852  69.774  1.00  0.00    -0.313 A  
HETATM   21  C   UNL     1     -12.062  12.068  70.187  1.00  0.00    -0.377 A  
HETATM   22  C   UNL     1     -12.567   9.856  71.729  1.00  0.00    -0.506 A  
HETATM   23  C   UNL     1     -12.906  12.183  71.293  1.00  0.00    -0.349 A  
HETATM   24  C   UNL     1     -13.158  11.073  72.069  1.00  0.00    -0.449 A  
BRANCH  20  25
HETATM   25  N   UNL     1     -10.660  10.908  68.622  1.00  0.00    -0.183 NA 
HETATM   26  C   UNL     1      -9.333  11.566  68.653  1.00  0.00    -0.137 C  
HETATM   27  C   UNL     1      -8.304  10.662  67.965  1.00  0.00    -0.118 C  
HETATM   28  C   UNL     1      -8.712  10.376  66.524  1.00  0.00    -0.143 C  
HETATM   29  C   UNL     1     -10.111   9.792  66.482  1.00  0.00    -0.307 C  
HETATM   30  C   UNL     1     -11.120  10.625  67.263  1.00  0.00    -0.243 C  
ENDBRANCH  20  25
ENDBRANCH  18  19
BRANCH  18  31
HETATM   31  C   UNL     1     -11.205   7.443  71.542  1.00  0.00    -0.271 C  
HETATM   32  C   UNL     1      -8.834   8.121  72.301  1.00  0.00    -0.248 C  
HETATM   33  C   UNL     1     -10.313   7.998  72.671  1.00  0.00    -0.398 C  
HETATM   34  C   UNL     1     -10.423   7.068  73.884  1.00  0.00    -0.332 C  
ENDBRANCH  18  31
ENDBRANCH  16  18
ENDBRANCH  13  14
ENDBRANCH  11  13
ENDBRANCH   3   4
ENDBRANCH   2   3
TORSDOF 8
ENDMDL
MODEL      267
REMARK 921   NORMALIZED FREE ENERGY PREDICTED BY IDOCK:   -3.60 KCAL/MOL
REMARK 922        TOTAL FREE ENERGY PREDICTED BY IDOCK:   -7.69 KCAL/MOL
REMARK 923 INTER-LIGAND FREE ENERGY PREDICTED BY IDOCK:   -5.99 KCAL/MOL
REMARK 924 INTRA-LIGAND FREE ENERGY PREDICTED BY IDOCK:   -1.70 KCAL/MOL
REMARK 927      BINDING AFFINITY PREDICTED BY RF-SCORE:    0.00 PKD
ROOT
HETATM    1  C   UNL     1      -6.285   4.454  65.197  1.00  0.00    -0.034 C  
HETATM    2  C   UNL     1      -7.304   5.416  65.767  1.00  0.00    -0.073 C  
ENDROOT
BRANCH   2   3
HETATM    3  O   UNL     1      -7.171   5.448  67.203  1.00  0.00    -0.072 OA 
BRANCH   3   4
HETATM    4  C   UNL     1      -8.327   5.751  67.877  1.00  0.00    -0.104 A  
HETATM    5  C   UNL     1      -9.107   4.705  68.396  1.00  0.00    -0.154 A  
HETATM    6  C   UNL     1     -10.326   5.012  69.028  1.00  0.00    -0.155 A  
HETATM    7  C   UNL     1      -8.753   3.249  68.306  1.00  0.00    -0.104 C  
HETATM    8  C   UNL     1     -10.762   6.329  69.145  1.00  0.00    -0.362 A  
HETATM    9  O   UNL     1      -9.507   2.364  68.690  1.00  0.00    -0.183 OA 
HETATM   10  O   UNL     1      -7.537   2.985  67.799  1.00  0.00    -0.057 OA 
HETATM   11  C   UNL     1      -9.976   7.376  68.655  1.00  0.00    -0.174 A  
HETATM   12  C   UNL     1      -8.746   7.079  68.061  1.00  0.00    -0.126 A  
BRANCH  11  13
HETATM   13  C   UNL     1     -10.434   8.809  68.758  1.00  0.00    -0.214 C  
BRANCH  13  14
HETATM   14  C   UNL     1      -9.297   9.809  68.682  1.00  0.00    -0.147 C  
HETATM   15  O   UNL     1      -8.734  10.185  69.709  1.00  0.00    -0.188 OA 
HETATM   16  N   UNL     1      -8.946  10.230  67.410  1.00  0.00    -0.135 N  
HETATM   17  H   UNL     1      -9.495   9.914  66.610  1.00  0.00     0.000 HD 
BRANCH  16  18
HETATM   18  C   UNL     1      -7.796  11.125  67.189  1.00  0.00    -0.139 C  
BRANCH  18  19
HETATM   19  C   UNL     1      -8.092  12.635  67.222  1.00  0.00    -0.178 A  
HETATM   20  C   UNL     1      -9.196  13.249  66.540  1.00  0.00    -0.172 A  
HETATM   21  C   UNL     1      -9.397  14.633  66.800  1.00  0.00    -0.275 A  
HETATM   22  C   UNL     1      -7.313  13.427  68.114  1.00  0.00    -0.117 A  
HETATM   23  C   UNL     1      -8.623  15.382  67.688  1.00  0.00    -0.176 A  
HETATM   24  C   UNL     1      -7.575  14.778  68.347  1.00  0.00    -0.116 A  
BRANCH  20  25
HETATM   25  N   UNL     1     -10.085  12.645  65.644  1.00  0.00    -0.274 NA 
HETATM   26  C   UNL     1     -11.488  12.383  66.037  1.00  0.00    -0.382 C  
HETATM   27  C   UNL     1     -12.424  12.846  64.916  1.00  0.00    -0.540 C  
HETATM   28  C   UNL     1     -12.103  12.126  63.611  1.00  0.00    -0.648 C  
HETATM   29  C   UNL     1     -10.640  12.312  63.255  1.00  0.00    -0.312 C  
HETATM   30  C   UNL     1      -9.706  11.962  64.407  1.00  0.00    -0.109 C  
ENDBRANCH  20  25
ENDBRANCH  18  19
BRANCH  18  31
HETATM   31  C   UNL     1      -7.046  10.797  65.883  1.00  0.00    -0.080 C  
HETATM   32  C   UNL     1      -5.696   8.771  66.737  1.00  0.00    -0.048 C  
HETATM   33  C   UNL     1      -6.649   9.321  65.674  1.00  0.00    -0.069 C  
HETATM   34  C   UNL     1      -5.967   9.186  64.308  1.00  0.00    -0.071 C  
ENDBRANCH  18  31
ENDBRANCH  16  18
ENDBRANCH  13  14
ENDBRANCH  11  13
ENDBRANCH   3   4
ENDBRANCH   2   3
TORSDOF 8
ENDMDL
MODEL      268
REMARK 921   NORMALIZED FREE ENERGY PREDICTED BY IDOCK:   -3.60 KCAL/MOL
REMARK 922        TOTAL FREE ENERGY PREDICTED BY IDOCK:   -7.67 KCAL/MOL
REMARK 923 INTER-LIGAND FREE ENERGY PREDICTED BY IDOCK:   -6.88 KCAL/MOL
REMARK 924 INTRA-LIGAND FREE ENERGY PREDICTED BY IDOCK:   -0.80 KCAL/MOL
REMARK 927      BINDING AFFINITY PREDICTED BY RF-SCORE:    0.00 PKD
ROOT
HETATM    1  C   UNL     1      -8.175  16.747  66.287  1.00  0.00    -0.359 C  
HETATM    2  C   UNL     1      -9.183  15.622  66.341  1.00  0.00    -0.311 C  
ENDROOT
BRANCH   2   3
HETATM    3  O   UNL     1      -9.829  15.626  67.631  1.00  0.00    -0.225 OA 
BRANCH   3   4
HETATM    4  C   UNL     1     -10.516  14.476  67.931  1.00  0.00    -0.242 A  
HETATM    5  C   UNL     1     -11.180  14.383  69.164  1.00  0.00    -0.300 A  
HETATM    6  C   UNL     1     -11.826  13.179  69.500  1.00  0.00    -0.383 A  
HETATM    7  C   UNL     1     -11.237  15.476  70.190  1.00  0.00    -0.318 C  
HETATM    8  C   UNL     1     -11.816  12.091  68.631  1.00  0.00    -0.366 A  
HETATM    9  O   UNL     1     -11.749  15.320  71.291  1.00  0.00    -0.309 OA 
HETATM   10  O   UNL     1     -10.710  16.651  69.805  1.00  0.00    -0.328 OA 
HETATM   11  C   UNL     1     -11.178  12.189  67.390  1.00  0.00    -0.362 A  
HETATM   12  C   UNL     1     -10.569  13.396  67.036  1.00  0.00    -0.264 A  
BRANCH  11  13
HETATM   13  C   UNL     1     -11.141  11.020  66.439  1.00  0.00    -0.137 C  
BRANCH  13  14
HETATM   14  C   UNL     1     -10.380   9.827  66.983  1.00  0.00    -0.239 C  
HETATM   15  O   UNL     1     -10.476   8.730  66.436  1.00  0.00    -0.216 OA 
HETATM   16  N   UNL     1      -9.585  10.071  68.090  1.00  0.00    -0.138 N  
HETATM   17  H   UNL     1      -9.599  10.996  68.520  1.00  0.00     0.000 HD 
BRANCH  16  18
HETATM   18  C   UNL     1      -8.719   9.023  68.659  1.00  0.00    -0.133 C  
BRANCH  18  19
HETATM   19  C   UNL     1      -9.418   7.719  69.083  1.00  0.00    -0.151 A  
HETATM   20  C   UNL     1      -9.161   6.441  68.480  1.00  0.00    -0.126 A  
HETATM   21  C   UNL     1      -9.791   5.323  69.095  1.00  0.00    -0.257 A  
HETATM   22  C   UNL     1     -10.239   7.773  70.246  1.00  0.00    -0.199 A  
HETATM   23  C   UNL     1     -10.583   5.406  70.241  1.00  0.00    -0.329 A  
HETATM   24  C   UNL     1     -10.810   6.637  70.819  1.00  0.00    -0.299 A  
BRANCH  20  25
HETATM   25  N   UNL     1      -8.374   6.174  67.354  1.00  0.00    -0.109 NA 
HETATM   26  C   UNL     1      -8.041   4.780  66.982  1.00  0.00    -0.106 C  
HETATM   27  C   UNL     1      -8.278   4.586  65.480  1.00  0.00    -0.110 C  
HETATM   28  C   UNL     1      -7.433   5.560  64.668  1.00  0.00    -0.067 C  
HETATM   29  C   UNL     1      -7.701   6.985  65.115  1.00  0.00    -0.113 C  
HETATM   30  C   UNL     1      -7.580   7.161  66.623  1.00  0.00    -0.093 C  
ENDBRANCH  20  25
ENDBRANCH  18  19
BRANCH  18  31
HETATM   31  C   UNL     1      -7.878   9.541  69.842  1.00  0.00    -0.140 C  
HETATM   32  C   UNL     1      -5.898   7.901  69.627  1.00  0.00    -0.023 C  
HETATM   33  C   UNL     1      -6.351   9.359  69.727  1.00  0.00    -0.040 C  
HETATM   34  C   UNL     1      -5.690   9.978  70.964  1.00  0.00    -0.083 C  
ENDBRANCH  18  31
ENDBRANCH  16  18
ENDBRANCH  13  14
ENDBRANCH  11  13
ENDBRANCH   3   4
ENDBRANCH   2   3
TORSDOF 8
ENDMDL
MODEL      269
REMARK 921   NORMALIZED FREE ENERGY PREDICTED BY IDOCK:   -3.59 KCAL/MOL
REMARK 922        TOTAL FREE ENERGY PREDICTED BY IDOCK:   -7.67 KCAL/MOL
REMARK 923 INTER-LIGAND FREE ENERGY PREDICTED BY IDOCK:   -6.94 KCAL/MOL
REMARK 924 INTRA-LIGAND FREE ENERGY PREDICTED BY IDOCK:   -0.74 KCAL/MOL
REMARK 927      BINDING AFFINITY PREDICTED BY RF-SCORE:    0.00 PKD
ROOT
HETATM    1  C   UNL     1      -7.939  15.261  68.784  1.00  0.00    -0.158 C  
HETATM    2  C   UNL     1      -9.187  14.918  68.001  1.00  0.00    -0.185 C  
ENDROOT
BRANCH   2   3
HETATM    3  O   UNL     1      -8.817  14.161  66.830  1.00  0.00    -0.227 OA 
BRANCH   3   4
HETATM    4  C   UNL     1      -9.209  12.845  66.852  1.00  0.00    -0.234 A  
HETATM    5  C   UNL     1     -10.145  12.398  65.907  1.00  0.00    -0.272 A  
HETATM    6  C   UNL     1     -10.598  11.067  65.972  1.00  0.00    -0.275 A  
HETATM    7  C   UNL     1     -10.739  13.249  64.823  1.00  0.00    -0.378 C  
HETATM    8  C   UNL     1     -10.129  10.197  66.953  1.00  0.00    -0.279 A  
HETATM    9  O   UNL     1     -11.622  12.844  64.077  1.00  0.00    -0.369 OA 
HETATM   10  O   UNL     1     -10.214  14.481  64.709  1.00  0.00    -0.390 OA 
HETATM   11  C   UNL     1      -9.176  10.630  67.881  1.00  0.00    -0.150 A  
HETATM   12  C   UNL     1      -8.695  11.940  67.795  1.00  0.00    -0.158 A  
BRANCH  11  13
HETATM   13  C   UNL     1      -8.665   9.711  68.960  1.00  0.00    -0.142 C  
BRANCH  13  14
HETATM   14  C   UNL     1      -8.450   8.287  68.484  1.00  0.00    -0.126 C  
HETATM   15  O   UNL     1      -7.396   7.971  67.935  1.00  0.00    -0.088 OA 
HETATM   16  N   UNL     1      -9.489   7.405  68.727  1.00  0.00    -0.144 N  
HETATM   17  H   UNL     1     -10.354   7.754  69.140  1.00  0.00     0.000 HD 
BRANCH  16  18
HETATM   18  C   UNL     1      -9.370   5.972  68.403  1.00  0.00    -0.119 C  
BRANCH  18  19
HETATM   19  C   UNL     1      -9.325   5.005  69.599  1.00  0.00    -0.184 A  
HETATM   20  C   UNL     1      -9.909   5.288  70.880  1.00  0.00    -0.194 A  
HETATM   21  C   UNL     1      -9.896   4.221  71.821  1.00  0.00    -0.250 A  
HETATM   22  C   UNL     1      -8.816   3.696  69.354  1.00  0.00    -0.150 A  
HETATM   23  C   UNL     1      -9.399   2.946  71.549  1.00  0.00    -0.200 A  
HETATM   24  C   UNL     1      -8.854   2.682  70.311  1.00  0.00    -0.147 A  
BRANCH  20  25
HETATM   25  N   UNL     1     -10.475   6.494  71.309  1.00  0.00    -0.212 NA 
HETATM   26  C   UNL     1      -9.941   7.195  72.499  1.00  0.00    -0.168 C  
HETATM   27  C   UNL     1      -9.766   8.683  72.175  1.00  0.00    -0.383 C  
HETATM   28  C   UNL     1     -11.093   9.304  71.754  1.00  0.00    -0.398 C  
HETATM   29  C   UNL     1     -11.692   8.528  70.596  1.00  0.00    -0.161 C  
HETATM   30  C   UNL     1     -11.762   7.031  70.866  1.00  0.00    -0.343 C  
ENDBRANCH  20  25
ENDBRANCH  18  19
BRANCH  18  31
HETATM   31  C   UNL     1      -8.166   5.681  67.486  1.00  0.00    -0.101 C  
HETATM   32  C   UNL     1      -9.384   4.232  65.733  1.00  0.00    -0.164 C  
HETATM   33  C   UNL     1      -8.483   5.440  65.996  1.00  0.00    -0.123 C  
HETATM   34  C   UNL     1      -7.165   5.222  65.244  1.00  0.00    -0.067 C  
ENDBRANCH  18  31
ENDBRANCH  16  18
ENDBRANCH  13  14
ENDBRANCH  11  13
ENDBRANCH   3   4
ENDBRANCH   2   3
TORSDOF 8
ENDMDL
MODEL      270
REMARK 921   NORMALIZED FREE ENERGY PREDICTED BY IDOCK:   -3.55 KCAL/MOL
REMARK 922        TOTAL FREE ENERGY PREDICTED BY IDOCK:   -7.61 KCAL/MOL
REMARK 923 INTER-LIGAND FREE ENERGY PREDICTED BY IDOCK:   -6.76 KCAL/MOL
REMARK 924 INTRA-LIGAND FREE ENERGY PREDICTED BY IDOCK:   -0.85 KCAL/MOL
REMARK 927      BINDING AFFINITY PREDICTED BY RF-SCORE:    0.00 PKD
ROOT
HETATM    1  C   UNL     1     -11.814  11.708  70.256  1.00  0.00    -0.414 C  
HETATM    2  C   UNL     1     -12.167  10.879  69.042  1.00  0.00    -0.042 C  
ENDROOT
BRANCH   2   3
HETATM    3  O   UNL     1     -12.146  11.721  67.871  1.00  0.00    -0.592 OA 
BRANCH   3   4
HETATM    4  C   UNL     1     -11.210  11.370  66.930  1.00  0.00    -0.264 A  
HETATM    5  C   UNL     1     -10.853  12.303  65.944  1.00  0.00    -0.306 A  
HETATM    6  C   UNL     1      -9.946  11.920  64.939  1.00  0.00    -0.269 A  
HETATM    7  C   UNL     1     -11.394  13.700  65.853  1.00  0.00    -0.309 C  
HETATM    8  C   UNL     1      -9.401  10.638  64.915  1.00  0.00    -0.271 A  
HETATM    9  O   UNL     1     -11.126  14.450  64.922  1.00  0.00    -0.359 OA 
HETATM   10  O   UNL     1     -12.171  14.082  66.880  1.00  0.00    -0.436 OA 
HETATM   11  C   UNL     1      -9.732   9.714  65.911  1.00  0.00    -0.343 A  
HETATM   12  C   UNL     1     -10.603  10.104  66.932  1.00  0.00    -0.267 A  
BRANCH  11  13
HETATM   13  C   UNL     1      -9.166   8.317  65.897  1.00  0.00    -0.185 C  
BRANCH  13  14
HETATM   14  C   UNL     1      -9.916   7.358  66.802  1.00  0.00    -0.230 C  
HETATM   15  O   UNL     1     -11.144   7.387  66.852  1.00  0.00    -0.236 OA 
HETATM   16  N   UNL     1      -9.133   6.469  67.519  1.00  0.00    -0.116 N  
HETATM   17  H   UNL     1      -8.118   6.541  67.465  1.00  0.00     0.000 HD 
BRANCH  16  18
HETATM   18  C   UNL     1      -9.739   5.420  68.360  1.00  0.00    -0.136 C  
BRANCH  18  19
HETATM   19  C   UNL     1      -9.122   5.225  69.756  1.00  0.00    -0.150 A  
HETATM   20  C   UNL     1      -8.291   6.199  70.406  1.00  0.00    -0.125 A  
HETATM   21  C   UNL     1      -7.927   5.910  71.751  1.00  0.00    -0.111 A  
HETATM   22  C   UNL     1      -9.542   4.081  70.495  1.00  0.00    -0.261 A  
HETATM   23  C   UNL     1      -8.363   4.786  72.454  1.00  0.00    -0.116 A  
HETATM   24  C   UNL     1      -9.172   3.866  71.823  1.00  0.00    -0.184 A  
BRANCH  20  25
HETATM   25  N   UNL     1      -7.790   7.388  69.864  1.00  0.00    -0.112 NA 
HETATM   26  C   UNL     1      -8.642   8.596  69.784  1.00  0.00    -0.131 C  
HETATM   27  C   UNL     1      -7.854   9.807  70.296  1.00  0.00    -0.190 C  
HETATM   28  C   UNL     1      -6.583  10.009  69.479  1.00  0.00    -0.055 C  
HETATM   29  C   UNL     1      -5.753   8.739  69.479  1.00  0.00    -0.034 C  
HETATM   30  C   UNL     1      -6.560   7.510  69.082  1.00  0.00    -0.040 C  
ENDBRANCH  20  25
ENDBRANCH  18  19
BRANCH  18  31
HETATM   31  C   UNL     1      -9.785   4.055  67.645  1.00  0.00    -0.164 C  
HETATM   32  C   UNL     1      -7.645   4.314  66.227  1.00  0.00    -0.089 C  
HETATM   33  C   UNL     1      -8.427   3.457  67.225  1.00  0.00    -0.105 C  
HETATM   34  C   UNL     1      -8.672   2.087  66.583  1.00  0.00    -0.123 C  
ENDBRANCH  18  31
ENDBRANCH  16  18
ENDBRANCH  13  14
ENDBRANCH  11  13
ENDBRANCH   3   4
ENDBRANCH   2   3
TORSDOF 8
ENDMDL
MODEL      271
REMARK 921   NORMALIZED FREE ENERGY PREDICTED BY IDOCK:   -3.53 KCAL/MOL
REMARK 922        TOTAL FREE ENERGY PREDICTED BY IDOCK:   -7.57 KCAL/MOL
REMARK 923 INTER-LIGAND FREE ENERGY PREDICTED BY IDOCK:   -5.61 KCAL/MOL
REMARK 924 INTRA-LIGAND FREE ENERGY PREDICTED BY IDOCK:   -1.96 KCAL/MOL
REMARK 927      BINDING AFFINITY PREDICTED BY RF-SCORE:    0.00 PKD
ROOT
HETATM    1  C   UNL     1     -11.746  12.073  69.811  1.00  0.00    -0.390 C  
HETATM    2  C   UNL     1     -11.857  12.356  68.330  1.00  0.00    -0.309 C  
ENDROOT
BRANCH   2   3
HETATM    3  O   UNL     1     -10.856  13.326  67.958  1.00  0.00    -0.232 OA 
BRANCH   3   4
HETATM    4  C   UNL     1      -9.625  12.794  67.665  1.00  0.00    -0.192 A  
HETATM    5  C   UNL     1      -8.476  13.558  67.919  1.00  0.00    -0.179 A  
HETATM    6  C   UNL     1      -7.219  13.040  67.555  1.00  0.00    -0.154 A  
HETATM    7  C   UNL     1      -8.477  14.927  68.535  1.00  0.00    -0.163 C  
HETATM    8  C   UNL     1      -7.104  11.788  66.955  1.00  0.00    -0.132 A  
HETATM    9  O   UNL     1      -7.459  15.597  68.653  1.00  0.00    -0.119 OA 
HETATM   10  O   UNL     1      -9.673  15.356  68.973  1.00  0.00    -0.211 OA 
HETATM   11  C   UNL     1      -8.244  11.012  66.726  1.00  0.00    -0.149 A  
HETATM   12  C   UNL     1      -9.491  11.506  67.120  1.00  0.00    -0.186 A  
BRANCH  11  13
HETATM   13  C   UNL     1      -8.146   9.661  66.065  1.00  0.00    -0.112 C  
BRANCH  13  14
HETATM   14  C   UNL     1      -9.228   8.695  66.510  1.00  0.00    -0.187 C  
HETATM   15  O   UNL     1     -10.408   8.926  66.251  1.00  0.00    -0.240 OA 
HETATM   16  N   UNL     1      -8.791   7.569  67.186  1.00  0.00    -0.123 N  
HETATM   17  H   UNL     1      -7.800   7.473  67.410  1.00  0.00     0.000 HD 
BRANCH  16  18
HETATM   18  C   UNL     1      -9.728   6.504  67.588  1.00  0.00    -0.123 C  
BRANCH  18  19
HETATM   19  C   UNL     1      -9.253   5.568  68.713  1.00  0.00    -0.142 A  
HETATM   20  C   UNL     1      -8.650   6.025  69.933  1.00  0.00    -0.131 A  
HETATM   21  C   UNL     1      -8.405   5.030  70.919  1.00  0.00    -0.112 A  
HETATM   22  C   UNL     1      -9.586   4.188  68.590  1.00  0.00    -0.199 A  
HETATM   23  C   UNL     1      -8.752   3.686  70.775  1.00  0.00    -0.123 A  
HETATM   24  C   UNL     1      -9.343   3.261  69.605  1.00  0.00    -0.236 A  
BRANCH  20  25
HETATM   25  N   UNL     1      -8.266   7.332  70.255  1.00  0.00    -0.131 NA 
HETATM   26  C   UNL     1      -6.834   7.700  70.323  1.00  0.00    -0.047 C  
HETATM   27  C   UNL     1      -6.610   9.013  69.564  1.00  0.00    -0.043 C  
HETATM   28  C   UNL     1      -7.466  10.130  70.151  1.00  0.00    -0.146 C  
HETATM   29  C   UNL     1      -8.925   9.716  70.173  1.00  0.00    -0.273 C  
HETATM   30  C   UNL     1      -9.142   8.356  70.824  1.00  0.00    -0.156 C  
ENDBRANCH  20  25
ENDBRANCH  18  19
BRANCH  18  31
HETATM   31  C   UNL     1     -10.183   5.646  66.390  1.00  0.00    -0.220 C  
HETATM   32  C   UNL     1      -7.985   5.712  65.040  1.00  0.00    -0.115 C  
HETATM   33  C   UNL     1      -9.081   4.846  65.664  1.00  0.00    -0.151 C  
HETATM   34  C   UNL     1      -9.730   4.023  64.547  1.00  0.00    -0.182 C  
ENDBRANCH  18  31
ENDBRANCH  16  18
ENDBRANCH  13  14
ENDBRANCH  11  13
ENDBRANCH   3   4
ENDBRANCH   2   3
TORSDOF 8
ENDMDL
MODEL      272
REMARK 921   NORMALIZED FREE ENERGY PREDICTED BY IDOCK:   -3.49 KCAL/MOL
REMARK 922        TOTAL FREE ENERGY PREDICTED BY IDOCK:   -7.52 KCAL/MOL
REMARK 923 INTER-LIGAND FREE ENERGY PREDICTED BY IDOCK:   -5.41 KCAL/MOL
REMARK 924 INTRA-LIGAND FREE ENERGY PREDICTED BY IDOCK:   -2.11 KCAL/MOL
REMARK 927      BINDING AFFINITY PREDICTED BY RF-SCORE:    0.00 PKD
ROOT
HETATM    1  C   UNL     1      -9.525   2.930  68.893  1.00  0.00    -0.174 C  
HETATM    2  C   UNL     1      -8.817   4.053  68.170  1.00  0.00    -0.108 C  
ENDROOT
BRANCH   2   3
HETATM    3  O   UNL     1      -8.971   3.871  66.747  1.00  0.00    -0.120 OA 
BRANCH   3   4
HETATM    4  C   UNL     1      -8.417   4.865  65.979  1.00  0.00    -0.117 A  
HETATM    5  C   UNL     1      -7.333   4.556  65.144  1.00  0.00    -0.072 A  
HETATM    6  C   UNL     1      -6.722   5.588  64.409  1.00  0.00    -0.046 A  
HETATM    7  C   UNL     1      -6.738   3.187  64.987  1.00  0.00    -0.040 C  
HETATM    8  C   UNL     1      -7.179   6.901  64.498  1.00  0.00    -0.073 A  
HETATM    9  O   UNL     1      -5.733   2.978  64.318  1.00  0.00    -0.009 OA 
HETATM   10  O   UNL     1      -7.401   2.198  65.610  1.00  0.00    -0.062 OA 
HETATM   11  C   UNL     1      -8.277   7.209  65.308  1.00  0.00    -0.128 A  
HETATM   12  C   UNL     1      -8.911   6.179  66.010  1.00  0.00    -0.160 A  
BRANCH  11  13
HETATM   13  C   UNL     1      -8.781   8.624  65.432  1.00  0.00    -0.208 C  
BRANCH  13  14
HETATM   14  C   UNL     1      -8.594   9.209  66.818  1.00  0.00    -0.127 C  
HETATM   15  O   UNL     1      -7.502   9.133  67.379  1.00  0.00    -0.084 OA 
HETATM   16  N   UNL     1      -9.704   9.828  67.368  1.00  0.00    -0.157 N  
HETATM   17  H   UNL     1     -10.590   9.804  66.864  1.00  0.00     0.000 HD 
BRANCH  16  18
HETATM   18  C   UNL     1      -9.631  10.521  68.667  1.00  0.00    -0.171 C  
BRANCH  18  19
HETATM   19  C   UNL     1     -10.649  10.080  69.733  1.00  0.00    -0.301 A  
HETATM   20  C   UNL     1     -10.351   9.156  70.791  1.00  0.00    -0.258 A  
HETATM   21  C   UNL     1     -11.370   8.975  71.766  1.00  0.00    -0.447 A  
HETATM   22  C   UNL     1     -11.902  10.759  69.751  1.00  0.00    -0.409 A  
HETATM   23  C   UNL     1     -12.584   9.663  71.765  1.00  0.00    -0.497 A  
HETATM   24  C   UNL     1     -12.853  10.558  70.751  1.00  0.00    -0.454 A  
BRANCH  20  25
HETATM   25  N   UNL     1      -9.181   8.407  70.962  1.00  0.00    -0.157 NA 
HETATM   26  C   UNL     1      -9.155   6.965  70.627  1.00  0.00    -0.155 C  
HETATM   27  C   UNL     1      -7.900   6.659  69.802  1.00  0.00    -0.115 C  
HETATM   28  C   UNL     1      -6.640   7.040  70.572  1.00  0.00    -0.052 C  
HETATM   29  C   UNL     1      -6.708   8.493  71.002  1.00  0.00    -0.054 C  
HETATM   30  C   UNL     1      -8.006   8.834  71.722  1.00  0.00    -0.049 C  
ENDBRANCH  20  25
ENDBRANCH  18  19
BRANCH  18  31
HETATM   31  C   UNL     1      -9.707  12.053  68.514  1.00  0.00    -0.165 C  
HETATM   32  C   UNL     1      -7.200  12.576  68.828  1.00  0.00    -0.089 C  
HETATM   33  C   UNL     1      -8.448  12.749  67.959  1.00  0.00    -0.177 C  
HETATM   34  C   UNL     1      -8.733  14.249  67.831  1.00  0.00    -0.178 C  
ENDBRANCH  18  31
ENDBRANCH  16  18
ENDBRANCH  13  14
ENDBRANCH  11  13
ENDBRANCH   3   4
ENDBRANCH   2   3
TORSDOF 8
ENDMDL
MODEL      273
REMARK 921   NORMALIZED FREE ENERGY PREDICTED BY IDOCK:   -3.49 KCAL/MOL
REMARK 922        TOTAL FREE ENERGY PREDICTED BY IDOCK:   -7.52 KCAL/MOL
REMARK 923 INTER-LIGAND FREE ENERGY PREDICTED BY IDOCK:   -5.99 KCAL/MOL
REMARK 924 INTRA-LIGAND FREE ENERGY PREDICTED BY IDOCK:   -1.52 KCAL/MOL
REMARK 927      BINDING AFFINITY PREDICTED BY RF-SCORE:    0.00 PKD
ROOT
HETATM    1  C   UNL     1      -7.673  15.397  69.058  1.00  0.00    -0.186 C  
HETATM    2  C   UNL     1      -8.458  14.852  67.886  1.00  0.00    -0.153 C  
ENDROOT
BRANCH   2   3
HETATM    3  O   UNL     1      -9.815  14.599  68.302  1.00  0.00    -0.210 OA 
BRANCH   3   4
HETATM    4  C   UNL     1     -10.187  13.278  68.269  1.00  0.00    -0.250 A  
HETATM    5  C   UNL     1     -11.303  12.866  69.015  1.00  0.00    -0.341 A  
HETATM    6  C   UNL     1     -11.643  11.501  69.035  1.00  0.00    -0.383 A  
HETATM    7  C   UNL     1     -12.167  13.778  69.836  1.00  0.00    -0.321 C  
HETATM    8  C   UNL     1     -10.894  10.564  68.327  1.00  0.00    -0.293 A  
HETATM    9  O   UNL     1     -13.074  13.363  70.546  1.00  0.00     0.003 OA 
HETATM   10  O   UNL     1     -11.893  15.088  69.717  1.00  0.00    -0.284 OA 
HETATM   11  C   UNL     1      -9.799  10.974  67.560  1.00  0.00    -0.190 A  
HETATM   12  C   UNL     1      -9.481  12.334  67.507  1.00  0.00    -0.182 A  
BRANCH  11  13
HETATM   13  C   UNL     1      -8.965   9.977  66.797  1.00  0.00    -0.151 C  
BRANCH  13  14
HETATM   14  C   UNL     1      -9.368   8.537  67.053  1.00  0.00    -0.161 C  
HETATM   15  O   UNL     1     -10.510   8.160  66.798  1.00  0.00    -0.326 OA 
HETATM   16  N   UNL     1      -8.376   7.713  67.559  1.00  0.00    -0.120 N  
HETATM   17  H   UNL     1      -7.468   8.112  67.795  1.00  0.00     0.000 HD 
BRANCH  16  18
HETATM   18  C   UNL     1      -8.606   6.272  67.761  1.00  0.00    -0.115 C  
BRANCH  18  19
HETATM   19  C   UNL     1      -7.852   5.619  68.933  1.00  0.00    -0.096 A  
HETATM   20  C   UNL     1      -8.366   5.541  70.272  1.00  0.00    -0.110 A  
HETATM   21  C   UNL     1      -7.596   4.778  71.192  1.00  0.00    -0.081 A  
HETATM   22  C   UNL     1      -6.652   4.917  68.620  1.00  0.00    -0.049 A  
HETATM   23  C   UNL     1      -6.429   4.091  70.853  1.00  0.00    -0.026 A  
HETATM   24  C   UNL     1      -5.953   4.162  69.562  1.00  0.00    -0.022 A  
BRANCH  20  25
HETATM   25  N   UNL     1      -9.528   6.139  70.773  1.00  0.00    -0.167 NA 
HETATM   26  C   UNL     1      -9.443   7.209  71.793  1.00  0.00    -0.151 C  
HETATM   27  C   UNL     1     -10.360   8.368  71.390  1.00  0.00    -0.285 C  
HETATM   28  C   UNL     1     -11.802   7.894  71.248  1.00  0.00    -0.321 C  
HETATM   29  C   UNL     1     -11.878   6.732  70.275  1.00  0.00    -0.359 C  
HETATM   30  C   UNL     1     -10.886   5.624  70.604  1.00  0.00    -0.234 C  
ENDBRANCH  20  25
ENDBRANCH  18  19
BRANCH  18  31
HETATM   31  C   UNL     1      -8.336   5.454  66.483  1.00  0.00    -0.109 C  
HETATM   32  C   UNL     1     -10.778   4.845  65.916  1.00  0.00    -0.233 C  
HETATM   33  C   UNL     1      -9.459   5.445  65.426  1.00  0.00     0.047 C  
HETATM   34  C   UNL     1      -8.988   4.630  64.217  1.00  0.00    -0.136 C  
ENDBRANCH  18  31
ENDBRANCH  16  18
ENDBRANCH  13  14
ENDBRANCH  11  13
ENDBRANCH   3   4
ENDBRANCH   2   3
TORSDOF 8
ENDMDL
MODEL      274
REMARK 921   NORMALIZED FREE ENERGY PREDICTED BY IDOCK:   -3.45 KCAL/MOL
REMARK 922        TOTAL FREE ENERGY PREDICTED BY IDOCK:   -7.46 KCAL/MOL
REMARK 923 INTER-LIGAND FREE ENERGY PREDICTED BY IDOCK:   -7.43 KCAL/MOL
REMARK 924 INTRA-LIGAND FREE ENERGY PREDICTED BY IDOCK:   -0.03 KCAL/MOL
REMARK 927      BINDING AFFINITY PREDICTED BY RF-SCORE:    0.00 PKD
ROOT
HETATM    1  C   UNL     1     -10.058   5.427  73.202  1.00  0.00    -0.204 C  
HETATM    2  C   UNL     1     -11.450   5.611  72.642  1.00  0.00    -0.285 C  
ENDROOT
BRANCH   2   3
HETATM    3  O   UNL     1     -11.423   5.372  71.220  1.00  0.00     0.088 OA 
BRANCH   3   4
HETATM    4  C   UNL     1     -10.810   6.357  70.486  1.00  0.00    -0.279 A  
HETATM    5  C   UNL     1      -9.690   6.028  69.707  1.00  0.00    -0.194 A  
HETATM    6  C   UNL     1      -9.021   7.050  69.008  1.00  0.00    -0.133 A  
HETATM    7  C   UNL     1      -9.115   4.648  69.575  1.00  0.00    -0.110 C  
HETATM    8  C   UNL     1      -9.457   8.371  69.079  1.00  0.00    -0.151 A  
HETATM    9  O   UNL     1      -8.081   4.421  68.960  1.00  0.00    -0.072 OA 
HETATM   10  O   UNL     1      -9.830   3.671  70.159  1.00  0.00    -0.170 OA 
HETATM   11  C   UNL     1     -10.589   8.699  69.831  1.00  0.00    -0.227 A  
HETATM   12  C   UNL     1     -11.278   7.681  70.495  1.00  0.00    -0.275 A  
BRANCH  11  13
HETATM   13  C   UNL     1     -11.070  10.124  69.934  1.00  0.00    -0.346 C  
BRANCH  13  14
HETATM   14  C   UNL     1     -10.381  11.061  68.961  1.00  0.00    -0.209 C  
HETATM   15  O   UNL     1      -9.682  10.609  68.056  1.00  0.00    -0.153 OA 
HETATM   16  N   UNL     1     -10.613  12.412  69.157  1.00  0.00    -0.427 N  
HETATM   17  H   UNL     1     -11.162  12.713  69.963  1.00  0.00     0.000 HD 
BRANCH  16  18
HETATM   18  C   UNL     1     -10.083  13.425  68.225  1.00  0.00    -0.247 C  
BRANCH  18  19
HETATM   19  C   UNL     1     -10.987  13.794  67.036  1.00  0.00    -0.297 A  
HETATM   20  C   UNL     1     -10.887  15.028  66.308  1.00  0.00    -0.333 A  
HETATM   21  C   UNL     1     -11.706  15.138  65.150  1.00  0.00    -0.179 A  
HETATM   22  C   UNL     1     -11.854  12.777  66.541  1.00  0.00    -0.471 A  
HETATM   23  C   UNL     1     -12.539  14.120  64.684  1.00  0.00    -0.285 A  
HETATM   24  C   UNL     1     -12.616  12.935  65.383  1.00  0.00    -0.440 A  
BRANCH  20  25
HETATM   25  N   UNL     1     -10.087  16.135  66.616  1.00  0.00    -0.266 NA 
HETATM   26  C   UNL     1     -10.570  17.174  67.553  1.00  0.00    -0.323 C  
HETATM   27  C   UNL     1      -9.464  17.501  68.562  1.00  0.00    -0.296 C  
HETATM   28  C   UNL     1      -8.206  17.984  67.848  1.00  0.00    -0.248 C  
HETATM   29  C   UNL     1      -7.764  16.963  66.817  1.00  0.00    -0.283 C  
HETATM   30  C   UNL     1      -8.891  16.546  65.882  1.00  0.00    -0.113 C  
ENDBRANCH  20  25
ENDBRANCH  18  19
BRANCH  18  31
HETATM   31  C   UNL     1      -8.689  13.048  67.688  1.00  0.00    -0.189 C  
HETATM   32  C   UNL     1      -7.276  14.474  69.309  1.00  0.00    -0.131 C  
HETATM   33  C   UNL     1      -7.529  13.091  68.705  1.00  0.00    -0.093 C  
HETATM   34  C   UNL     1      -6.245  12.638  68.003  1.00  0.00    -0.094 C  
ENDBRANCH  18  31
ENDBRANCH  16  18
ENDBRANCH  13  14
ENDBRANCH  11  13
ENDBRANCH   3   4
ENDBRANCH   2   3
TORSDOF 8
ENDMDL
MODEL      275
REMARK 921   NORMALIZED FREE ENERGY PREDICTED BY IDOCK:   -3.44 KCAL/MOL
REMARK 922        TOTAL FREE ENERGY PREDICTED BY IDOCK:   -7.44 KCAL/MOL
REMARK 923 INTER-LIGAND FREE ENERGY PREDICTED BY IDOCK:   -5.81 KCAL/MOL
REMARK 924 INTRA-LIGAND FREE ENERGY PREDICTED BY IDOCK:   -1.64 KCAL/MOL
REMARK 927      BINDING AFFINITY PREDICTED BY RF-SCORE:    0.00 PKD
ROOT
HETATM    1  C   UNL     1     -10.251   5.027  74.559  1.00  0.00    -0.305 C  
HETATM    2  C   UNL     1     -11.123   4.595  73.402  1.00  0.00    -0.337 C  
ENDROOT
BRANCH   2   3
HETATM    3  O   UNL     1     -10.294   4.008  72.379  1.00  0.00    -0.178 OA 
BRANCH   3   4
HETATM    4  C   UNL     1      -9.824   4.896  71.443  1.00  0.00    -0.186 A  
HETATM    5  C   UNL     1      -8.438   5.012  71.251  1.00  0.00    -0.124 A  
HETATM    6  C   UNL     1      -7.954   5.970  70.342  1.00  0.00    -0.107 A  
HETATM    7  C   UNL     1      -7.404   4.198  71.972  1.00  0.00    -0.064 C  
HETATM    8  C   UNL     1      -8.826   6.795  69.635  1.00  0.00    -0.144 A  
HETATM    9  O   UNL     1      -6.202   4.396  71.843  1.00  0.00    -0.019 OA 
HETATM   10  O   UNL     1      -7.888   3.217  72.752  1.00  0.00    -0.060 OA 
HETATM   11  C   UNL     1     -10.208   6.664  69.803  1.00  0.00    -0.214 A  
HETATM   12  C   UNL     1     -10.694   5.687  70.677  1.00  0.00    -0.333 A  
BRANCH  11  13
HETATM   13  C   UNL     1     -11.171   7.555  69.061  1.00  0.00     0.230 C  
BRANCH  13  14
HETATM   14  C   UNL     1     -10.538   8.840  68.564  1.00  0.00    -0.129 C  
HETATM   15  O   UNL     1     -10.535   9.843  69.276  1.00  0.00    -0.197 OA 
HETATM   16  N   UNL     1      -9.969   8.786  67.303  1.00  0.00    -0.200 N  
HETATM   17  H   UNL     1     -10.059   7.932  66.751  1.00  0.00     0.000 HD 
BRANCH  16  18
HETATM   18  C   UNL     1      -9.237   9.935  66.742  1.00  0.00    -0.148 C  
BRANCH  18  19
HETATM   19  C   UNL     1      -9.373  10.155  65.225  1.00  0.00    -0.278 A  
HETATM   20  C   UNL     1      -9.998  11.306  64.636  1.00  0.00    -0.281 A  
HETATM   21  C   UNL     1      -9.907  11.409  63.220  1.00  0.00    -0.428 A  
HETATM   22  C   UNL     1      -8.693   9.236  64.374  1.00  0.00    -0.211 A  
HETATM   23  C   UNL     1      -9.224  10.498  62.413  1.00  0.00    -0.302 A  
HETATM   24  C   UNL     1      -8.616   9.405  62.991  1.00  0.00    -0.222 A  
BRANCH  20  25
HETATM   25  N   UNL     1     -10.695  12.325  65.294  1.00  0.00    -0.282 NA 
HETATM   26  C   UNL     1     -10.029  13.609  65.610  1.00  0.00    -0.243 C  
HETATM   27  C   UNL     1     -10.946  14.769  65.208  1.00  0.00    -0.382 C  
HETATM   28  C   UNL     1     -12.282  14.680  65.937  1.00  0.00    -0.165 C  
HETATM   29  C   UNL     1     -12.923  13.327  65.693  1.00  0.00    -0.029 C  
HETATM   30  C   UNL     1     -11.977  12.168  65.981  1.00  0.00    -0.160 C  
ENDBRANCH  20  25
ENDBRANCH  18  19
BRANCH  18  31
HETATM   31  C   UNL     1      -7.739   9.904  67.104  1.00  0.00    -0.092 C  
HETATM   32  C   UNL     1      -7.316  12.449  67.123  1.00  0.00    -0.081 C  
HETATM   33  C   UNL     1      -7.197  11.123  67.878  1.00  0.00    -0.090 C  
HETATM   34  C   UNL     1      -5.715  10.886  68.189  1.00  0.00    -0.046 C  
ENDBRANCH  18  31
ENDBRANCH  16  18
ENDBRANCH  13  14
ENDBRANCH  11  13
ENDBRANCH   3   4
ENDBRANCH   2   3
TORSDOF 8
ENDMDL
MODEL      276
REMARK 921   NORMALIZED FREE ENERGY PREDICTED BY IDOCK:   -3.38 KCAL/MOL
REMARK 922        TOTAL FREE ENERGY PREDICTED BY IDOCK:   -7.35 KCAL/MOL
REMARK 923 INTER-LIGAND FREE ENERGY PREDICTED BY IDOCK:   -5.14 KCAL/MOL
REMARK 924 INTRA-LIGAND FREE ENERGY PREDICTED BY IDOCK:   -2.21 KCAL/MOL
REMARK 927      BINDING AFFINITY PREDICTED BY RF-SCORE:    0.00 PKD
ROOT
HETATM    1  C   UNL     1     -10.367  16.592  68.325  1.00  0.00    -0.293 C  
HETATM    2  C   UNL     1     -11.441  15.545  68.131  1.00  0.00    -0.326 C  
ENDROOT
BRANCH   2   3
HETATM    3  O   UNL     1     -11.638  14.835  69.371  1.00  0.00    -0.276 OA 
BRANCH   3   4
HETATM    4  C   UNL     1     -11.641  13.467  69.253  1.00  0.00    -0.316 A  
HETATM    5  C   UNL     1     -12.042  12.690  70.350  1.00  0.00    -0.381 A  
HETATM    6  C   UNL     1     -11.980  11.288  70.253  1.00  0.00    -0.466 A  
HETATM    7  C   UNL     1     -12.518  13.244  71.662  1.00  0.00    -0.053 C  
HETATM    8  C   UNL     1     -11.531  10.669  69.088  1.00  0.00    -0.349 A  
HETATM    9  O   UNL     1     -12.770  12.531  72.625  1.00  0.00     0.158 OA 
HETATM   10  O   UNL     1     -12.674  14.578  71.698  1.00  0.00    -0.312 OA 
HETATM   11  C   UNL     1     -11.156  11.439  67.982  1.00  0.00    -0.317 A  
HETATM   12  C   UNL     1     -11.254  12.831  68.063  1.00  0.00    -0.310 A  
BRANCH  11  13
HETATM   13  C   UNL     1     -10.654  10.792  66.717  1.00  0.00    -0.307 C  
BRANCH  13  14
HETATM   14  C   UNL     1     -10.161   9.372  66.924  1.00  0.00    -0.248 C  
HETATM   15  O   UNL     1     -10.870   8.419  66.606  1.00  0.00    -0.089 OA 
HETATM   16  N   UNL     1      -8.890   9.245  67.459  1.00  0.00    -0.119 N  
HETATM   17  H   UNL     1      -8.384  10.082  67.747  1.00  0.00     0.000 HD 
BRANCH  16  18
HETATM   18  C   UNL     1      -8.255   7.925  67.620  1.00  0.00    -0.124 C  
BRANCH  18  19
HETATM   19  C   UNL     1      -7.810   7.553  69.046  1.00  0.00    -0.120 A  
HETATM   20  C   UNL     1      -7.008   8.401  69.881  1.00  0.00    -0.043 A  
HETATM   21  C   UNL     1      -6.815   7.957  71.219  1.00  0.00    -0.046 A  
HETATM   22  C   UNL     1      -8.370   6.370  69.609  1.00  0.00    -0.126 A  
HETATM   23  C   UNL     1      -7.385   6.798  71.747  1.00  0.00    -0.085 A  
HETATM   24  C   UNL     1      -8.165   5.999  70.938  1.00  0.00    -0.125 A  
BRANCH  20  25
HETATM   25  N   UNL     1      -6.388   9.605  69.526  1.00  0.00    -0.043 NA 
HETATM   26  C   UNL     1      -5.144   9.600  68.722  1.00  0.00    -0.037 C  
HETATM   27  C   UNL     1      -5.270  10.624  67.589  1.00  0.00    -0.036 C  
HETATM   28  C   UNL     1      -5.528  12.020  68.146  1.00  0.00    -0.051 C  
HETATM   29  C   UNL     1      -6.747  12.006  69.049  1.00  0.00    -0.100 C  
HETATM   30  C   UNL     1      -6.682  10.914  70.108  1.00  0.00    -0.076 C  
ENDBRANCH  20  25
ENDBRANCH  18  19
BRANCH  18  31
HETATM   31  C   UNL     1      -7.060   7.734  66.665  1.00  0.00    -0.079 C  
HETATM   32  C   UNL     1      -8.389   7.141  64.534  1.00  0.00     0.085 C  
HETATM   33  C   UNL     1      -7.322   8.032  65.174  1.00  0.00    -0.074 C  
HETATM   34  C   UNL     1      -6.015   7.838  64.398  1.00  0.00    -0.048 C  
ENDBRANCH  18  31
ENDBRANCH  16  18
ENDBRANCH  13  14
ENDBRANCH  11  13
ENDBRANCH   3   4
ENDBRANCH   2   3
TORSDOF 8
ENDMDL
MODEL      277
REMARK 921   NORMALIZED FREE ENERGY PREDICTED BY IDOCK:   -3.38 KCAL/MOL
REMARK 922        TOTAL FREE ENERGY PREDICTED BY IDOCK:   -7.35 KCAL/MOL
REMARK 923 INTER-LIGAND FREE ENERGY PREDICTED BY IDOCK:   -4.80 KCAL/MOL
REMARK 924 INTRA-LIGAND FREE ENERGY PREDICTED BY IDOCK:   -2.55 KCAL/MOL
REMARK 927      BINDING AFFINITY PREDICTED BY RF-SCORE:    0.00 PKD
ROOT
HETATM    1  C   UNL     1      -7.490   8.056  72.337  1.00  0.00    -0.132 C  
HETATM    2  C   UNL     1      -7.864   8.473  70.932  1.00  0.00    -0.107 C  
ENDROOT
BRANCH   2   3
HETATM    3  O   UNL     1      -7.620   9.886  70.778  1.00  0.00    -0.305 OA 
BRANCH   3   4
HETATM    4  C   UNL     1      -7.654  10.334  69.481  1.00  0.00    -0.150 A  
HETATM    5  C   UNL     1      -6.899  11.464  69.132  1.00  0.00    -0.111 A  
HETATM    6  C   UNL     1      -6.987  11.964  67.819  1.00  0.00    -0.102 A  
HETATM    7  C   UNL     1      -6.005  12.220  70.071  1.00  0.00    -0.153 C  
HETATM    8  C   UNL     1      -7.805  11.354  66.872  1.00  0.00    -0.158 A  
HETATM    9  O   UNL     1      -5.436  13.256  69.750  1.00  0.00    -0.088 OA 
HETATM   10  O   UNL     1      -5.850  11.665  71.285  1.00  0.00    -0.371 OA 
HETATM   11  C   UNL     1      -8.538  10.211  67.208  1.00  0.00    -0.125 A  
HETATM   12  C   UNL     1      -8.423   9.689  68.499  1.00  0.00    -0.118 A  
BRANCH  11  13
HETATM   13  C   UNL     1      -9.441   9.542  66.204  1.00  0.00    -0.281 C  
BRANCH  13  14
HETATM   14  C   UNL     1      -8.720   8.539  65.323  1.00  0.00    -0.140 C  
HETATM   15  O   UNL     1      -8.567   8.767  64.124  1.00  0.00    -0.158 OA 
HETATM   16  N   UNL     1      -8.250   7.403  65.960  1.00  0.00    -0.123 N  
HETATM   17  H   UNL     1      -8.463   7.260  66.947  1.00  0.00     0.000 HD 
BRANCH  16  18
HETATM   18  C   UNL     1      -7.449   6.397  65.241  1.00  0.00    -0.081 C  
BRANCH  18  19
HETATM   19  C   UNL     1      -8.235   5.277  64.536  1.00  0.00    -0.135 A  
HETATM   20  C   UNL     1      -9.393   4.638  65.096  1.00  0.00    -0.150 A  
HETATM   21  C   UNL     1     -10.075   3.726  64.244  1.00  0.00    -0.221 A  
HETATM   22  C   UNL     1      -7.877   4.985  63.188  1.00  0.00    -0.078 A  
HETATM   23  C   UNL     1      -9.707   3.468  62.922  1.00  0.00    -0.108 A  
HETATM   24  C   UNL     1      -8.602   4.098  62.392  1.00  0.00    -0.087 A  
BRANCH  20  25
HETATM   25  N   UNL     1      -9.915   4.801  66.384  1.00  0.00    -0.216 NA 
HETATM   26  C   UNL     1      -9.505   3.897  67.482  1.00  0.00    -0.190 C  
HETATM   27  C   UNL     1      -9.165   4.730  68.724  1.00  0.00    -0.170 C  
HETATM   28  C   UNL     1     -10.362   5.569  69.157  1.00  0.00    -0.318 C  
HETATM   29  C   UNL     1     -10.846   6.426  68.002  1.00  0.00    -0.396 C  
HETATM   30  C   UNL     1     -11.076   5.622  66.729  1.00  0.00     0.083 C  
ENDBRANCH  20  25
ENDBRANCH  18  19
BRANCH  18  31
HETATM   31  C   UNL     1      -6.375   5.755  66.142  1.00  0.00    -0.039 C  
HETATM   32  C   UNL     1      -5.785   7.838  67.545  1.00  0.00    -0.037 C  
HETATM   33  C   UNL     1      -6.207   6.367  67.548  1.00  0.00    -0.032 C  
HETATM   34  C   UNL     1      -5.140   5.569  68.305  1.00  0.00    -0.003 C  
ENDBRANCH  18  31
ENDBRANCH  16  18
ENDBRANCH  13  14
ENDBRANCH  11  13
ENDBRANCH   3   4
ENDBRANCH   2   3
TORSDOF 8
ENDMDL
MODEL      278
REMARK 921   NORMALIZED FREE ENERGY PREDICTED BY IDOCK:   -3.37 KCAL/MOL
REMARK 922        TOTAL FREE ENERGY PREDICTED BY IDOCK:   -7.34 KCAL/MOL
REMARK 923 INTER-LIGAND FREE ENERGY PREDICTED BY IDOCK:   -6.95 KCAL/MOL
REMARK 924 INTRA-LIGAND FREE ENERGY PREDICTED BY IDOCK:   -0.39 KCAL/MOL
REMARK 927      BINDING AFFINITY PREDICTED BY RF-SCORE:    0.00 PKD
ROOT
HETATM    1  C   UNL     1     -11.203   8.672  71.970  1.00  0.00    -0.434 C  
HETATM    2  C   UNL     1      -9.889   9.011  71.304  1.00  0.00    -0.306 C  
ENDROOT
BRANCH   2   3
HETATM    3  O   UNL     1      -9.237   7.791  70.896  1.00  0.00    -0.151 OA 
BRANCH   3   4
HETATM    4  C   UNL     1      -9.575   7.354  69.640  1.00  0.00    -0.156 A  
HETATM    5  C   UNL     1      -9.819   5.986  69.438  1.00  0.00    -0.203 A  
HETATM    6  C   UNL     1     -10.099   5.528  68.137  1.00  0.00    -0.221 A  
HETATM    7  C   UNL     1      -9.778   4.942  70.515  1.00  0.00    -0.204 C  
HETATM    8  C   UNL     1     -10.140   6.409  67.059  1.00  0.00    -0.227 A  
HETATM    9  O   UNL     1      -9.905   3.747  70.279  1.00  0.00    -0.190 OA 
HETATM   10  O   UNL     1      -9.618   5.413  71.764  1.00  0.00    -0.145 OA 
HETATM   11  C   UNL     1      -9.924   7.776  67.260  1.00  0.00    -0.277 A  
HETATM   12  C   UNL     1      -9.684   8.240  68.557  1.00  0.00    -0.165 A  
BRANCH  11  13
HETATM   13  C   UNL     1      -9.949   8.746  66.107  1.00  0.00    -0.244 C  
BRANCH  13  14
HETATM   14  C   UNL     1     -10.051  10.195  66.543  1.00  0.00    -0.234 C  
HETATM   15  O   UNL     1     -10.892  10.532  67.375  1.00  0.00    -0.266 OA 
HETATM   16  N   UNL     1      -9.143  11.066  65.966  1.00  0.00    -0.190 N  
HETATM   17  H   UNL     1      -8.511  10.722  65.243  1.00  0.00     0.000 HD 
BRANCH  16  18
HETATM   18  C   UNL     1      -9.071  12.481  66.374  1.00  0.00    -0.127 C  
BRANCH  18  19
HETATM   19  C   UNL     1      -8.087  12.812  67.510  1.00  0.00    -0.180 A  
HETATM   20  C   UNL     1      -7.876  14.136  68.025  1.00  0.00    -0.146 A  
HETATM   21  C   UNL     1      -7.037  14.234  69.169  1.00  0.00    -0.117 A  
HETATM   22  C   UNL     1      -7.481  11.712  68.183  1.00  0.00    -0.103 A  
HETATM   23  C   UNL     1      -6.466  13.136  69.815  1.00  0.00    -0.009 A  
HETATM   24  C   UNL     1      -6.687  11.870  69.319  1.00  0.00    -0.099 A  
BRANCH  20  25
HETATM   25  N   UNL     1      -8.391  15.336  67.522  1.00  0.00    -0.163 NA 
HETATM   26  C   UNL     1      -9.636  15.913  68.080  1.00  0.00    -0.211 C  
HETATM   27  C   UNL     1      -9.429  17.409  68.341  1.00  0.00    -0.293 C  
HETATM   28  C   UNL     1      -9.046  18.135  67.057  1.00  0.00    -0.263 C  
HETATM   29  C   UNL     1      -7.827  17.485  66.430  1.00  0.00    -0.329 C  
HETATM   30  C   UNL     1      -7.980  15.977  66.273  1.00  0.00    -0.014 C  
ENDBRANCH  20  25
ENDBRANCH  18  19
BRANCH  18  31
HETATM   31  C   UNL     1     -10.455  13.053  66.737  1.00  0.00    -0.264 C  
HETATM   32  C   UNL     1     -10.724  14.655  64.732  1.00  0.00    -0.399 C  
HETATM   33  C   UNL     1     -11.333  13.519  65.557  1.00  0.00    -0.310 C  
HETATM   34  C   UNL     1     -12.678  14.003  66.109  1.00  0.00    -0.309 C  
ENDBRANCH  18  31
ENDBRANCH  16  18
ENDBRANCH  13  14
ENDBRANCH  11  13
ENDBRANCH   3   4
ENDBRANCH   2   3
TORSDOF 8
ENDMDL
MODEL      279
REMARK 921   NORMALIZED FREE ENERGY PREDICTED BY IDOCK:   -3.27 KCAL/MOL
REMARK 922        TOTAL FREE ENERGY PREDICTED BY IDOCK:   -7.20 KCAL/MOL
REMARK 923 INTER-LIGAND FREE ENERGY PREDICTED BY IDOCK:   -7.52 KCAL/MOL
REMARK 924 INTRA-LIGAND FREE ENERGY PREDICTED BY IDOCK:    0.32 KCAL/MOL
REMARK 927      BINDING AFFINITY PREDICTED BY RF-SCORE:    0.00 PKD
ROOT
HETATM    1  C   UNL     1      -9.790   4.608  66.144  1.00  0.00    -0.240 C  
HETATM    2  C   UNL     1     -10.522   5.761  66.792  1.00  0.00    -0.287 C  
ENDROOT
BRANCH   2   3
HETATM    3  O   UNL     1     -10.132   5.850  68.178  1.00  0.00    -0.142 OA 
BRANCH   3   4
HETATM    4  C   UNL     1      -9.300   6.902  68.471  1.00  0.00    -0.134 A  
HETATM    5  C   UNL     1      -8.321   6.739  69.464  1.00  0.00    -0.132 A  
HETATM    6  C   UNL     1      -7.514   7.837  69.812  1.00  0.00    -0.089 A  
HETATM    7  C   UNL     1      -8.077   5.468  70.224  1.00  0.00    -0.102 C  
HETATM    8  C   UNL     1      -7.671   9.072  69.186  1.00  0.00    -0.092 A  
HETATM    9  O   UNL     1      -7.275   5.396  71.147  1.00  0.00    -0.072 OA 
HETATM   10  O   UNL     1      -8.781   4.404  69.802  1.00  0.00    -0.071 OA 
HETATM   11  C   UNL     1      -8.626   9.231  68.177  1.00  0.00    -0.125 A  
HETATM   12  C   UNL     1      -9.404   8.131  67.801  1.00  0.00    -0.149 A  
BRANCH  11  13
HETATM   13  C   UNL     1      -8.825  10.560  67.495  1.00  0.00    -0.131 C  
BRANCH  13  14
HETATM   14  C   UNL     1      -9.835  11.449  68.196  1.00  0.00    -0.191 C  
HETATM   15  O   UNL     1      -9.469  12.484  68.749  1.00  0.00    -0.056 OA 
HETATM   16  N   UNL     1     -11.152  11.024  68.144  1.00  0.00    -0.247 N  
HETATM   17  H   UNL     1     -11.371  10.127  67.712  1.00  0.00     0.000 HD 
BRANCH  16  18
HETATM   18  C   UNL     1     -12.244  11.843  68.700  1.00  0.00     0.104 C  
BRANCH  18  19
HETATM   19  C   UNL     1     -11.905  13.313  69.005  1.00  0.00    -0.365 A  
HETATM   20  C   UNL     1     -11.691  14.312  67.996  1.00  0.00    -0.351 A  
HETATM   21  C   UNL     1     -11.530  15.646  68.462  1.00  0.00    -0.380 A  
HETATM   22  C   UNL     1     -11.973  13.723  70.369  1.00  0.00    -0.385 A  
HETATM   23  C   UNL     1     -11.612  16.019  69.805  1.00  0.00    -0.297 A  
HETATM   24  C   UNL     1     -11.832  15.053  70.763  1.00  0.00    -0.372 A  
BRANCH  20  25
HETATM   25  N   UNL     1     -11.609  14.118  66.612  1.00  0.00    -0.366 NA 
HETATM   26  C   UNL     1     -10.467  14.661  65.843  1.00  0.00    -0.314 C  
HETATM   27  C   UNL     1      -9.930  13.578  64.900  1.00  0.00    -0.176 C  
HETATM   28  C   UNL     1     -11.022  13.100  63.949  1.00  0.00    -0.308 C  
HETATM   29  C   UNL     1     -12.233  12.633  64.733  1.00  0.00    -0.528 C  
HETATM   30  C   UNL     1     -12.703  13.660  65.755  1.00  0.00    -0.416 C  
ENDBRANCH  20  25
ENDBRANCH  18  19
BRANCH  18  31
HETATM   31  C   UNL     1     -12.866  11.207  69.958  1.00  0.00    -0.006 C  
HETATM   32  C   UNL     1     -11.069   9.405  70.382  1.00  0.00    -0.311 C  
HETATM   33  C   UNL     1     -11.882  10.566  70.958  1.00  0.00    -0.438 C  
HETATM   34  C   UNL     1     -12.676  10.039  72.158  1.00  0.00    -0.354 C  
ENDBRANCH  18  31
ENDBRANCH  16  18
ENDBRANCH  13  14
ENDBRANCH  11  13
ENDBRANCH   3   4
ENDBRANCH   2   3
TORSDOF 8
ENDMDL
MODEL      280
REMARK 921   NORMALIZED FREE ENERGY PREDICTED BY IDOCK:   -3.23 KCAL/MOL
REMARK 922        TOTAL FREE ENERGY PREDICTED BY IDOCK:   -7.14 KCAL/MOL
REMARK 923 INTER-LIGAND FREE ENERGY PREDICTED BY IDOCK:   -5.66 KCAL/MOL
REMARK 924 INTRA-LIGAND FREE ENERGY PREDICTED BY IDOCK:   -1.47 KCAL/MOL
REMARK 927      BINDING AFFINITY PREDICTED BY RF-SCORE:    0.00 PKD
ROOT
HETATM    1  C   UNL     1     -10.733  10.341  70.313  1.00  0.00    -0.310 C  
HETATM    2  C   UNL     1     -12.137  10.493  69.773  1.00  0.00    -0.214 C  
ENDROOT
BRANCH   2   3
HETATM    3  O   UNL     1     -12.335  11.858  69.350  1.00  0.00    -0.164 OA 
BRANCH   3   4
HETATM    4  C   UNL     1     -11.612  12.224  68.243  1.00  0.00    -0.331 A  
HETATM    5  C   UNL     1     -11.351  13.585  68.020  1.00  0.00    -0.318 A  
HETATM    6  C   UNL     1     -10.669  13.966  66.849  1.00  0.00    -0.284 A  
HETATM    7  C   UNL     1     -11.773  14.698  68.934  1.00  0.00    -0.309 C  
HETATM    8  C   UNL     1     -10.251  13.016  65.921  1.00  0.00    -0.298 A  
HETATM    9  O   UNL     1     -11.606  15.879  68.655  1.00  0.00    -0.382 OA 
HETATM   10  O   UNL     1     -12.325  14.307  70.095  1.00  0.00    -0.324 OA 
HETATM   11  C   UNL     1     -10.485  11.657  66.152  1.00  0.00    -0.289 A  
HETATM   12  C   UNL     1     -11.128  11.272  67.332  1.00  0.00    -0.358 A  
BRANCH  11  13
HETATM   13  C   UNL     1     -10.055  10.612  65.154  1.00  0.00    -0.374 C  
BRANCH  13  14
HETATM   14  C   UNL     1      -9.616   9.311  65.799  1.00  0.00    -0.271 C  
HETATM   15  O   UNL     1     -10.448   8.565  66.314  1.00  0.00    -0.089 OA 
HETATM   16  N   UNL     1      -8.260   9.036  65.744  1.00  0.00    -0.115 N  
HETATM   17  H   UNL     1      -7.626   9.729  65.347  1.00  0.00     0.000 HD 
BRANCH  16  18
HETATM   18  C   UNL     1      -7.715   7.762  66.246  1.00  0.00    -0.089 C  
BRANCH  18  19
HETATM   19  C   UNL     1      -7.342   7.722  67.738  1.00  0.00    -0.095 A  
HETATM   20  C   UNL     1      -7.207   6.510  68.497  1.00  0.00    -0.085 A  
HETATM   21  C   UNL     1      -6.717   6.656  69.824  1.00  0.00    -0.050 A  
HETATM   22  C   UNL     1      -6.954   8.953  68.342  1.00  0.00    -0.065 A  
HETATM   23  C   UNL     1      -6.335   7.876  70.385  1.00  0.00    -0.037 A  
HETATM   24  C   UNL     1      -6.456   9.030  69.642  1.00  0.00    -0.042 A  
BRANCH  20  25
HETATM   25  N   UNL     1      -7.514   5.209  68.083  1.00  0.00    -0.075 NA 
HETATM   26  C   UNL     1      -8.920   4.748  68.031  1.00  0.00    -0.112 C  
HETATM   27  C   UNL     1      -9.170   4.035  66.698  1.00  0.00    -0.173 C  
HETATM   28  C   UNL     1      -8.226   2.850  66.532  1.00  0.00    -0.088 C  
HETATM   29  C   UNL     1      -6.786   3.302  66.683  1.00  0.00    -0.048 C  
HETATM   30  C   UNL     1      -6.554   4.113  67.951  1.00  0.00    -0.042 C  
ENDBRANCH  20  25
ENDBRANCH  18  19
BRANCH  18  31
HETATM   31  C   UNL     1      -6.505   7.281  65.421  1.00  0.00    -0.044 C  
HETATM   32  C   UNL     1      -7.789   6.440  63.347  1.00  0.00    -0.107 C  
HETATM   33  C   UNL     1      -6.662   7.324  63.887  1.00  0.00    -0.048 C  
HETATM   34  C   UNL     1      -5.349   6.863  63.247  1.00  0.00    -0.032 C  
ENDBRANCH  18  31
ENDBRANCH  16  18
ENDBRANCH  13  14
ENDBRANCH  11  13
ENDBRANCH   3   4
ENDBRANCH   2   3
TORSDOF 8
ENDMDL
MODEL      281
REMARK 921   NORMALIZED FREE ENERGY PREDICTED BY IDOCK:   -3.20 KCAL/MOL
REMARK 922        TOTAL FREE ENERGY PREDICTED BY IDOCK:   -7.10 KCAL/MOL
REMARK 923 INTER-LIGAND FREE ENERGY PREDICTED BY IDOCK:   -6.63 KCAL/MOL
REMARK 924 INTRA-LIGAND FREE ENERGY PREDICTED BY IDOCK:   -0.47 KCAL/MOL
REMARK 927      BINDING AFFINITY PREDICTED BY RF-SCORE:    0.00 PKD
ROOT
HETATM    1  C   UNL     1      -7.521  14.492  69.077  1.00  0.00    -0.131 C  
HETATM    2  C   UNL     1      -7.484  13.550  67.895  1.00  0.00    -0.153 C  
ENDROOT
BRANCH   2   3
HETATM    3  O   UNL     1      -8.112  14.186  66.763  1.00  0.00     0.002 OA 
BRANCH   3   4
HETATM    4  C   UNL     1      -9.050  13.416  66.122  1.00  0.00     0.126 A  
HETATM    5  C   UNL     1     -10.081  14.051  65.411  1.00  0.00    -0.343 A  
HETATM    6  C   UNL     1     -11.081  13.264  64.811  1.00  0.00    -0.359 A  
HETATM    7  C   UNL     1     -10.224  15.537  65.256  1.00  0.00    -0.346 C  
HETATM    8  C   UNL     1     -11.058  11.875  64.912  1.00  0.00    -0.363 A  
HETATM    9  O   UNL     1     -11.189  16.052  64.706  1.00  0.00    -0.431 OA 
HETATM   10  O   UNL     1      -9.203  16.264  65.741  1.00  0.00    -0.439 OA 
HETATM   11  C   UNL     1     -10.019  11.237  65.597  1.00  0.00    -0.292 A  
HETATM   12  C   UNL     1      -9.002  12.014  66.160  1.00  0.00    -0.079 A  
BRANCH  11  13
HETATM   13  C   UNL     1      -9.980   9.736  65.731  1.00  0.00    -0.349 C  
BRANCH  13  14
HETATM   14  C   UNL     1      -9.599   9.268  67.122  1.00  0.00    -0.159 C  
HETATM   15  O   UNL     1      -8.804   9.920  67.798  1.00  0.00    -0.128 OA 
HETATM   16  N   UNL     1     -10.210   8.105  67.558  1.00  0.00    -0.222 N  
HETATM   17  H   UNL     1     -10.818   7.591  66.920  1.00  0.00     0.000 HD 
BRANCH  16  18
HETATM   18  C   UNL     1     -10.002   7.594  68.925  1.00  0.00    -0.176 C  
BRANCH  18  19
HETATM   19  C   UNL     1     -10.845   8.250  70.033  1.00  0.00    -0.232 A  
HETATM   20  C   UNL     1     -10.767   7.885  71.420  1.00  0.00    -0.224 A  
HETATM   21  C   UNL     1     -11.514   8.695  72.320  1.00  0.00    -0.423 A  
HETATM   22  C   UNL     1     -11.619   9.390  69.668  1.00  0.00     0.169 A  
HETATM   23  C   UNL     1     -12.255   9.812  71.935  1.00  0.00    -0.378 A  
HETATM   24  C   UNL     1     -12.311  10.161  70.603  1.00  0.00    -0.382 A  
BRANCH  20  25
HETATM   25  N   UNL     1     -10.054   6.820  71.980  1.00  0.00    -0.183 NA 
HETATM   26  C   UNL     1     -10.621   5.452  71.980  1.00  0.00    -0.224 C  
HETATM   27  C   UNL     1      -9.552   4.460  71.510  1.00  0.00    -0.228 C  
HETATM   28  C   UNL     1      -8.325   4.518  72.414  1.00  0.00    -0.110 C  
HETATM   29  C   UNL     1      -7.799   5.938  72.493  1.00  0.00    -0.102 C  
HETATM   30  C   UNL     1      -8.883   6.948  72.847  1.00  0.00    -0.126 C  
ENDBRANCH  20  25
ENDBRANCH  18  19
BRANCH  18  31
HETATM   31  C   UNL     1      -8.519   7.636  69.342  1.00  0.00    -0.132 C  
HETATM   32  C   UNL     1      -7.869   5.247  68.617  1.00  0.00    -0.086 C  
HETATM   33  C   UNL     1      -7.556   6.743  68.534  1.00  0.00    -0.104 C  
HETATM   34  C   UNL     1      -6.132   6.959  69.058  1.00  0.00    -0.026 C  
ENDBRANCH  18  31
ENDBRANCH  16  18
ENDBRANCH  13  14
ENDBRANCH  11  13
ENDBRANCH   3   4
ENDBRANCH   2   3
TORSDOF 8
ENDMDL
MODEL      282
REMARK 921   NORMALIZED FREE ENERGY PREDICTED BY IDOCK:   -3.16 KCAL/MOL
REMARK 922        TOTAL FREE ENERGY PREDICTED BY IDOCK:   -7.03 KCAL/MOL
REMARK 923 INTER-LIGAND FREE ENERGY PREDICTED BY IDOCK:   -5.68 KCAL/MOL
REMARK 924 INTRA-LIGAND FREE ENERGY PREDICTED BY IDOCK:   -1.35 KCAL/MOL
REMARK 927      BINDING AFFINITY PREDICTED BY RF-SCORE:    0.00 PKD
ROOT
HETATM    1  C   UNL     1     -12.257  13.029  64.360  1.00  0.00    -0.471 C  
HETATM    2  C   UNL     1     -11.734  11.913  63.485  1.00  0.00    -0.452 C  
ENDROOT
BRANCH   2   3
HETATM    3  O   UNL     1     -10.300  11.842  63.615  1.00  0.00    -0.359 OA 
BRANCH   3   4
HETATM    4  C   UNL     1      -9.856  11.004  64.608  1.00  0.00    -0.285 A  
HETATM    5  C   UNL     1      -8.638  10.328  64.434  1.00  0.00    -0.195 A  
HETATM    6  C   UNL     1      -8.217   9.417  65.420  1.00  0.00    -0.126 A  
HETATM    7  C   UNL     1      -7.739  10.479  63.242  1.00  0.00    -0.025 C  
HETATM    8  C   UNL     1      -8.987   9.183  66.557  1.00  0.00    -0.178 A  
HETATM    9  O   UNL     1      -6.731   9.801  63.087  1.00  0.00    -0.106 OA 
HETATM   10  O   UNL     1      -8.102  11.431  62.367  1.00  0.00    -0.147 OA 
HETATM   11  C   UNL     1     -10.188   9.874  66.747  1.00  0.00    -0.301 A  
HETATM   12  C   UNL     1     -10.590  10.808  65.789  1.00  0.00    -0.204 A  
BRANCH  11  13
HETATM   13  C   UNL     1     -11.045   9.627  67.962  1.00  0.00    -0.108 C  
BRANCH  13  14
HETATM   14  C   UNL     1     -10.801  10.621  69.081  1.00  0.00    -0.237 C  
HETATM   15  O   UNL     1     -10.771  10.241  70.250  1.00  0.00    -0.288 OA 
HETATM   16  N   UNL     1     -10.602  11.934  68.690  1.00  0.00    -0.230 N  
HETATM   17  H   UNL     1     -10.694  12.181  67.705  1.00  0.00     0.000 HD 
BRANCH  16  18
HETATM   18  C   UNL     1     -10.258  12.982  69.668  1.00  0.00     1.048 C  
BRANCH  18  19
HETATM   19  C   UNL     1     -11.425  13.847  70.177  1.00  0.00    -0.166 A  
HETATM   20  C   UNL     1     -11.931  14.997  69.482  1.00  0.00    -0.313 A  
HETATM   21  C   UNL     1     -13.104  15.589  70.028  1.00  0.00     0.214 A  
HETATM   22  C   UNL     1     -12.134  13.370  71.318  1.00  0.00     0.007 A  
HETATM   23  C   UNL     1     -13.783  15.093  71.142  1.00  0.00    -0.510 A  
HETATM   24  C   UNL     1     -13.295  13.980  71.792  1.00  0.00    -0.465 A  
BRANCH  20  25
HETATM   25  N   UNL     1     -11.395  15.605  68.341  1.00  0.00    -0.349 NA 
HETATM   26  C   UNL     1     -10.850  16.980  68.408  1.00  0.00    -0.333 C  
HETATM   27  C   UNL     1      -9.490  17.021  67.704  1.00  0.00    -0.236 C  
HETATM   28  C   UNL     1      -9.620  16.580  66.250  1.00  0.00    -0.333 C  
HETATM   29  C   UNL     1     -10.268  15.210  66.174  1.00  0.00    -0.310 C  
HETATM   30  C   UNL     1     -11.565  15.129  66.969  1.00  0.00    -0.174 C  
ENDBRANCH  20  25
ENDBRANCH  18  19
BRANCH  18  31
HETATM   31  C   UNL     1      -9.140  13.912  69.156  1.00  0.00     0.350 C  
HETATM   32  C   UNL     1      -7.292  12.135  68.868  1.00  0.00    -0.054 C  
HETATM   33  C   UNL     1      -8.090  13.272  68.226  1.00  0.00    -0.156 C  
HETATM   34  C   UNL     1      -7.101  14.356  67.784  1.00  0.00    -0.191 C  
ENDBRANCH  18  31
ENDBRANCH  16  18
ENDBRANCH  13  14
ENDBRANCH  11  13
ENDBRANCH   3   4
ENDBRANCH   2   3
TORSDOF 8
ENDMDL
MODEL      283
REMARK 921   NORMALIZED FREE ENERGY PREDICTED BY IDOCK:   -3.13 KCAL/MOL
REMARK 922        TOTAL FREE ENERGY PREDICTED BY IDOCK:   -6.98 KCAL/MOL
REMARK 923 INTER-LIGAND FREE ENERGY PREDICTED BY IDOCK:   -5.29 KCAL/MOL
REMARK 924 INTRA-LIGAND FREE ENERGY PREDICTED BY IDOCK:   -1.70 KCAL/MOL
REMARK 927      BINDING AFFINITY PREDICTED BY RF-SCORE:    0.00 PKD
ROOT
HETATM    1  C   UNL     1      -5.526   1.774  67.336  1.00  0.00    -0.017 C  
HETATM    2  C   UNL     1      -6.170   2.635  66.273  1.00  0.00    -0.024 C  
ENDROOT
BRANCH   2   3
HETATM    3  O   UNL     1      -7.514   2.167  66.036  1.00  0.00    -0.064 OA 
BRANCH   3   4
HETATM    4  C   UNL     1      -8.495   3.093  66.292  1.00  0.00    -0.106 A  
HETATM    5  C   UNL     1      -9.149   3.707  65.213  1.00  0.00    -0.145 A  
HETATM    6  C   UNL     1     -10.107   4.705  65.474  1.00  0.00    -0.204 A  
HETATM    7  C   UNL     1      -8.886   3.402  63.767  1.00  0.00    -0.093 C  
HETATM    8  C   UNL     1     -10.412   5.082  66.780  1.00  0.00    -0.273 A  
HETATM    9  O   UNL     1      -9.413   4.028  62.855  1.00  0.00    -0.123 OA 
HETATM   10  O   UNL     1      -8.051   2.374  63.541  1.00  0.00    -0.072 OA 
HETATM   11  C   UNL     1      -9.783   4.454  67.859  1.00  0.00    -0.186 A  
HETATM   12  C   UNL     1      -8.860   3.435  67.604  1.00  0.00    -0.152 A  
BRANCH  11  13
HETATM   13  C   UNL     1     -10.086   4.856  69.279  1.00  0.00    -0.248 C  
BRANCH  13  14
HETATM   14  C   UNL     1     -10.024   6.354  69.505  1.00  0.00    -0.162 C  
HETATM   15  O   UNL     1     -11.053   7.026  69.482  1.00  0.00    -0.238 OA 
HETATM   16  N   UNL     1      -8.765   6.876  69.751  1.00  0.00    -0.141 N  
HETATM   17  H   UNL     1      -7.951   6.263  69.702  1.00  0.00     0.000 HD 
BRANCH  16  18
HETATM   18  C   UNL     1      -8.577   8.300  70.082  1.00  0.00    -0.128 C  
BRANCH  18  19
HETATM   19  C   UNL     1      -7.615   9.089  69.176  1.00  0.00    -0.073 A  
HETATM   20  C   UNL     1      -8.023  10.172  68.327  1.00  0.00    -0.101 A  
HETATM   21  C   UNL     1      -6.977  10.878  67.670  1.00  0.00    -0.082 A  
HETATM   22  C   UNL     1      -6.222   8.823  69.324  1.00  0.00    -0.042 A  
HETATM   23  C   UNL     1      -5.620  10.601  67.842  1.00  0.00    -0.043 A  
HETATM   24  C   UNL     1      -5.240   9.568  68.671  1.00  0.00    -0.033 A  
BRANCH  20  25
HETATM   25  N   UNL     1      -9.329  10.602  68.065  1.00  0.00    -0.145 NA 
HETATM   26  C   UNL     1     -10.114  11.302  69.107  1.00  0.00    -0.069 C  
HETATM   27  C   UNL     1     -10.776  12.542  68.496  1.00  0.00    -0.263 C  
HETATM   28  C   UNL     1     -11.681  12.154  67.332  1.00  0.00    -0.374 C  
HETATM   29  C   UNL     1     -10.902  11.351  66.307  1.00  0.00    -0.318 C  
HETATM   30  C   UNL     1     -10.146  10.183  66.927  1.00  0.00    -0.223 C  
ENDBRANCH  20  25
ENDBRANCH  18  19
BRANCH  18  31
HETATM   31  C   UNL     1      -8.153   8.505  71.550  1.00  0.00    -0.191 C  
HETATM   32  C   UNL     1     -10.445   8.080  72.654  1.00  0.00    -0.408 C  
HETATM   33  C   UNL     1      -8.958   7.725  72.610  1.00  0.00    -0.224 C  
HETATM   34  C   UNL     1      -8.359   8.014  73.991  1.00  0.00    -0.323 C  
ENDBRANCH  18  31
ENDBRANCH  16  18
ENDBRANCH  13  14
ENDBRANCH  11  13
ENDBRANCH   3   4
ENDBRANCH   2   3
TORSDOF 8
ENDMDL
MODEL      284
REMARK 921   NORMALIZED FREE ENERGY PREDICTED BY IDOCK:   -3.12 KCAL/MOL
REMARK 922        TOTAL FREE ENERGY PREDICTED BY IDOCK:   -6.98 KCAL/MOL
REMARK 923 INTER-LIGAND FREE ENERGY PREDICTED BY IDOCK:   -7.89 KCAL/MOL
REMARK 924 INTRA-LIGAND FREE ENERGY PREDICTED BY IDOCK:    0.91 KCAL/MOL
REMARK 927      BINDING AFFINITY PREDICTED BY RF-SCORE:    0.00 PKD
ROOT
HETATM    1  C   UNL     1      -9.416  11.679  67.951  1.00  0.00    -0.181 C  
HETATM    2  C   UNL     1     -10.644  10.816  67.767  1.00  0.00    -0.228 C  
ENDROOT
BRANCH   2   3
HETATM    3  O   UNL     1     -11.823  11.629  67.936  1.00  0.00    -0.543 OA 
BRANCH   3   4
HETATM    4  C   UNL     1     -12.248  11.758  69.235  1.00  0.00    -0.140 A  
HETATM    5  C   UNL     1     -12.256  13.032  69.825  1.00  0.00    -0.242 A  
HETATM    6  C   UNL     1     -12.626  13.155  71.178  1.00  0.00    -0.403 A  
HETATM    7  C   UNL     1     -11.865  14.301  69.126  1.00  0.00    -0.330 C  
HETATM    8  C   UNL     1     -12.984  12.037  71.928  1.00  0.00    -0.428 A  
HETATM    9  O   UNL     1     -11.797  15.378  69.705  1.00  0.00    -0.304 OA 
HETATM   10  O   UNL     1     -11.622  14.179  67.810  1.00  0.00    -0.308 OA 
HETATM   11  C   UNL     1     -13.004  10.770  71.336  1.00  0.00    -0.535 A  
HETATM   12  C   UNL     1     -12.675  10.650  69.983  1.00  0.00    -0.157 A  
BRANCH  11  13
HETATM   13  C   UNL     1     -13.375   9.545  72.132  1.00  0.00    -0.545 C  
BRANCH  13  14
HETATM   14  C   UNL     1     -12.548   8.325  71.774  1.00  0.00    -0.333 C  
HETATM   15  O   UNL     1     -12.628   7.831  70.651  1.00  0.00     0.012 OA 
HETATM   16  N   UNL     1     -11.715   7.846  72.771  1.00  0.00    -0.580 N  
HETATM   17  H   UNL     1     -11.743   8.276  73.695  1.00  0.00     0.000 HD 
BRANCH  16  18
HETATM   18  C   UNL     1     -10.788   6.727  72.524  1.00  0.00    -0.239 C  
BRANCH  18  19
HETATM   19  C   UNL     1      -9.439   6.783  73.262  1.00  0.00    -0.172 A  
HETATM   20  C   UNL     1      -8.498   5.699  73.294  1.00  0.00    -0.117 A  
HETATM   21  C   UNL     1      -7.244   5.980  73.903  1.00  0.00    -0.084 A  
HETATM   22  C   UNL     1      -9.048   8.044  73.800  1.00  0.00    -0.242 A  
HETATM   23  C   UNL     1      -6.885   7.229  74.412  1.00  0.00    -0.098 A  
HETATM   24  C   UNL     1      -7.792   8.265  74.363  1.00  0.00    -0.301 A  
BRANCH  20  25
HETATM   25  N   UNL     1      -8.681   4.400  72.807  1.00  0.00    -0.108 NA 
HETATM   26  C   UNL     1      -7.519   3.587  72.380  1.00  0.00    -0.053 C  
HETATM   27  C   UNL     1      -7.638   2.180  72.978  1.00  0.00    -0.041 C  
HETATM   28  C   UNL     1      -8.935   1.512  72.537  1.00  0.00    -0.080 C  
HETATM   29  C   UNL     1     -10.122   2.390  72.886  1.00  0.00    -0.212 C  
HETATM   30  C   UNL     1      -9.959   3.822  72.394  1.00  0.00    -0.164 C  
ENDBRANCH  20  25
ENDBRANCH  18  19
BRANCH  18  31
HETATM   31  C   UNL     1     -10.520   6.514  71.020  1.00  0.00    -0.260 C  
HETATM   32  C   UNL     1      -9.012   8.570  70.626  1.00  0.00    -0.182 C  
HETATM   33  C   UNL     1      -9.180   7.056  70.481  1.00  0.00    -0.159 C  
HETATM   34  C   UNL     1      -9.074   6.706  68.993  1.00  0.00    -0.133 C  
ENDBRANCH  18  31
ENDBRANCH  16  18
ENDBRANCH  13  14
ENDBRANCH  11  13
ENDBRANCH   3   4
ENDBRANCH   2   3
TORSDOF 8
ENDMDL
MODEL      285
REMARK 921   NORMALIZED FREE ENERGY PREDICTED BY IDOCK:   -3.12 KCAL/MOL
REMARK 922        TOTAL FREE ENERGY PREDICTED BY IDOCK:   -6.98 KCAL/MOL
REMARK 923 INTER-LIGAND FREE ENERGY PREDICTED BY IDOCK:   -5.26 KCAL/MOL
REMARK 924 INTRA-LIGAND FREE ENERGY PREDICTED BY IDOCK:   -1.72 KCAL/MOL
REMARK 927      BINDING AFFINITY PREDICTED BY RF-SCORE:    0.00 PKD
ROOT
HETATM    1  C   UNL     1      -6.238   1.583  67.494  1.00  0.00    -0.024 C  
HETATM    2  C   UNL     1      -6.760   2.177  66.205  1.00  0.00    -0.038 C  
ENDROOT
BRANCH   2   3
HETATM    3  O   UNL     1      -8.175   1.915  66.102  1.00  0.00    -0.078 OA 
BRANCH   3   4
HETATM    4  C   UNL     1      -8.977   2.998  66.360  1.00  0.00    -0.152 A  
HETATM    5  C   UNL     1      -9.578   3.671  65.284  1.00  0.00    -0.160 A  
HETATM    6  C   UNL     1     -10.345   4.822  65.542  1.00  0.00    -0.162 A  
HETATM    7  C   UNL     1      -9.445   3.271  63.844  1.00  0.00    -0.130 C  
HETATM    8  C   UNL     1     -10.516   5.294  66.842  1.00  0.00    -0.313 A  
HETATM    9  O   UNL     1      -9.909   3.940  62.929  1.00  0.00    -0.142 OA 
HETATM   10  O   UNL     1      -8.802   2.111  63.628  1.00  0.00    -0.088 OA 
HETATM   11  C   UNL     1      -9.942   4.612  67.919  1.00  0.00    -0.138 A  
HETATM   12  C   UNL     1      -9.211   3.446  67.670  1.00  0.00    -0.233 A  
BRANCH  11  13
HETATM   13  C   UNL     1     -10.100   5.112  69.332  1.00  0.00    -0.305 C  
BRANCH  13  14
HETATM   14  C   UNL     1     -10.857   6.423  69.423  1.00  0.00    -0.321 C  
HETATM   15  O   UNL     1     -12.028   6.436  69.797  1.00  0.00    -0.257 OA 
HETATM   16  N   UNL     1     -10.141   7.559  69.083  1.00  0.00    -0.187 N  
HETATM   17  H   UNL     1      -9.189   7.462  68.731  1.00  0.00     0.000 HD 
BRANCH  16  18
HETATM   18  C   UNL     1     -10.728   8.904  69.221  1.00  0.00    -0.162 C  
BRANCH  18  19
HETATM   19  C   UNL     1      -9.863  10.078  68.727  1.00  0.00    -0.173 A  
HETATM   20  C   UNL     1      -8.433  10.123  68.846  1.00  0.00    -0.139 A  
HETATM   21  C   UNL     1      -7.789  11.219  68.207  1.00  0.00    -0.130 A  
HETATM   22  C   UNL     1     -10.519  11.090  67.968  1.00  0.00    -0.219 A  
HETATM   23  C   UNL     1      -8.457  12.190  67.461  1.00  0.00    -0.169 A  
HETATM   24  C   UNL     1      -9.828  12.128  67.342  1.00  0.00    -0.193 A  
BRANCH  20  25
HETATM   25  N   UNL     1      -7.607   9.222  69.528  1.00  0.00    -0.077 NA 
HETATM   26  C   UNL     1      -7.454   9.307  70.998  1.00  0.00    -0.064 C  
HETATM   27  C   UNL     1      -7.596   7.906  71.604  1.00  0.00    -0.084 C  
HETATM   28  C   UNL     1      -6.554   6.957  71.023  1.00  0.00    -0.053 C  
HETATM   29  C   UNL     1      -6.644   6.942  69.509  1.00  0.00    -0.048 C  
HETATM   30  C   UNL     1      -6.620   8.340  68.906  1.00  0.00    -0.053 C  
ENDBRANCH  20  25
ENDBRANCH  18  19
BRANCH  18  31
HETATM   31  C   UNL     1     -11.180   9.197  70.665  1.00  0.00    -0.322 C  
HETATM   32  C   UNL     1     -13.021  10.922  70.128  1.00  0.00    -0.032 C  
HETATM   33  C   UNL     1     -12.651   9.624  70.848  1.00  0.00    -0.299 C  
HETATM   34  C   UNL     1     -12.922   9.817  72.344  1.00  0.00    -0.312 C  
ENDBRANCH  18  31
ENDBRANCH  16  18
ENDBRANCH  13  14
ENDBRANCH  11  13
ENDBRANCH   3   4
ENDBRANCH   2   3
TORSDOF 8
ENDMDL
MODEL      286
REMARK 921   NORMALIZED FREE ENERGY PREDICTED BY IDOCK:   -3.12 KCAL/MOL
REMARK 922        TOTAL FREE ENERGY PREDICTED BY IDOCK:   -6.97 KCAL/MOL
REMARK 923 INTER-LIGAND FREE ENERGY PREDICTED BY IDOCK:   -6.75 KCAL/MOL
REMARK 924 INTRA-LIGAND FREE ENERGY PREDICTED BY IDOCK:   -0.22 KCAL/MOL
REMARK 927      BINDING AFFINITY PREDICTED BY RF-SCORE:    0.00 PKD
ROOT
HETATM    1  C   UNL     1      -8.183  16.619  65.931  1.00  0.00     0.076 C  
HETATM    2  C   UNL     1      -9.157  15.497  66.210  1.00  0.00    -0.334 C  
ENDROOT
BRANCH   2   3
HETATM    3  O   UNL     1      -9.911  15.809  67.399  1.00  0.00    -0.230 OA 
BRANCH   3   4
HETATM    4  C   UNL     1     -10.527  14.732  67.986  1.00  0.00    -0.246 A  
HETATM    5  C   UNL     1     -11.067  14.875  69.274  1.00  0.00    -0.284 A  
HETATM    6  C   UNL     1     -11.638  13.753  69.902  1.00  0.00    -0.298 A  
HETATM    7  C   UNL     1     -11.060  16.149  70.068  1.00  0.00    -0.363 C  
HETATM    8  C   UNL     1     -11.676  12.515  69.264  1.00  0.00    -0.379 A  
HETATM    9  O   UNL     1     -11.459  16.206  71.224  1.00  0.00    -0.418 OA 
HETATM   10  O   UNL     1     -10.611  17.231  69.410  1.00  0.00    -0.300 OA 
HETATM   11  C   UNL     1     -11.165  12.375  67.970  1.00  0.00    -0.317 A  
HETATM   12  C   UNL     1     -10.631  13.496  67.328  1.00  0.00    -0.263 A  
BRANCH  11  13
HETATM   13  C   UNL     1     -11.182  11.042  67.266  1.00  0.00    -0.330 C  
BRANCH  13  14
HETATM   14  C   UNL     1     -10.468   9.948  68.035  1.00  0.00    -0.222 C  
HETATM   15  O   UNL     1     -10.566   9.887  69.260  1.00  0.00    -0.202 OA 
HETATM   16  N   UNL     1      -9.744   9.047  67.273  1.00  0.00    -0.168 N  
HETATM   17  H   UNL     1      -9.666   9.194  66.266  1.00  0.00     0.000 HD 
BRANCH  16  18
HETATM   18  C   UNL     1      -9.083   7.880  67.886  1.00  0.00    -0.131 C  
BRANCH  18  19
HETATM   19  C   UNL     1      -8.156   8.172  69.079  1.00  0.00    -0.115 A  
HETATM   20  C   UNL     1      -8.390   7.687  70.411  1.00  0.00    -0.124 A  
HETATM   21  C   UNL     1      -7.355   7.934  71.354  1.00  0.00    -0.066 A  
HETATM   22  C   UNL     1      -6.920   8.821  68.795  1.00  0.00    -0.063 A  
HETATM   23  C   UNL     1      -6.149   8.564  71.044  1.00  0.00    -0.037 A  
HETATM   24  C   UNL     1      -5.931   9.012  69.759  1.00  0.00    -0.035 A  
BRANCH  20  25
HETATM   25  N   UNL     1      -9.522   7.014  70.885  1.00  0.00    -0.161 NA 
HETATM   26  C   UNL     1      -9.449   6.196  72.116  1.00  0.00    -0.151 C  
HETATM   27  C   UNL     1     -10.645   6.527  73.016  1.00  0.00    -0.276 C  
HETATM   28  C   UNL     1     -11.959   6.262  72.289  1.00  0.00    -0.296 C  
HETATM   29  C   UNL     1     -11.995   7.024  70.977  1.00  0.00    -0.406 C  
HETATM   30  C   UNL     1     -10.753   6.790  70.127  1.00  0.00    -0.233 C  
ENDBRANCH  20  25
ENDBRANCH  18  19
BRANCH  18  31
HETATM   31  C   UNL     1      -8.308   7.040  66.851  1.00  0.00    -0.118 C  
HETATM   32  C   UNL     1      -7.646   5.082  68.396  1.00  0.00    -0.078 C  
HETATM   33  C   UNL     1      -8.297   5.515  67.080  1.00  0.00    -0.104 C  
HETATM   34  C   UNL     1      -7.529   4.853  65.931  1.00  0.00    -0.082 C  
ENDBRANCH  18  31
ENDBRANCH  16  18
ENDBRANCH  13  14
ENDBRANCH  11  13
ENDBRANCH   3   4
ENDBRANCH   2   3
TORSDOF 8
ENDMDL
MODEL      287
REMARK 921   NORMALIZED FREE ENERGY PREDICTED BY IDOCK:   -2.92 KCAL/MOL
REMARK 922        TOTAL FREE ENERGY PREDICTED BY IDOCK:   -6.68 KCAL/MOL
REMARK 923 INTER-LIGAND FREE ENERGY PREDICTED BY IDOCK:   -5.60 KCAL/MOL
REMARK 924 INTRA-LIGAND FREE ENERGY PREDICTED BY IDOCK:   -1.08 KCAL/MOL
REMARK 927      BINDING AFFINITY PREDICTED BY RF-SCORE:    0.00 PKD
ROOT
HETATM    1  C   UNL     1      -9.308   2.586  70.648  1.00  0.00    -0.212 C  
HETATM    2  C   UNL     1      -9.093   3.825  69.809  1.00  0.00    -0.124 C  
ENDROOT
BRANCH   2   3
HETATM    3  O   UNL     1      -9.911   3.740  68.623  1.00  0.00    -0.082 OA 
BRANCH   3   4
HETATM    4  C   UNL     1      -9.767   4.792  67.753  1.00  0.00    -0.156 A  
HETATM    5  C   UNL     1      -9.254   4.548  66.469  1.00  0.00    -0.138 A  
HETATM    6  C   UNL     1      -9.043   5.635  65.601  1.00  0.00    -0.110 A  
HETATM    7  C   UNL     1      -8.876   3.194  65.942  1.00  0.00    -0.139 C  
HETATM    8  C   UNL     1      -9.338   6.937  65.997  1.00  0.00    -0.026 A  
HETATM    9  O   UNL     1      -8.346   3.037  64.850  1.00  0.00    -0.093 OA 
HETATM   10  O   UNL     1      -9.187   2.161  66.743  1.00  0.00    -0.103 OA 
HETATM   11  C   UNL     1      -9.874   7.182  67.264  1.00  0.00    -0.217 A  
HETATM   12  C   UNL     1     -10.122   6.101  68.115  1.00  0.00    -0.181 A  
BRANCH  11  13
HETATM   13  C   UNL     1     -10.188   8.585  67.720  1.00  0.00    -0.283 C  
BRANCH  13  14
HETATM   14  C   UNL     1      -9.215   9.619  67.189  1.00  0.00    -0.134 C  
HETATM   15  O   UNL     1      -8.015   9.360  67.115  1.00  0.00    -0.102 OA 
HETATM   16  N   UNL     1      -9.771  10.823  66.790  1.00  0.00    -0.183 N  
HETATM   17  H   UNL     1     -10.769  10.984  66.932  1.00  0.00     0.000 HD 
BRANCH  16  18
HETATM   18  C   UNL     1      -8.952  11.877  66.166  1.00  0.00    -0.116 C  
BRANCH  18  19
HETATM   19  C   UNL     1      -7.872  12.518  67.056  1.00  0.00    -0.065 A  
HETATM   20  C   UNL     1      -8.159  13.387  68.162  1.00  0.00    -0.155 A  
HETATM   21  C   UNL     1      -7.045  13.770  68.960  1.00  0.00    -0.088 A  
HETATM   22  C   UNL     1      -6.529  12.084  66.858  1.00  0.00    -0.060 A  
HETATM   23  C   UNL     1      -5.741  13.320  68.748  1.00  0.00    -0.074 A  
HETATM   24  C   UNL     1      -5.481  12.475  67.691  1.00  0.00    -0.123 A  
BRANCH  20  25
HETATM   25  N   UNL     1      -9.404  13.907  68.535  1.00  0.00    -0.193 NA 
HETATM   26  C   UNL     1      -9.621  15.371  68.592  1.00  0.00    -0.204 C  
HETATM   27  C   UNL     1     -10.938  15.716  67.888  1.00  0.00    -0.319 C  
HETATM   28  C   UNL     1     -12.107  14.988  68.541  1.00  0.00    -0.177 C  
HETATM   29  C   UNL     1     -11.844  13.494  68.572  1.00  0.00    -0.398 C  
HETATM   30  C   UNL     1     -10.484  13.149  69.166  1.00  0.00     0.099 C  
ENDBRANCH  20  25
ENDBRANCH  18  19
BRANCH  18  31
HETATM   31  C   UNL     1      -9.814  12.998  65.551  1.00  0.00    -0.150 C  
HETATM   32  C   UNL     1     -10.888  11.628  63.647  1.00  0.00    -0.503 C  
HETATM   33  C   UNL     1     -11.111  12.553  64.845  1.00  0.00    -0.336 C  
HETATM   34  C   UNL     1     -11.852  13.801  64.351  1.00  0.00    -0.458 C  
ENDBRANCH  18  31
ENDBRANCH  16  18
ENDBRANCH  13  14
ENDBRANCH  11  13
ENDBRANCH   3   4
ENDBRANCH   2   3
TORSDOF 8
ENDMDL
MODEL      288
REMARK 921   NORMALIZED FREE ENERGY PREDICTED BY IDOCK:   -2.77 KCAL/MOL
REMARK 922        TOTAL FREE ENERGY PREDICTED BY IDOCK:   -6.46 KCAL/MOL
REMARK 923 INTER-LIGAND FREE ENERGY PREDICTED BY IDOCK:   -4.37 KCAL/MOL
REMARK 924 INTRA-LIGAND FREE ENERGY PREDICTED BY IDOCK:   -2.09 KCAL/MOL
REMARK 927      BINDING AFFINITY PREDICTED BY RF-SCORE:    0.00 PKD
ROOT
HETATM    1  C   UNL     1      -6.011   1.474  67.729  1.00  0.00    -0.020 C  
HETATM    2  C   UNL     1      -6.602   2.121  66.497  1.00  0.00    -0.038 C  
ENDROOT
BRANCH   2   3
HETATM    3  O   UNL     1      -8.000   1.777  66.407  1.00  0.00    -0.070 OA 
BRANCH   3   4
HETATM    4  C   UNL     1      -8.860   2.842  66.517  1.00  0.00    -0.146 A  
HETATM    5  C   UNL     1      -9.548   3.281  65.375  1.00  0.00    -0.069 A  
HETATM    6  C   UNL     1     -10.376   4.414  65.472  1.00  0.00    -0.247 A  
HETATM    7  C   UNL     1      -9.450   2.644  64.019  1.00  0.00    -0.125 C  
HETATM    8  C   UNL     1     -10.521   5.096  66.678  1.00  0.00    -0.328 A  
HETATM    9  O   UNL     1      -9.996   3.116  63.029  1.00  0.00    -0.102 OA 
HETATM   10  O   UNL     1      -8.743   1.503  63.972  1.00  0.00    -0.080 OA 
HETATM   11  C   UNL     1      -9.859   4.646  67.824  1.00  0.00    -0.183 A  
HETATM   12  C   UNL     1      -9.066   3.498  67.741  1.00  0.00    -0.197 A  
BRANCH  11  13
HETATM   13  C   UNL     1      -9.989   5.376  69.137  1.00  0.00    -0.267 C  
BRANCH  13  14
HETATM   14  C   UNL     1     -10.207   6.868  68.974  1.00  0.00    -0.181 C  
HETATM   15  O   UNL     1     -11.346   7.331  68.983  1.00  0.00     0.065 OA 
HETATM   16  N   UNL     1      -9.062   7.635  68.841  1.00  0.00    -0.141 N  
HETATM   17  H   UNL     1      -8.154   7.172  68.790  1.00  0.00     0.000 HD 
BRANCH  16  18
HETATM   18  C   UNL     1      -9.128   9.106  68.774  1.00  0.00    -0.136 C  
BRANCH  18  19
HETATM   19  C   UNL     1      -7.780   9.846  68.707  1.00  0.00    -0.086 A  
HETATM   20  C   UNL     1      -6.876   9.763  67.594  1.00  0.00    -0.085 A  
HETATM   21  C   UNL     1      -5.746  10.625  67.644  1.00  0.00    -0.043 A  
HETATM   22  C   UNL     1      -7.506  10.786  69.742  1.00  0.00    -0.028 A  
HETATM   23  C   UNL     1      -5.509  11.545  68.666  1.00  0.00    -0.042 A  
HETATM   24  C   UNL     1      -6.391  11.625  69.722  1.00  0.00    -0.134 A  
BRANCH  20  25
HETATM   25  N   UNL     1      -6.975   8.924  66.479  1.00  0.00    -0.079 NA 
HETATM   26  C   UNL     1      -5.843   8.052  66.091  1.00  0.00    -0.040 C  
HETATM   27  C   UNL     1      -6.366   6.640  65.803  1.00  0.00    -0.042 C  
HETATM   28  C   UNL     1      -7.411   6.666  64.693  1.00  0.00    -0.093 C  
HETATM   29  C   UNL     1      -8.525   7.634  65.044  1.00  0.00    -0.027 C  
HETATM   30  C   UNL     1      -8.006   9.008  65.444  1.00  0.00    -0.111 C  
ENDBRANCH  20  25
ENDBRANCH  18  19
BRANCH  18  31
HETATM   31  C   UNL     1      -9.964   9.705  69.922  1.00  0.00    -0.273 C  
HETATM   32  C   UNL     1     -10.906  11.748  68.661  1.00  0.00    -0.259 C  
HETATM   33  C   UNL     1     -11.211  10.513  69.511  1.00  0.00    -0.329 C  
HETATM   34  C   UNL     1     -11.934  10.978  70.780  1.00  0.00    -0.436 C  
ENDBRANCH  18  31
ENDBRANCH  16  18
ENDBRANCH  13  14
ENDBRANCH  11  13
ENDBRANCH   3   4
ENDBRANCH   2   3
TORSDOF 8
ENDMDL
MODEL      289
REMARK 921   NORMALIZED FREE ENERGY PREDICTED BY IDOCK:   -2.71 KCAL/MOL
REMARK 922        TOTAL FREE ENERGY PREDICTED BY IDOCK:   -6.38 KCAL/MOL
REMARK 923 INTER-LIGAND FREE ENERGY PREDICTED BY IDOCK:   -6.10 KCAL/MOL
REMARK 924 INTRA-LIGAND FREE ENERGY PREDICTED BY IDOCK:   -0.28 KCAL/MOL
REMARK 927      BINDING AFFINITY PREDICTED BY RF-SCORE:    0.00 PKD
ROOT
HETATM    1  C   UNL     1     -12.334  13.215  64.537  1.00  0.00    -0.447 C  
HETATM    2  C   UNL     1     -11.633  12.211  63.650  1.00  0.00    -0.486 C  
ENDROOT
BRANCH   2   3
HETATM    3  O   UNL     1     -10.260  12.082  64.075  1.00  0.00    -0.315 OA 
BRANCH   3   4
HETATM    4  C   UNL     1     -10.094  11.905  65.426  1.00  0.00    -0.253 A  
HETATM    5  C   UNL     1      -9.355  10.801  65.881  1.00  0.00    -0.220 A  
HETATM    6  C   UNL     1      -9.242  10.582  67.267  1.00  0.00    -0.156 A  
HETATM    7  C   UNL     1      -8.684   9.796  64.992  1.00  0.00    -0.174 C  
HETATM    8  C   UNL     1      -9.847  11.441  68.181  1.00  0.00    -0.195 A  
HETATM    9  O   UNL     1      -8.128   8.797  65.431  1.00  0.00    -0.111 OA 
HETATM   10  O   UNL     1      -8.710  10.083  63.680  1.00  0.00    -0.179 OA 
HETATM   11  C   UNL     1     -10.560  12.556  67.733  1.00  0.00    -0.235 A  
HETATM   12  C   UNL     1     -10.642  12.800  66.359  1.00  0.00    -0.273 A  
BRANCH  11  13
HETATM   13  C   UNL     1     -11.235  13.492  68.703  1.00  0.00    -0.311 C  
BRANCH  13  14
HETATM   14  C   UNL     1     -10.405  14.719  69.028  1.00  0.00    -0.243 C  
HETATM   15  O   UNL     1     -10.307  15.109  70.191  1.00  0.00    -0.224 OA 
HETATM   16  N   UNL     1      -9.778  15.326  67.954  1.00  0.00    -0.211 N  
HETATM   17  H   UNL     1      -9.950  14.976  67.012  1.00  0.00     0.000 HD 
BRANCH  16  18
HETATM   18  C   UNL     1      -8.865  16.468  68.144  1.00  0.00    -0.203 C  
BRANCH  18  19
HETATM   19  C   UNL     1      -9.190  17.741  67.342  1.00  0.00    -0.248 A  
HETATM   20  C   UNL     1      -8.404  18.942  67.394  1.00  0.00    -0.275 A  
HETATM   21  C   UNL     1      -8.771  19.967  66.478  1.00  0.00    -0.406 A  
HETATM   22  C   UNL     1     -10.236  17.649  66.379  1.00  0.00    -0.364 A  
HETATM   23  C   UNL     1      -9.795  19.845  65.538  1.00  0.00     0.015 A  
HETATM   24  C   UNL     1     -10.533  18.682  65.489  1.00  0.00     0.033 A  
BRANCH  20  25
HETATM   25  N   UNL     1      -7.331  19.220  68.248  1.00  0.00    -0.282 NA 
HETATM   26  C   UNL     1      -7.532  20.036  69.466  1.00  0.00     0.110 C  
HETATM   27  C   UNL     1      -6.848  19.349  70.654  1.00  0.00     0.551 C  
HETATM   28  C   UNL     1      -5.359  19.164  70.389  1.00  0.00    -0.231 C  
HETATM   29  C   UNL     1      -5.148  18.412  69.088  1.00  0.00    -0.187 C  
HETATM   30  C   UNL     1      -5.918  19.022  67.925  1.00  0.00    -0.202 C  
ENDBRANCH  20  25
ENDBRANCH  18  19
BRANCH  18  31
HETATM   31  C   UNL     1      -7.394  16.086  67.889  1.00  0.00    -0.145 C  
HETATM   32  C   UNL     1      -6.966  14.798  70.084  1.00  0.00    -0.006 C  
HETATM   33  C   UNL     1      -6.900  14.785  68.555  1.00  0.00    -0.107 C  
HETATM   34  C   UNL     1      -5.442  14.548  68.146  1.00  0.00    -0.123 C  
ENDBRANCH  18  31
ENDBRANCH  16  18
ENDBRANCH  13  14
ENDBRANCH  11  13
ENDBRANCH   3   4
ENDBRANCH   2   3
TORSDOF 8
ENDMDL
MODEL      290
REMARK 921   NORMALIZED FREE ENERGY PREDICTED BY IDOCK:   -2.58 KCAL/MOL
REMARK 922        TOTAL FREE ENERGY PREDICTED BY IDOCK:   -6.19 KCAL/MOL
REMARK 923 INTER-LIGAND FREE ENERGY PREDICTED BY IDOCK:   -6.06 KCAL/MOL
REMARK 924 INTRA-LIGAND FREE ENERGY PREDICTED BY IDOCK:   -0.12 KCAL/MOL
REMARK 927      BINDING AFFINITY PREDICTED BY RF-SCORE:    0.00 PKD
ROOT
HETATM    1  C   UNL     1     -10.464  10.984  69.763  1.00  0.00     0.025 C  
HETATM    2  C   UNL     1     -11.956  10.852  69.550  1.00  0.00    -0.330 C  
ENDROOT
BRANCH   2   3
HETATM    3  O   UNL     1     -12.333  11.600  68.376  1.00  0.00    -0.417 OA 
BRANCH   3   4
HETATM    4  C   UNL     1     -11.418  11.561  67.354  1.00  0.00    -0.274 A  
HETATM    5  C   UNL     1     -11.101  12.750  66.679  1.00  0.00    -0.313 A  
HETATM    6  C   UNL     1     -10.214  12.699  65.587  1.00  0.00    -0.290 A  
HETATM    7  C   UNL     1     -11.663  14.101  67.015  1.00  0.00    -0.405 C  
HETATM    8  C   UNL     1      -9.652  11.493  65.175  1.00  0.00    -0.235 A  
HETATM    9  O   UNL     1     -11.431  15.097  66.342  1.00  0.00    -0.285 OA 
HETATM   10  O   UNL     1     -12.419  14.147  68.125  1.00  0.00    -0.115 OA 
HETATM   11  C   UNL     1      -9.944  10.310  65.862  1.00  0.00    -0.321 A  
HETATM   12  C   UNL     1     -10.793  10.364  66.970  1.00  0.00    -0.269 A  
BRANCH  11  13
HETATM   13  C   UNL     1      -9.359   8.992  65.425  1.00  0.00    -0.213 C  
BRANCH  13  14
HETATM   14  C   UNL     1      -9.507   7.897  66.464  1.00  0.00    -0.214 C  
HETATM   15  O   UNL     1     -10.623   7.484  66.773  1.00  0.00    -0.318 OA 
HETATM   16  N   UNL     1      -8.327   7.406  66.997  1.00  0.00    -0.120 N  
HETATM   17  H   UNL     1      -7.441   7.836  66.730  1.00  0.00     0.000 HD 
BRANCH  16  18
HETATM   18  C   UNL     1      -8.324   6.276  67.943  1.00  0.00    -0.118 C  
BRANCH  18  19
HETATM   19  C   UNL     1      -8.398   4.869  67.323  1.00  0.00    -0.106 A  
HETATM   20  C   UNL     1      -8.445   3.657  68.093  1.00  0.00    -0.093 A  
HETATM   21  C   UNL     1      -8.656   2.459  67.356  1.00  0.00    -0.122 A  
HETATM   22  C   UNL     1      -8.595   4.792  65.914  1.00  0.00    -0.119 A  
HETATM   23  C   UNL     1      -8.856   2.416  65.975  1.00  0.00    -0.125 A  
HETATM   24  C   UNL     1      -8.823   3.587  65.250  1.00  0.00    -0.124 A  
BRANCH  20  25
HETATM   25  N   UNL     1      -8.294   3.522  69.477  1.00  0.00    -0.055 NA 
HETATM   26  C   UNL     1      -6.949   3.360  70.075  1.00  0.00    -0.034 C  
HETATM   27  C   UNL     1      -6.811   4.302  71.276  1.00  0.00    -0.035 C  
HETATM   28  C   UNL     1      -7.885   4.011  72.318  1.00  0.00    -0.080 C  
HETATM   29  C   UNL     1      -9.262   4.081  71.685  1.00  0.00    -0.186 C  
HETATM   30  C   UNL     1      -9.372   3.236  70.423  1.00  0.00    -0.167 C  
ENDBRANCH  20  25
ENDBRANCH  18  19
BRANCH  18  31
HETATM   31  C   UNL     1      -9.431   6.405  69.008  1.00  0.00    -0.131 C  
HETATM   32  C   UNL     1      -8.137   7.855  70.705  1.00  0.00    -0.102 C  
HETATM   33  C   UNL     1      -9.406   7.685  69.868  1.00  0.00    -0.150 C  
HETATM   34  C   UNL     1     -10.604   7.657  70.824  1.00  0.00    -0.224 C  
ENDBRANCH  18  31
ENDBRANCH  16  18
ENDBRANCH  13  14
ENDBRANCH  11  13
ENDBRANCH   3   4
ENDBRANCH   2   3
TORSDOF 8
ENDMDL
MODEL      291
REMARK 921   NORMALIZED FREE ENERGY PREDICTED BY IDOCK:   -2.53 KCAL/MOL
REMARK 922        TOTAL FREE ENERGY PREDICTED BY IDOCK:   -6.11 KCAL/MOL
REMARK 923 INTER-LIGAND FREE ENERGY PREDICTED BY IDOCK:   -4.73 KCAL/MOL
REMARK 924 INTRA-LIGAND FREE ENERGY PREDICTED BY IDOCK:   -1.38 KCAL/MOL
REMARK 927      BINDING AFFINITY PREDICTED BY RF-SCORE:    0.00 PKD
ROOT
HETATM    1  C   UNL     1     -10.839   3.347  63.327  1.00  0.00    -0.185 C  
HETATM    2  C   UNL     1      -9.894   3.729  64.443  1.00  0.00    -0.188 C  
ENDROOT
BRANCH   2   3
HETATM    3  O   UNL     1      -9.192   4.934  64.077  1.00  0.00    -0.063 OA 
BRANCH   3   4
HETATM    4  C   UNL     1      -8.305   5.389  65.022  1.00  0.00    -0.145 A  
HETATM    5  C   UNL     1      -6.936   5.416  64.713  1.00  0.00    -0.049 A  
HETATM    6  C   UNL     1      -6.022   5.817  65.705  1.00  0.00    -0.025 A  
HETATM    7  C   UNL     1      -6.349   5.015  63.392  1.00  0.00    -0.026 C  
HETATM    8  C   UNL     1      -6.457   6.188  66.975  1.00  0.00    -0.053 A  
HETATM    9  O   UNL     1      -5.141   4.965  63.195  1.00  0.00    -0.009 OA 
HETATM   10  O   UNL     1      -7.244   4.741  62.427  1.00  0.00    -0.034 OA 
HETATM   11  C   UNL     1      -7.822   6.190  67.278  1.00  0.00    -0.102 A  
HETATM   12  C   UNL     1      -8.736   5.828  66.284  1.00  0.00    -0.134 A  
BRANCH  11  13
HETATM   13  C   UNL     1      -8.315   6.573  68.650  1.00  0.00    -0.122 C  
BRANCH  13  14
HETATM   14  C   UNL     1      -9.203   7.802  68.646  1.00  0.00    -0.138 C  
HETATM   15  O   UNL     1     -10.399   7.702  68.913  1.00  0.00    -0.206 OA 
HETATM   16  N   UNL     1      -8.575   9.000  68.350  1.00  0.00    -0.129 N  
HETATM   17  H   UNL     1      -7.589   8.996  68.087  1.00  0.00     0.000 HD 
BRANCH  16  18
HETATM   18  C   UNL     1      -9.301  10.282  68.408  1.00  0.00    -0.143 C  
BRANCH  18  19
HETATM   19  C   UNL     1      -8.445  11.556  68.295  1.00  0.00    -0.159 A  
HETATM   20  C   UNL     1      -8.495  12.457  67.178  1.00  0.00    -0.185 A  
HETATM   21  C   UNL     1      -7.741  13.655  67.310  1.00  0.00    -0.091 A  
HETATM   22  C   UNL     1      -7.689  11.931  69.443  1.00  0.00     0.404 A  
HETATM   23  C   UNL     1      -7.017  14.001  68.452  1.00  0.00    -0.100 A  
HETATM   24  C   UNL     1      -6.989  13.135  69.523  1.00  0.00     0.171 A  
BRANCH  20  25
HETATM   25  N   UNL     1      -9.188  12.282  65.975  1.00  0.00    -0.147 NA 
HETATM   26  C   UNL     1      -8.971  11.072  65.150  1.00  0.00    -0.145 C  
HETATM   27  C   UNL     1     -10.327  10.502  64.720  1.00  0.00    -0.300 C  
HETATM   28  C   UNL     1     -11.124  11.536  63.932  1.00  0.00    -0.458 C  
HETATM   29  C   UNL     1     -11.264  12.814  64.737  1.00  0.00    -0.339 C  
HETATM   30  C   UNL     1      -9.931  13.325  65.266  1.00  0.00    -0.173 C  
ENDBRANCH  20  25
ENDBRANCH  18  19
BRANCH  18  31
HETATM   31  C   UNL     1     -10.188  10.392  69.664  1.00  0.00    -0.245 C  
HETATM   32  C   UNL     1     -11.821  12.193  68.800  1.00  0.00    -0.356 C  
HETATM   33  C   UNL     1     -11.654  10.809  69.431  1.00  0.00    -0.380 C  
HETATM   34  C   UNL     1     -12.383  10.812  70.780  1.00  0.00    -0.480 C  
ENDBRANCH  18  31
ENDBRANCH  16  18
ENDBRANCH  13  14
ENDBRANCH  11  13
ENDBRANCH   3   4
ENDBRANCH   2   3
TORSDOF 8
ENDMDL
MODEL      292
REMARK 921   NORMALIZED FREE ENERGY PREDICTED BY IDOCK:   -2.49 KCAL/MOL
REMARK 922        TOTAL FREE ENERGY PREDICTED BY IDOCK:   -6.05 KCAL/MOL
REMARK 923 INTER-LIGAND FREE ENERGY PREDICTED BY IDOCK:   -6.25 KCAL/MOL
REMARK 924 INTRA-LIGAND FREE ENERGY PREDICTED BY IDOCK:    0.20 KCAL/MOL
REMARK 927      BINDING AFFINITY PREDICTED BY RF-SCORE:    0.00 PKD
ROOT
HETATM    1  C   UNL     1      -7.786   7.114  66.288  1.00  0.00    -0.107 C  
HETATM    2  C   UNL     1      -8.778   7.470  67.373  1.00  0.00    -0.124 C  
ENDROOT
BRANCH   2   3
HETATM    3  O   UNL     1      -8.066   8.010  68.505  1.00  0.00    -0.121 OA 
BRANCH   3   4
HETATM    4  C   UNL     1      -8.841   8.234  69.616  1.00  0.00    -0.139 A  
HETATM    5  C   UNL     1      -8.820   7.298  70.661  1.00  0.00    -0.148 A  
HETATM    6  C   UNL     1      -9.666   7.492  71.768  1.00  0.00    -0.187 A  
HETATM    7  C   UNL     1      -7.970   6.061  70.684  1.00  0.00    -0.111 C  
HETATM    8  C   UNL     1     -10.514   8.595  71.839  1.00  0.00    -0.410 A  
HETATM    9  O   UNL     1      -8.051   5.223  71.573  1.00  0.00    -0.111 OA 
HETATM   10  O   UNL     1      -7.092   5.950  69.673  1.00  0.00    -0.064 OA 
HETATM   11  C   UNL     1     -10.519   9.545  70.812  1.00  0.00    -0.384 A  
HETATM   12  C   UNL     1      -9.652   9.375  69.729  1.00  0.00    -0.216 A  
BRANCH  11  13
HETATM   13  C   UNL     1     -11.438  10.738  70.860  1.00  0.00    -0.096 C  
BRANCH  13  14
HETATM   14  C   UNL     1     -11.276  11.668  69.673  1.00  0.00    -0.177 C  
HETATM   15  O   UNL     1     -12.250  12.262  69.215  1.00  0.00    -0.198 OA 
HETATM   16  N   UNL     1      -9.988  11.803  69.183  1.00  0.00    -0.410 N  
HETATM   17  H   UNL     1      -9.239  11.236  69.582  1.00  0.00     0.000 HD 
BRANCH  16  18
HETATM   18  C   UNL     1      -9.676  12.749  68.096  1.00  0.00    -0.223 C  
BRANCH  18  19
HETATM   19  C   UNL     1     -10.380  12.497  66.751  1.00  0.00    -0.241 A  
HETATM   20  C   UNL     1     -10.807  13.542  65.863  1.00  0.00    -0.275 A  
HETATM   21  C   UNL     1     -11.311  13.122  64.601  1.00  0.00    -0.363 A  
HETATM   22  C   UNL     1     -10.459  11.146  66.304  1.00  0.00    -0.312 A  
HETATM   23  C   UNL     1     -11.366  11.790  64.187  1.00  0.00    -0.430 A  
HETATM   24  C   UNL     1     -10.941  10.797  65.043  1.00  0.00     0.078 A  
BRANCH  20  25
HETATM   25  N   UNL     1     -10.794  14.921  66.105  1.00  0.00    -0.321 NA 
HETATM   26  C   UNL     1     -11.847  15.549  66.935  1.00  0.00     0.351 C  
HETATM   27  C   UNL     1     -11.195  16.495  67.950  1.00  0.00    -0.155 C  
HETATM   28  C   UNL     1     -10.378  17.569  67.240  1.00  0.00    -0.337 C  
HETATM   29  C   UNL     1      -9.362  16.929  66.313  1.00  0.00    -0.292 C  
HETATM   30  C   UNL     1      -9.986  15.901  65.379  1.00  0.00    -0.195 C  
ENDBRANCH  20  25
ENDBRANCH  18  19
BRANCH  18  31
HETATM   31  C   UNL     1      -8.159  12.867  67.845  1.00  0.00    -0.161 C  
HETATM   32  C   UNL     1      -7.935  15.417  68.164  1.00  0.00    -0.132 C  
HETATM   33  C   UNL     1      -7.436  14.026  68.560  1.00  0.00    -0.124 C  
HETATM   34  C   UNL     1      -5.941  13.947  68.232  1.00  0.00    -0.117 C  
ENDBRANCH  18  31
ENDBRANCH  16  18
ENDBRANCH  13  14
ENDBRANCH  11  13
ENDBRANCH   3   4
ENDBRANCH   2   3
TORSDOF 8
ENDMDL
MODEL      293
REMARK 921   NORMALIZED FREE ENERGY PREDICTED BY IDOCK:   -2.38 KCAL/MOL
REMARK 922        TOTAL FREE ENERGY PREDICTED BY IDOCK:   -5.90 KCAL/MOL
REMARK 923 INTER-LIGAND FREE ENERGY PREDICTED BY IDOCK:   -5.16 KCAL/MOL
REMARK 924 INTRA-LIGAND FREE ENERGY PREDICTED BY IDOCK:   -0.73 KCAL/MOL
REMARK 927      BINDING AFFINITY PREDICTED BY RF-SCORE:    0.00 PKD
ROOT
HETATM    1  C   UNL     1     -13.319  11.753  71.929  1.00  0.00    -0.401 C  
HETATM    2  C   UNL     1     -12.088  10.925  71.633  1.00  0.00     0.143 C  
ENDROOT
BRANCH   2   3
HETATM    3  O   UNL     1     -12.491   9.578  71.311  1.00  0.00    -0.315 OA 
BRANCH   3   4
HETATM    4  C   UNL     1     -11.677   8.600  71.824  1.00  0.00    -0.331 A  
HETATM    5  C   UNL     1     -12.216   7.328  72.076  1.00  0.00    -0.312 A  
HETATM    6  C   UNL     1     -11.400   6.346  72.666  1.00  0.00    -0.266 A  
HETATM    7  C   UNL     1     -13.633   6.928  71.786  1.00  0.00    -0.145 C  
HETATM    8  C   UNL     1     -10.075   6.618  72.997  1.00  0.00    -0.204 A  
HETATM    9  O   UNL     1     -14.088   5.837  72.107  1.00  0.00     0.448 OA 
HETATM   10  O   UNL     1     -14.363   7.842  71.124  1.00  0.00    -0.332 OA 
HETATM   11  C   UNL     1      -9.525   7.874  72.724  1.00  0.00    -0.304 A  
HETATM   12  C   UNL     1     -10.322   8.840  72.102  1.00  0.00    -0.378 A  
BRANCH  11  13
HETATM   13  C   UNL     1      -8.098   8.196  73.086  1.00  0.00    -0.237 C  
BRANCH  13  14
HETATM   14  C   UNL     1      -7.217   8.458  71.880  1.00  0.00    -0.095 C  
HETATM   15  O   UNL     1      -6.007   8.245  71.940  1.00  0.00    -0.037 OA 
HETATM   16  N   UNL     1      -7.866   8.919  70.747  1.00  0.00    -0.105 N  
HETATM   17  H   UNL     1      -8.864   9.123  70.791  1.00  0.00     0.000 HD 
BRANCH  16  18
HETATM   18  C   UNL     1      -7.143   9.121  69.478  1.00  0.00    -0.059 C  
BRANCH  18  19
HETATM   19  C   UNL     1      -6.798  10.577  69.115  1.00  0.00    -0.074 A  
HETATM   20  C   UNL     1      -7.717  11.483  68.485  1.00  0.00    -0.134 A  
HETATM   21  C   UNL     1      -7.275  12.828  68.354  1.00  0.00    -0.115 A  
HETATM   22  C   UNL     1      -5.551  11.083  69.584  1.00  0.00    -0.043 A  
HETATM   23  C   UNL     1      -6.051  13.298  68.833  1.00  0.00    -0.083 A  
HETATM   24  C   UNL     1      -5.184  12.422  69.449  1.00  0.00    -0.066 A  
BRANCH  20  25
HETATM   25  N   UNL     1      -8.987  11.189  67.975  1.00  0.00    -0.143 NA 
HETATM   26  C   UNL     1     -10.136  10.993  68.888  1.00  0.00    -0.199 C  
HETATM   27  C   UNL     1     -11.338  11.789  68.368  1.00  0.00    -0.328 C  
HETATM   28  C   UNL     1     -11.710  11.349  66.957  1.00  0.00     0.001 C  
HETATM   29  C   UNL     1     -10.506  11.456  66.040  1.00  0.00    -0.305 C  
HETATM   30  C   UNL     1      -9.273  10.764  66.606  1.00  0.00    -0.166 C  
ENDBRANCH  20  25
ENDBRANCH  18  19
BRANCH  18  31
HETATM   31  C   UNL     1      -7.870   8.473  68.284  1.00  0.00    -0.106 C  
HETATM   32  C   UNL     1      -8.902   6.465  69.533  1.00  0.00    -0.136 C  
HETATM   33  C   UNL     1      -9.142   7.665  68.615  1.00  0.00    -0.135 C  
HETATM   34  C   UNL     1      -9.747   7.147  67.306  1.00  0.00    -0.198 C  
ENDBRANCH  18  31
ENDBRANCH  16  18
ENDBRANCH  13  14
ENDBRANCH  11  13
ENDBRANCH   3   4
ENDBRANCH   2   3
TORSDOF 8
ENDMDL
MODEL      294
REMARK 921   NORMALIZED FREE ENERGY PREDICTED BY IDOCK:   -2.36 KCAL/MOL
REMARK 922        TOTAL FREE ENERGY PREDICTED BY IDOCK:   -5.85 KCAL/MOL
REMARK 923 INTER-LIGAND FREE ENERGY PREDICTED BY IDOCK:   -4.62 KCAL/MOL
REMARK 924 INTRA-LIGAND FREE ENERGY PREDICTED BY IDOCK:   -1.23 KCAL/MOL
REMARK 927      BINDING AFFINITY PREDICTED BY RF-SCORE:    0.00 PKD
ROOT
HETATM    1  C   UNL     1     -13.624  11.560  71.835  1.00  0.00    -0.097 C  
HETATM    2  C   UNL     1     -12.288  11.081  71.313  1.00  0.00    -0.321 C  
ENDROOT
BRANCH   2   3
HETATM    3  O   UNL     1     -12.428   9.729  70.830  1.00  0.00    -0.306 OA 
BRANCH   3   4
HETATM    4  C   UNL     1     -11.665   8.802  71.497  1.00  0.00    -0.309 A  
HETATM    5  C   UNL     1     -12.268   7.612  71.934  1.00  0.00    -0.336 A  
HETATM    6  C   UNL     1     -11.504   6.693  72.677  1.00  0.00    -0.221 A  
HETATM    7  C   UNL     1     -13.703   7.242  71.695  1.00  0.00    -0.347 C  
HETATM    8  C   UNL     1     -10.167   6.948  72.976  1.00  0.00    -0.243 A  
HETATM    9  O   UNL     1     -14.213   6.237  72.175  1.00  0.00    -0.027 OA 
HETATM   10  O   UNL     1     -14.384   8.078  70.894  1.00  0.00    -0.109 OA 
HETATM   11  C   UNL     1      -9.555   8.119  72.519  1.00  0.00    -0.347 A  
HETATM   12  C   UNL     1     -10.300   9.016  71.748  1.00  0.00    -0.407 A  
BRANCH  11  13
HETATM   13  C   UNL     1      -8.115   8.422  72.843  1.00  0.00    -0.166 C  
BRANCH  13  14
HETATM   14  C   UNL     1      -7.135   7.782  71.879  1.00  0.00    -0.067 C  
HETATM   15  O   UNL     1      -6.194   8.434  71.429  1.00  0.00    -0.036 OA 
HETATM   16  N   UNL     1      -7.368   6.451  71.576  1.00  0.00    -0.086 N  
HETATM   17  H   UNL     1      -8.200   5.992  71.946  1.00  0.00     0.000 HD 
BRANCH  16  18
HETATM   18  C   UNL     1      -6.437   5.683  70.729  1.00  0.00    -0.035 C  
BRANCH  18  19
HETATM   19  C   UNL     1      -6.969   5.248  69.352  1.00  0.00    -0.055 A  
HETATM   20  C   UNL     1      -8.047   4.316  69.169  1.00  0.00    -0.067 A  
HETATM   21  C   UNL     1      -8.500   4.142  67.832  1.00  0.00    -0.102 A  
HETATM   22  C   UNL     1      -6.463   5.941  68.214  1.00  0.00    -0.046 A  
HETATM   23  C   UNL     1      -7.991   4.843  66.737  1.00  0.00    -0.103 A  
HETATM   24  C   UNL     1      -6.967   5.745  66.928  1.00  0.00    -0.065 A  
BRANCH  20  25
HETATM   25  N   UNL     1      -8.689   3.555  70.152  1.00  0.00    -0.062 NA 
HETATM   26  C   UNL     1      -8.386   2.114  70.304  1.00  0.00    -0.041 C  
HETATM   27  C   UNL     1      -8.165   1.797  71.787  1.00  0.00    -0.047 C  
HETATM   28  C   UNL     1      -9.397   2.162  72.608  1.00  0.00    -0.124 C  
HETATM   29  C   UNL     1      -9.769   3.614  72.378  1.00  0.00    -0.215 C  
HETATM   30  C   UNL     1      -9.877   3.966  70.900  1.00  0.00    -0.143 C  
ENDBRANCH  20  25
ENDBRANCH  18  19
BRANCH  18  31
HETATM   31  C   UNL     1      -5.876   4.445  71.456  1.00  0.00    -0.016 C  
HETATM   32  C   UNL     1      -5.933   5.376  73.861  1.00  0.00    -0.051 C  
HETATM   33  C   UNL     1      -6.333   4.242  72.915  1.00  0.00    -0.025 C  
HETATM   34  C   UNL     1      -5.718   2.943  73.445  1.00  0.00     0.000 C  
ENDBRANCH  18  31
ENDBRANCH  16  18
ENDBRANCH  13  14
ENDBRANCH  11  13
ENDBRANCH   3   4
ENDBRANCH   2   3
TORSDOF 8
ENDMDL
MODEL      295
REMARK 921   NORMALIZED FREE ENERGY PREDICTED BY IDOCK:   -2.35 KCAL/MOL
REMARK 922        TOTAL FREE ENERGY PREDICTED BY IDOCK:   -5.84 KCAL/MOL
REMARK 923 INTER-LIGAND FREE ENERGY PREDICTED BY IDOCK:   -6.55 KCAL/MOL
REMARK 924 INTRA-LIGAND FREE ENERGY PREDICTED BY IDOCK:    0.71 KCAL/MOL
REMARK 927      BINDING AFFINITY PREDICTED BY RF-SCORE:    0.00 PKD
ROOT
HETATM    1  C   UNL     1     -10.573  10.588  69.955  1.00  0.00    -0.261 C  
HETATM    2  C   UNL     1     -11.993  10.754  69.461  1.00  0.00    -0.292 C  
ENDROOT
BRANCH   2   3
HETATM    3  O   UNL     1     -12.235  12.147  69.178  1.00  0.00    -0.202 OA 
BRANCH   3   4
HETATM    4  C   UNL     1     -11.662  12.604  68.018  1.00  0.00    -0.350 A  
HETATM    5  C   UNL     1     -11.414  13.978  67.876  1.00  0.00    -0.347 A  
HETATM    6  C   UNL     1     -10.889  14.454  66.660  1.00  0.00    -0.304 A  
HETATM    7  C   UNL     1     -11.695  15.011  68.927  1.00  0.00    -0.328 C  
HETATM    8  C   UNL     1     -10.613  13.585  65.608  1.00  0.00    -0.284 A  
HETATM    9  O   UNL     1     -11.551  16.211  68.728  1.00  0.00    -0.368 OA 
HETATM   10  O   UNL     1     -12.091  14.525  70.116  1.00  0.00    -0.294 OA 
HETATM   11  C   UNL     1     -10.832  12.211  65.754  1.00  0.00    -0.319 A  
HETATM   12  C   UNL     1     -11.317  11.730  66.974  1.00  0.00    -0.387 A  
BRANCH  11  13
HETATM   13  C   UNL     1     -10.554  11.253  64.625  1.00  0.00    -0.392 C  
BRANCH  13  14
HETATM   14  C   UNL     1      -9.593  10.142  65.003  1.00  0.00    -0.299 C  
HETATM   15  O   UNL     1      -9.138   9.397  64.137  1.00  0.00    -0.206 OA 
HETATM   16  N   UNL     1      -9.270  10.055  66.347  1.00  0.00    -0.152 N  
HETATM   17  H   UNL     1      -9.730  10.675  67.013  1.00  0.00     0.000 HD 
BRANCH  16  18
HETATM   18  C   UNL     1      -8.274   9.084  66.834  1.00  0.00    -0.116 C  
BRANCH  18  19
HETATM   19  C   UNL     1      -8.815   7.705  67.254  1.00  0.00    -0.122 A  
HETATM   20  C   UNL     1      -8.346   6.977  68.399  1.00  0.00    -0.124 A  
HETATM   21  C   UNL     1      -9.059   5.788  68.716  1.00  0.00    -0.118 A  
HETATM   22  C   UNL     1      -9.954   7.216  66.551  1.00  0.00    -0.173 A  
HETATM   23  C   UNL     1     -10.180   5.338  68.015  1.00  0.00    -0.204 A  
HETATM   24  C   UNL     1     -10.628   6.054  66.926  1.00  0.00    -0.384 A  
BRANCH  20  25
HETATM   25  N   UNL     1      -7.264   7.297  69.226  1.00  0.00    -0.079 NA 
HETATM   26  C   UNL     1      -7.424   8.269  70.332  1.00  0.00    -0.067 C  
HETATM   27  C   UNL     1      -6.789   7.697  71.605  1.00  0.00    -0.053 C  
HETATM   28  C   UNL     1      -5.311   7.396  71.383  1.00  0.00    -0.031 C  
HETATM   29  C   UNL     1      -5.137   6.477  70.189  1.00  0.00    -0.014 C  
HETATM   30  C   UNL     1      -5.863   6.981  68.949  1.00  0.00    -0.019 C  
ENDBRANCH  20  25
ENDBRANCH  18  19
BRANCH  18  31
HETATM   31  C   UNL     1      -7.421   9.652  67.986  1.00  0.00    -0.082 C  
HETATM   32  C   UNL     1      -5.529  10.680  66.566  1.00  0.00    -0.070 C  
HETATM   33  C   UNL     1      -6.576  10.900  67.660  1.00  0.00    -0.065 C  
HETATM   34  C   UNL     1      -5.846  11.343  68.932  1.00  0.00    -0.047 C  
ENDBRANCH  18  31
ENDBRANCH  16  18
ENDBRANCH  13  14
ENDBRANCH  11  13
ENDBRANCH   3   4
ENDBRANCH   2   3
TORSDOF 8
ENDMDL
MODEL      296
REMARK 921   NORMALIZED FREE ENERGY PREDICTED BY IDOCK:   -2.23 KCAL/MOL
REMARK 922        TOTAL FREE ENERGY PREDICTED BY IDOCK:   -5.67 KCAL/MOL
REMARK 923 INTER-LIGAND FREE ENERGY PREDICTED BY IDOCK:   -4.74 KCAL/MOL
REMARK 924 INTRA-LIGAND FREE ENERGY PREDICTED BY IDOCK:   -0.92 KCAL/MOL
REMARK 927      BINDING AFFINITY PREDICTED BY RF-SCORE:    0.00 PKD
ROOT
HETATM    1  C   UNL     1      -8.492   4.313  69.017  1.00  0.00    -0.099 C  
HETATM    2  C   UNL     1      -9.487   3.505  69.818  1.00  0.00    -0.171 C  
ENDROOT
BRANCH   2   3
HETATM    3  O   UNL     1      -9.014   3.384  71.176  1.00  0.00    -0.085 OA 
BRANCH   3   4
HETATM    4  C   UNL     1      -8.580   4.559  71.737  1.00  0.00    -0.116 A  
HETATM    5  C   UNL     1      -7.278   4.624  72.257  1.00  0.00    -0.079 A  
HETATM    6  C   UNL     1      -6.856   5.806  72.894  1.00  0.00    -0.075 A  
HETATM    7  C   UNL     1      -6.282   3.502  72.215  1.00  0.00    -0.013 C  
HETATM    8  C   UNL     1      -7.708   6.902  73.010  1.00  0.00    -0.091 A  
HETATM    9  O   UNL     1      -5.189   3.570  72.763  1.00  0.00     0.000 OA 
HETATM   10  O   UNL     1      -6.664   2.424  71.509  1.00  0.00    -0.025 OA 
HETATM   11  C   UNL     1      -8.997   6.851  72.469  1.00  0.00    -0.141 A  
HETATM   12  C   UNL     1      -9.405   5.692  71.802  1.00  0.00    -0.163 A  
BRANCH  11  13
HETATM   13  C   UNL     1      -9.941   8.019  72.594  1.00  0.00    -0.358 C  
BRANCH  13  14
HETATM   14  C   UNL     1     -10.087   8.814  71.311  1.00  0.00    -0.266 C  
HETATM   15  O   UNL     1     -11.202   9.029  70.840  1.00  0.00    -0.257 OA 
HETATM   16  N   UNL     1      -8.908   9.275  70.750  1.00  0.00    -0.234 N  
HETATM   17  H   UNL     1      -8.017   9.011  71.170  1.00  0.00     0.000 HD 
BRANCH  16  18
HETATM   18  C   UNL     1      -8.915  10.141  69.557  1.00  0.00    -0.188 C  
BRANCH  18  19
HETATM   19  C   UNL     1      -9.123   9.437  68.205  1.00  0.00    -0.129 A  
HETATM   20  C   UNL     1      -9.529  10.113  67.004  1.00  0.00    -0.167 A  
HETATM   21  C   UNL     1      -9.532   9.328  65.818  1.00  0.00    -0.329 A  
HETATM   22  C   UNL     1      -8.732   8.069  68.120  1.00  0.00    -0.126 A  
HETATM   23  C   UNL     1      -9.133   7.992  65.763  1.00  0.00    -0.109 A  
HETATM   24  C   UNL     1      -8.733   7.358  66.920  1.00  0.00    -0.126 A  
BRANCH  20  25
HETATM   25  N   UNL     1      -9.930  11.447  66.874  1.00  0.00    -0.203 NA 
HETATM   26  C   UNL     1     -11.182  11.921  67.507  1.00  0.00    -0.296 C  
HETATM   27  C   UNL     1     -10.912  13.241  68.238  1.00  0.00    -0.280 C  
HETATM   28  C   UNL     1     -10.382  14.295  67.273  1.00  0.00    -0.260 C  
HETATM   29  C   UNL     1      -9.155  13.775  66.550  1.00  0.00    -0.149 C  
HETATM   30  C   UNL     1      -9.381  12.408  65.917  1.00  0.00    -0.062 C  
ENDBRANCH  20  25
ENDBRANCH  18  19
BRANCH  18  31
HETATM   31  C   UNL     1      -7.650  11.018  69.467  1.00  0.00    -0.001 C  
HETATM   32  C   UNL     1      -6.040   9.239  68.517  1.00  0.00    -0.045 C  
HETATM   33  C   UNL     1      -6.634  10.642  68.369  1.00  0.00    -0.055 C  
HETATM   34  C   UNL     1      -5.480  11.651  68.403  1.00  0.00    -0.045 C  
ENDBRANCH  18  31
ENDBRANCH  16  18
ENDBRANCH  13  14
ENDBRANCH  11  13
ENDBRANCH   3   4
ENDBRANCH   2   3
TORSDOF 8
ENDMDL
MODEL      297
REMARK 921   NORMALIZED FREE ENERGY PREDICTED BY IDOCK:   -2.23 KCAL/MOL
REMARK 922        TOTAL FREE ENERGY PREDICTED BY IDOCK:   -5.66 KCAL/MOL
REMARK 923 INTER-LIGAND FREE ENERGY PREDICTED BY IDOCK:   -7.05 KCAL/MOL
REMARK 924 INTRA-LIGAND FREE ENERGY PREDICTED BY IDOCK:    1.39 KCAL/MOL
REMARK 927      BINDING AFFINITY PREDICTED BY RF-SCORE:    0.00 PKD
ROOT
HETATM    1  C   UNL     1     -13.224   8.386  71.261  1.00  0.00    -0.157 C  
HETATM    2  C   UNL     1     -13.385   9.801  70.752  1.00  0.00    -0.080 C  
ENDROOT
BRANCH   2   3
HETATM    3  O   UNL     1     -12.093  10.441  70.717  1.00  0.00    -0.304 OA 
BRANCH   3   4
HETATM    4  C   UNL     1     -12.058  11.623  70.019  1.00  0.00    -0.319 A  
HETATM    5  C   UNL     1     -12.621  12.771  70.597  1.00  0.00    -0.248 A  
HETATM    6  C   UNL     1     -12.646  13.966  69.854  1.00  0.00    -0.172 A  
HETATM    7  C   UNL     1     -13.238  12.826  71.964  1.00  0.00    -0.436 C  
HETATM    8  C   UNL     1     -12.121  14.021  68.565  1.00  0.00    -0.329 A  
HETATM    9  O   UNL     1     -13.801  13.826  72.393  1.00  0.00    -0.526 OA 
HETATM   10  O   UNL     1     -13.106  11.708  72.697  1.00  0.00     0.160 OA 
HETATM   11  C   UNL     1     -11.535  12.886  67.996  1.00  0.00    -0.361 A  
HETATM   12  C   UNL     1     -11.473  11.708  68.746  1.00  0.00    -0.346 A  
BRANCH  11  13
HETATM   13  C   UNL     1     -10.973  12.918  66.598  1.00  0.00    -0.302 C  
BRANCH  13  14
HETATM   14  C   UNL     1     -10.038  14.086  66.353  1.00  0.00    -0.294 C  
HETATM   15  O   UNL     1     -10.054  14.676  65.274  1.00  0.00    -0.371 OA 
HETATM   16  N   UNL     1      -9.213  14.431  67.411  1.00  0.00    -0.191 N  
HETATM   17  H   UNL     1      -9.220  13.861  68.256  1.00  0.00     0.000 HD 
BRANCH  16  18
HETATM   18  C   UNL     1      -8.326  15.607  67.340  1.00  0.00    -0.177 C  
BRANCH  18  19
HETATM   19  C   UNL     1      -7.254  15.719  68.438  1.00  0.00    -0.119 A  
HETATM   20  C   UNL     1      -6.349  14.658  68.784  1.00  0.00    -0.087 A  
HETATM   21  C   UNL     1      -5.333  14.988  69.722  1.00  0.00    -0.096 A  
HETATM   22  C   UNL     1      -7.056  17.004  69.020  1.00  0.00    -0.233 A  
HETATM   23  C   UNL     1      -5.156  16.260  70.268  1.00  0.00    -0.165 A  
HETATM   24  C   UNL     1      -6.022  17.273  69.918  1.00  0.00    -0.230 A  
BRANCH  20  25
HETATM   25  N   UNL     1      -6.363  13.340  68.312  1.00  0.00    -0.087 NA 
HETATM   26  C   UNL     1      -7.631  12.578  68.250  1.00  0.00    -0.129 C  
HETATM   27  C   UNL     1      -7.738  11.885  66.887  1.00  0.00    -0.106 C  
HETATM   28  C   UNL     1      -6.554  10.951  66.660  1.00  0.00    -0.120 C  
HETATM   29  C   UNL     1      -5.250  11.710  66.820  1.00  0.00    -0.112 C  
HETATM   30  C   UNL     1      -5.184  12.496  68.123  1.00  0.00    -0.069 C  
ENDBRANCH  20  25
ENDBRANCH  18  19
BRANCH  18  31
HETATM   31  C   UNL     1      -9.116  16.929  67.284  1.00  0.00    -0.225 C  
HETATM   32  C   UNL     1      -7.313  18.383  66.147  1.00  0.00    -0.290 C  
HETATM   33  C   UNL     1      -8.762  17.890  66.130  1.00  0.00    -0.119 C  
HETATM   34  C   UNL     1      -9.681  19.113  66.211  1.00  0.00    -0.412 C  
ENDBRANCH  18  31
ENDBRANCH  16  18
ENDBRANCH  13  14
ENDBRANCH  11  13
ENDBRANCH   3   4
ENDBRANCH   2   3
TORSDOF 8
ENDMDL
MODEL      298
REMARK 921   NORMALIZED FREE ENERGY PREDICTED BY IDOCK:   -2.04 KCAL/MOL
REMARK 922        TOTAL FREE ENERGY PREDICTED BY IDOCK:   -5.39 KCAL/MOL
REMARK 923 INTER-LIGAND FREE ENERGY PREDICTED BY IDOCK:   -4.77 KCAL/MOL
REMARK 924 INTRA-LIGAND FREE ENERGY PREDICTED BY IDOCK:   -0.62 KCAL/MOL
REMARK 927      BINDING AFFINITY PREDICTED BY RF-SCORE:    0.00 PKD
ROOT
HETATM    1  C   UNL     1      -7.233  13.898  68.319  1.00  0.00    -0.112 C  
HETATM    2  C   UNL     1      -8.604  14.025  67.694  1.00  0.00    -0.188 C  
ENDROOT
BRANCH   2   3
HETATM    3  O   UNL     1      -9.577  14.262  68.732  1.00  0.00    -0.210 OA 
BRANCH   3   4
HETATM    4  C   UNL     1     -10.335  13.167  69.065  1.00  0.00     0.050 A  
HETATM    5  C   UNL     1     -11.517  13.356  69.800  1.00  0.00    -0.236 A  
HETATM    6  C   UNL     1     -12.258  12.229  70.200  1.00  0.00    -0.302 A  
HETATM    7  C   UNL     1     -12.054  14.690  70.228  1.00  0.00    -0.319 C  
HETATM    8  C   UNL     1     -11.838  10.941  69.876  1.00  0.00    -0.427 A  
HETATM    9  O   UNL     1     -13.038  14.804  70.947  1.00  0.00    -0.353 OA 
HETATM   10  O   UNL     1     -11.393  15.756  69.744  1.00  0.00    -0.287 OA 
HETATM   11  C   UNL     1     -10.676  10.750  69.121  1.00  0.00    -0.265 A  
HETATM   12  C   UNL     1      -9.958  11.868  68.688  1.00  0.00    -0.163 A  
BRANCH  11  13
HETATM   13  C   UNL     1     -10.194   9.365  68.770  1.00  0.00    -0.221 C  
BRANCH  13  14
HETATM   14  C   UNL     1     -10.274   8.391  69.929  1.00  0.00    -0.201 C  
HETATM   15  O   UNL     1     -11.333   7.821  70.186  1.00  0.00    -0.225 OA 
HETATM   16  N   UNL     1      -9.098   8.189  70.632  1.00  0.00    -0.147 N  
HETATM   17  H   UNL     1      -8.273   8.739  70.392  1.00  0.00     0.000 HD 
BRANCH  16  18
HETATM   18  C   UNL     1      -9.014   7.196  71.718  1.00  0.00    -0.128 C  
BRANCH  18  19
HETATM   19  C   UNL     1      -7.600   6.852  72.218  1.00  0.00    -0.092 A  
HETATM   20  C   UNL     1      -6.415   7.557  71.816  1.00  0.00    -0.042 A  
HETATM   21  C   UNL     1      -5.215   7.194  72.489  1.00  0.00    -0.037 A  
HETATM   22  C   UNL     1      -7.500   5.884  73.259  1.00  0.00    -0.094 A  
HETATM   23  C   UNL     1      -5.149   6.249  73.513  1.00  0.00    -0.032 A  
HETATM   24  C   UNL     1      -6.296   5.589  73.900  1.00  0.00    -0.064 A  
BRANCH  20  25
HETATM   25  N   UNL     1      -6.307   8.548  70.834  1.00  0.00    -0.038 NA 
HETATM   26  C   UNL     1      -6.575   9.966  71.163  1.00  0.00     0.138 C  
HETATM   27  C   UNL     1      -5.459  10.841  70.583  1.00  0.00    -0.105 C  
HETATM   28  C   UNL     1      -5.362  10.664  69.072  1.00  0.00    -0.041 C  
HETATM   29  C   UNL     1      -5.184   9.197  68.726  1.00  0.00    -0.034 C  
HETATM   30  C   UNL     1      -6.224   8.306  69.393  1.00  0.00    -0.037 C  
ENDBRANCH  20  25
ENDBRANCH  18  19
BRANCH  18  31
HETATM   31  C   UNL     1      -9.747   5.886  71.367  1.00  0.00    -0.196 C  
HETATM   32  C   UNL     1      -8.525   5.366  69.155  1.00  0.00    -0.103 C  
HETATM   33  C   UNL     1      -8.952   4.860  70.534  1.00  0.00    -0.159 C  
HETATM   34  C   UNL     1      -9.821   3.613  70.334  1.00  0.00    -0.096 C  
ENDBRANCH  18  31
ENDBRANCH  16  18
ENDBRANCH  13  14
ENDBRANCH  11  13
ENDBRANCH   3   4
ENDBRANCH   2   3
TORSDOF 8
ENDMDL
MODEL      299
REMARK 921   NORMALIZED FREE ENERGY PREDICTED BY IDOCK:   -1.96 KCAL/MOL
REMARK 922        TOTAL FREE ENERGY PREDICTED BY IDOCK:   -5.28 KCAL/MOL
REMARK 923 INTER-LIGAND FREE ENERGY PREDICTED BY IDOCK:   -6.11 KCAL/MOL
REMARK 924 INTRA-LIGAND FREE ENERGY PREDICTED BY IDOCK:    0.83 KCAL/MOL
REMARK 927      BINDING AFFINITY PREDICTED BY RF-SCORE:    0.00 PKD
ROOT
HETATM    1  C   UNL     1      -8.603   8.796  67.154  1.00  0.00    -0.119 C  
HETATM    2  C   UNL     1      -8.103  10.179  66.803  1.00  0.00    -0.119 C  
ENDROOT
BRANCH   2   3
HETATM    3  O   UNL     1      -6.685  10.250  67.063  1.00  0.00    -0.075 OA 
BRANCH   3   4
HETATM    4  C   UNL     1      -6.344  10.967  68.182  1.00  0.00    -0.057 A  
HETATM    5  C   UNL     1      -5.850  10.283  69.304  1.00  0.00    -0.037 A  
HETATM    6  C   UNL     1      -5.564  11.010  70.475  1.00  0.00    -0.125 A  
HETATM    7  C   UNL     1      -5.623   8.801  69.371  1.00  0.00    -0.035 C  
HETATM    8  C   UNL     1      -5.761  12.388  70.530  1.00  0.00    -0.162 A  
HETATM    9  O   UNL     1      -5.279   8.233  70.400  1.00  0.00    -0.023 OA 
HETATM   10  O   UNL     1      -5.796   8.142  68.213  1.00  0.00    -0.035 OA 
HETATM   11  C   UNL     1      -6.227  13.077  69.406  1.00  0.00    -0.113 A  
HETATM   12  C   UNL     1      -6.475  12.364  68.229  1.00  0.00    -0.061 A  
BRANCH  11  13
HETATM   13  C   UNL     1      -6.461  14.566  69.446  1.00  0.00    -0.132 C  
BRANCH  13  14
HETATM   14  C   UNL     1      -7.817  14.974  68.904  1.00  0.00    -0.162 C  
HETATM   15  O   UNL     1      -7.928  15.989  68.217  1.00  0.00    -0.139 OA 
HETATM   16  N   UNL     1      -8.871  14.133  69.216  1.00  0.00    -0.339 N  
HETATM   17  H   UNL     1      -8.710  13.339  69.835  1.00  0.00     0.000 HD 
BRANCH  16  18
HETATM   18  C   UNL     1     -10.222  14.362  68.672  1.00  0.00    -0.245 C  
BRANCH  18  19
HETATM   19  C   UNL     1     -10.339  15.423  67.563  1.00  0.00    -0.264 A  
HETATM   20  C   UNL     1     -10.709  15.126  66.207  1.00  0.00    -0.320 A  
HETATM   21  C   UNL     1     -10.906  16.248  65.355  1.00  0.00    -0.284 A  
HETATM   22  C   UNL     1     -10.229  16.787  67.959  1.00  0.00    -0.300 A  
HETATM   23  C   UNL     1     -10.802  17.575  65.775  1.00  0.00     0.012 A  
HETATM   24  C   UNL     1     -10.460  17.847  67.082  1.00  0.00    -0.359 A  
BRANCH  20  25
HETATM   25  N   UNL     1     -10.884  13.863  65.630  1.00  0.00    -0.287 NA 
HETATM   26  C   UNL     1     -11.970  12.970  66.092  1.00  0.00    -0.427 C  
HETATM   27  C   UNL     1     -12.704  12.394  64.876  1.00  0.00    -0.256 C  
HETATM   28  C   UNL     1     -11.742  11.626  63.977  1.00  0.00    -0.339 C  
HETATM   29  C   UNL     1     -10.576  12.512  63.580  1.00  0.00    -0.446 C  
HETATM   30  C   UNL     1      -9.912  13.180  64.777  1.00  0.00    -0.125 C  
ENDBRANCH  20  25
ENDBRANCH  18  19
BRANCH  18  31
HETATM   31  C   UNL     1     -11.248  14.686  69.776  1.00  0.00    -0.296 C  
HETATM   32  C   UNL     1     -12.432  12.395  69.857  1.00  0.00     0.019 C  
HETATM   33  C   UNL     1     -11.719  13.499  70.641  1.00  0.00    -0.054 C  
HETATM   34  C   UNL     1     -12.687  14.024  71.707  1.00  0.00    -0.406 C  
ENDBRANCH  18  31
ENDBRANCH  16  18
ENDBRANCH  13  14
ENDBRANCH  11  13
ENDBRANCH   3   4
ENDBRANCH   2   3
TORSDOF 8
ENDMDL
MODEL      300
REMARK 921   NORMALIZED FREE ENERGY PREDICTED BY IDOCK:   -1.94 KCAL/MOL
REMARK 922        TOTAL FREE ENERGY PREDICTED BY IDOCK:   -5.25 KCAL/MOL
REMARK 923 INTER-LIGAND FREE ENERGY PREDICTED BY IDOCK:   -4.67 KCAL/MOL
REMARK 924 INTRA-LIGAND FREE ENERGY PREDICTED BY IDOCK:   -0.58 KCAL/MOL
REMARK 927      BINDING AFFINITY PREDICTED BY RF-SCORE:    0.00 PKD
ROOT
HETATM    1  C   UNL     1     -12.589  16.154  71.993  1.00  0.00    -0.353 C  
HETATM    2  C   UNL     1     -11.544  15.895  70.931  1.00  0.00    -0.421 C  
ENDROOT
BRANCH   2   3
HETATM    3  O   UNL     1     -11.346  17.098  70.160  1.00  0.00     0.447 OA 
BRANCH   3   4
HETATM    4  C   UNL     1     -10.525  16.950  69.070  1.00  0.00    -0.341 A  
HETATM    5  C   UNL     1      -9.774  18.051  68.630  1.00  0.00    -0.356 A  
HETATM    6  C   UNL     1      -8.984  17.919  67.472  1.00  0.00    -0.248 A  
HETATM    7  C   UNL     1      -9.764  19.399  69.290  1.00  0.00    -0.263 C  
HETATM    8  C   UNL     1      -8.938  16.719  66.768  1.00  0.00    -0.265 A  
HETATM    9  O   UNL     1      -9.167  20.359  68.819  1.00  0.00     0.209 OA 
HETATM   10  O   UNL     1     -10.436  19.473  70.451  1.00  0.00     0.685 OA 
HETATM   11  C   UNL     1      -9.663  15.611  67.219  1.00  0.00    -0.219 A  
HETATM   12  C   UNL     1     -10.418  15.727  68.390  1.00  0.00    -0.245 A  
BRANCH  11  13
HETATM   13  C   UNL     1      -9.640  14.306  66.466  1.00  0.00    -0.313 C  
BRANCH  13  14
HETATM   14  C   UNL     1      -8.899  13.204  67.198  1.00  0.00    -0.222 C  
HETATM   15  O   UNL     1      -8.876  13.184  68.427  1.00  0.00    -0.175 OA 
HETATM   16  N   UNL     1      -8.292  12.249  66.398  1.00  0.00    -0.398 N  
HETATM   17  H   UNL     1      -8.309  12.363  65.385  1.00  0.00     0.000 HD 
BRANCH  16  18
HETATM   18  C   UNL     1      -7.623  11.073  66.982  1.00  0.00    -0.127 C  
BRANCH  18  19
HETATM   19  C   UNL     1      -7.171   9.985  65.992  1.00  0.00    -0.112 A  
HETATM   20  C   UNL     1      -7.878   9.657  64.786  1.00  0.00    -0.128 A  
HETATM   21  C   UNL     1      -7.239   8.726  63.921  1.00  0.00    -0.096 A  
HETATM   22  C   UNL     1      -5.893   9.395  66.217  1.00  0.00    -0.058 A  
HETATM   23  C   UNL     1      -5.981   8.172  64.163  1.00  0.00    -0.065 A  
HETATM   24  C   UNL     1      -5.305   8.506  65.317  1.00  0.00    -0.035 A  
BRANCH  20  25
HETATM   25  N   UNL     1      -9.127  10.138  64.375  1.00  0.00    -0.223 NA 
HETATM   26  C   UNL     1     -10.328   9.925  65.213  1.00  0.00     0.140 C  
HETATM   27  C   UNL     1     -11.106  11.241  65.327  1.00  0.00    -0.146 C  
HETATM   28  C   UNL     1     -11.514  11.749  63.949  1.00  0.00    -0.481 C  
HETATM   29  C   UNL     1     -10.294  11.875  63.055  1.00  0.00    -0.175 C  
HETATM   30  C   UNL     1      -9.452  10.607  63.028  1.00  0.00    -0.338 C  
ENDBRANCH  20  25
ENDBRANCH  18  19
BRANCH  18  31
HETATM   31  C   UNL     1      -8.467  10.413  68.090  1.00  0.00    -0.121 C  
HETATM   32  C   UNL     1      -6.541   9.770  69.682  1.00  0.00    -0.052 C  
HETATM   33  C   UNL     1      -7.889  10.475  69.519  1.00  0.00    -0.134 C  
HETATM   34  C   UNL     1      -8.887   9.818  70.479  1.00  0.00    -0.039 C  
ENDBRANCH  18  31
ENDBRANCH  16  18
ENDBRANCH  13  14
ENDBRANCH  11  13
ENDBRANCH   3   4
ENDBRANCH   2   3
TORSDOF 8
ENDMDL
MODEL      301
REMARK 921   NORMALIZED FREE ENERGY PREDICTED BY IDOCK:   -1.93 KCAL/MOL
REMARK 922        TOTAL FREE ENERGY PREDICTED BY IDOCK:   -5.23 KCAL/MOL
REMARK 923 INTER-LIGAND FREE ENERGY PREDICTED BY IDOCK:   -4.18 KCAL/MOL
REMARK 924 INTRA-LIGAND FREE ENERGY PREDICTED BY IDOCK:   -1.05 KCAL/MOL
REMARK 927      BINDING AFFINITY PREDICTED BY RF-SCORE:    0.00 PKD
ROOT
HETATM    1  C   UNL     1     -10.727  14.636  68.807  1.00  0.00    -0.252 C  
HETATM    2  C   UNL     1     -11.953  13.762  68.673  1.00  0.00    -0.366 C  
ENDROOT
BRANCH   2   3
HETATM    3  O   UNL     1     -12.512  13.930  67.354  1.00  0.00    -0.215 OA 
BRANCH   3   4
HETATM    4  C   UNL     1     -11.757  13.395  66.341  1.00  0.00    -0.368 A  
HETATM    5  C   UNL     1     -11.242  14.249  65.353  1.00  0.00    -0.329 A  
HETATM    6  C   UNL     1     -10.525  13.693  64.277  1.00  0.00    -0.180 A  
HETATM    7  C   UNL     1     -11.419  15.739  65.333  1.00  0.00     0.086 C  
HETATM    8  C   UNL     1     -10.321  12.318  64.185  1.00  0.00    -0.396 A  
HETATM    9  O   UNL     1     -11.032  16.436  64.403  1.00  0.00    -0.798 OA 
HETATM   10  O   UNL     1     -12.009  16.261  66.421  1.00  0.00     1.110 OA 
HETATM   11  C   UNL     1     -10.809  11.467  65.181  1.00  0.00    -0.302 A  
HETATM   12  C   UNL     1     -11.488  12.019  66.271  1.00  0.00    -0.408 A  
BRANCH  11  13
HETATM   13  C   UNL     1     -10.613   9.975  65.095  1.00  0.00     0.421 C  
BRANCH  13  14
HETATM   14  C   UNL     1      -9.199   9.535  65.421  1.00  0.00    -0.247 C  
HETATM   15  O   UNL     1      -8.368   9.409  64.522  1.00  0.00    -0.143 OA 
HETATM   16  N   UNL     1      -8.927   9.318  66.761  1.00  0.00    -0.129 N  
HETATM   17  H   UNL     1      -9.683   9.393  67.442  1.00  0.00     0.000 HD 
BRANCH  16  18
HETATM   18  C   UNL     1      -7.568   8.983  67.223  1.00  0.00    -0.088 C  
BRANCH  18  19
HETATM   19  C   UNL     1      -7.213   7.486  67.264  1.00  0.00    -0.086 A  
HETATM   20  C   UNL     1      -7.928   6.515  68.043  1.00  0.00    -0.109 A  
HETATM   21  C   UNL     1      -7.549   5.158  67.847  1.00  0.00    -0.084 A  
HETATM   22  C   UNL     1      -6.222   7.032  66.346  1.00  0.00    -0.039 A  
HETATM   23  C   UNL     1      -6.581   4.741  66.933  1.00  0.00    -0.050 A  
HETATM   24  C   UNL     1      -5.912   5.682  66.180  1.00  0.00    -0.022 A  
BRANCH  20  25
HETATM   25  N   UNL     1      -8.940   6.754  68.979  1.00  0.00    -0.132 NA 
HETATM   26  C   UNL     1      -8.762   6.363  70.396  1.00  0.00    -0.147 C  
HETATM   27  C   UNL     1      -9.191   7.524  71.300  1.00  0.00    -0.155 C  
HETATM   28  C   UNL     1     -10.645   7.904  71.040  1.00  0.00    -0.232 C  
HETATM   29  C   UNL     1     -10.852   8.210  69.569  1.00  0.00    -0.128 C  
HETATM   30  C   UNL     1     -10.322   7.110  68.659  1.00  0.00    -0.187 C  
ENDBRANCH  20  25
ENDBRANCH  18  19
BRANCH  18  31
HETATM   31  C   UNL     1      -7.252   9.603  68.598  1.00  0.00    -0.073 C  
HETATM   32  C   UNL     1      -5.143   8.221  69.144  1.00  0.00    -0.027 C  
HETATM   33  C   UNL     1      -5.768   9.612  69.019  1.00  0.00    -0.035 C  
HETATM   34  C   UNL     1      -5.648  10.310  70.378  1.00  0.00    -0.068 C  
ENDBRANCH  18  31
ENDBRANCH  16  18
ENDBRANCH  13  14
ENDBRANCH  11  13
ENDBRANCH   3   4
ENDBRANCH   2   3
TORSDOF 8
ENDMDL
MODEL      302
REMARK 921   NORMALIZED FREE ENERGY PREDICTED BY IDOCK:   -1.83 KCAL/MOL
REMARK 922        TOTAL FREE ENERGY PREDICTED BY IDOCK:   -5.08 KCAL/MOL
REMARK 923 INTER-LIGAND FREE ENERGY PREDICTED BY IDOCK:   -4.40 KCAL/MOL
REMARK 924 INTRA-LIGAND FREE ENERGY PREDICTED BY IDOCK:   -0.68 KCAL/MOL
REMARK 927      BINDING AFFINITY PREDICTED BY RF-SCORE:    0.00 PKD
ROOT
HETATM    1  C   UNL     1      -5.866   8.339  67.538  1.00  0.00    -0.043 C  
HETATM    2  C   UNL     1      -5.648   9.781  67.937  1.00  0.00    -0.040 C  
ENDROOT
BRANCH   2   3
HETATM    3  O   UNL     1      -6.332  10.639  67.001  1.00  0.00    -0.065 OA 
BRANCH   3   4
HETATM    4  C   UNL     1      -7.581  10.204  66.633  1.00  0.00    -0.107 A  
HETATM    5  C   UNL     1      -7.844   9.959  65.276  1.00  0.00    -0.131 A  
HETATM    6  C   UNL     1      -9.143   9.579  64.891  1.00  0.00    -0.276 A  
HETATM    7  C   UNL     1      -6.837  10.099  64.172  1.00  0.00    -0.102 C  
HETATM    8  C   UNL     1     -10.159   9.442  65.833  1.00  0.00    -0.243 A  
HETATM    9  O   UNL     1      -7.133   9.965  62.991  1.00  0.00    -0.115 OA 
HETATM   10  O   UNL     1      -5.580  10.355  64.571  1.00  0.00    -0.119 OA 
HETATM   11  C   UNL     1      -9.896   9.659  67.189  1.00  0.00    -0.238 A  
HETATM   12  C   UNL     1      -8.597   9.998  67.580  1.00  0.00    -0.122 A  
BRANCH  11  13
HETATM   13  C   UNL     1     -10.983   9.531  68.224  1.00  0.00    -0.131 C  
BRANCH  13  14
HETATM   14  C   UNL     1     -10.465   9.582  69.649  1.00  0.00    -0.223 C  
HETATM   15  O   UNL     1     -10.556  10.619  70.303  1.00  0.00    -0.147 OA 
HETATM   16  N   UNL     1      -9.923   8.405  70.137  1.00  0.00    -0.185 N  
HETATM   17  H   UNL     1      -9.834   7.600  69.516  1.00  0.00     0.000 HD 
BRANCH  16  18
HETATM   18  C   UNL     1      -9.472   8.290  71.535  1.00  0.00    -0.186 C  
BRANCH  18  19
HETATM   19  C   UNL     1      -8.011   7.856  71.747  1.00  0.00    -0.118 A  
HETATM   20  C   UNL     1      -7.387   6.774  71.038  1.00  0.00    -0.078 A  
HETATM   21  C   UNL     1      -5.991   6.607  71.257  1.00  0.00    -0.036 A  
HETATM   22  C   UNL     1      -7.202   8.687  72.575  1.00  0.00    -0.009 A  
HETATM   23  C   UNL     1      -5.222   7.445  72.067  1.00  0.00    -0.036 A  
HETATM   24  C   UNL     1      -5.830   8.488  72.731  1.00  0.00    -0.073 A  
BRANCH  20  25
HETATM   25  N   UNL     1      -7.998   5.862  70.170  1.00  0.00    -0.100 NA 
HETATM   26  C   UNL     1      -8.412   6.279  68.811  1.00  0.00    -0.119 C  
HETATM   27  C   UNL     1      -7.950   5.229  67.795  1.00  0.00    -0.099 C  
HETATM   28  C   UNL     1      -8.537   3.861  68.125  1.00  0.00    -0.113 C  
HETATM   29  C   UNL     1      -8.195   3.474  69.551  1.00  0.00    -0.070 C  
HETATM   30  C   UNL     1      -8.547   4.563  70.556  1.00  0.00    -0.085 C  
ENDBRANCH  20  25
ENDBRANCH  18  19
BRANCH  18  31
HETATM   31  C   UNL     1     -10.386   7.370  72.368  1.00  0.00    -0.263 C  
HETATM   32  C   UNL     1     -12.124   6.831  70.539  1.00  0.00    -0.332 C  
HETATM   33  C   UNL     1     -11.155   6.283  71.590  1.00  0.00    -0.325 C  
HETATM   34  C   UNL     1     -11.961   5.444  72.587  1.00  0.00    -0.070 C  
ENDBRANCH  18  31
ENDBRANCH  16  18
ENDBRANCH  13  14
ENDBRANCH  11  13
ENDBRANCH   3   4
ENDBRANCH   2   3
TORSDOF 8
ENDMDL
MODEL      303
REMARK 921   NORMALIZED FREE ENERGY PREDICTED BY IDOCK:   -1.82 KCAL/MOL
REMARK 922        TOTAL FREE ENERGY PREDICTED BY IDOCK:   -5.06 KCAL/MOL
REMARK 923 INTER-LIGAND FREE ENERGY PREDICTED BY IDOCK:   -4.70 KCAL/MOL
REMARK 924 INTRA-LIGAND FREE ENERGY PREDICTED BY IDOCK:   -0.36 KCAL/MOL
REMARK 927      BINDING AFFINITY PREDICTED BY RF-SCORE:    0.00 PKD
ROOT
HETATM    1  C   UNL     1     -12.549  10.855  71.714  1.00  0.00    -0.345 C  
HETATM    2  C   UNL     1     -13.121  11.165  70.349  1.00  0.00     0.158 C  
ENDROOT
BRANCH   2   3
HETATM    3  O   UNL     1     -12.501  10.305  69.371  1.00  0.00    -0.017 OA 
BRANCH   3   4
HETATM    4  C   UNL     1     -11.148  10.138  69.531  1.00  0.00    -0.250 A  
HETATM    5  C   UNL     1     -10.287  10.524  68.492  1.00  0.00    -0.199 A  
HETATM    6  C   UNL     1      -8.906  10.290  68.628  1.00  0.00    -0.137 A  
HETATM    7  C   UNL     1     -10.729  11.154  67.204  1.00  0.00    -0.259 C  
HETATM    8  C   UNL     1      -8.389   9.688  69.774  1.00  0.00    -0.183 A  
HETATM    9  O   UNL     1      -9.954  11.390  66.286  1.00  0.00    -0.211 OA 
HETATM   10  O   UNL     1     -12.034  11.469  67.139  1.00  0.00    -0.581 OA 
HETATM   11  C   UNL     1      -9.241   9.327  70.823  1.00  0.00    -0.316 A  
HETATM   12  C   UNL     1     -10.608   9.593  70.707  1.00  0.00    -0.392 A  
BRANCH  11  13
HETATM   13  C   UNL     1      -8.707   8.662  72.066  1.00  0.00    -0.235 C  
BRANCH  13  14
HETATM   14  C   UNL     1      -7.695   7.570  71.774  1.00  0.00    -0.085 C  
HETATM   15  O   UNL     1      -6.496   7.836  71.718  1.00  0.00    -0.041 OA 
HETATM   16  N   UNL     1      -8.213   6.297  71.605  1.00  0.00    -0.117 N  
HETATM   17  H   UNL     1      -9.224   6.163  71.614  1.00  0.00     0.000 HD 
BRANCH  16  18
HETATM   18  C   UNL     1      -7.332   5.130  71.414  1.00  0.00    -0.085 C  
BRANCH  18  19
HETATM   19  C   UNL     1      -7.004   4.756  69.957  1.00  0.00    -0.049 A  
HETATM   20  C   UNL     1      -7.940   4.865  68.873  1.00  0.00    -0.076 A  
HETATM   21  C   UNL     1      -7.420   4.612  67.574  1.00  0.00    -0.078 A  
HETATM   22  C   UNL     1      -5.646   4.443  69.660  1.00  0.00    -0.016 A  
HETATM   23  C   UNL     1      -6.082   4.317  67.311  1.00  0.00    -0.028 A  
HETATM   24  C   UNL     1      -5.190   4.229  68.359  1.00  0.00    -0.007 A  
BRANCH  20  25
HETATM   25  N   UNL     1      -9.302   5.177  68.953  1.00  0.00    -0.118 NA 
HETATM   26  C   UNL     1     -10.156   4.558  69.992  1.00  0.00    -0.134 C  
HETATM   27  C   UNL     1     -11.011   5.642  70.657  1.00  0.00    -0.258 C  
HETATM   28  C   UNL     1     -11.878   6.356  69.625  1.00  0.00     0.013 C  
HETATM   29  C   UNL     1     -11.013   6.908  68.507  1.00  0.00    -0.198 C  
HETATM   30  C   UNL     1     -10.076   5.862  67.918  1.00  0.00    -0.162 C  
ENDBRANCH  20  25
ENDBRANCH  18  19
BRANCH  18  31
HETATM   31  C   UNL     1      -7.861   3.877  72.139  1.00  0.00    -0.072 C  
HETATM   32  C   UNL     1      -6.813   4.325  74.453  1.00  0.00    -0.064 C  
HETATM   33  C   UNL     1      -8.082   4.008  73.659  1.00  0.00    -0.089 C  
HETATM   34  C   UNL     1      -8.654   2.688  74.187  1.00  0.00    -0.071 C  
ENDBRANCH  18  31
ENDBRANCH  16  18
ENDBRANCH  13  14
ENDBRANCH  11  13
ENDBRANCH   3   4
ENDBRANCH   2   3
TORSDOF 8
ENDMDL
MODEL      304
REMARK 921   NORMALIZED FREE ENERGY PREDICTED BY IDOCK:   -1.82 KCAL/MOL
REMARK 922        TOTAL FREE ENERGY PREDICTED BY IDOCK:   -5.06 KCAL/MOL
REMARK 923 INTER-LIGAND FREE ENERGY PREDICTED BY IDOCK:   -4.85 KCAL/MOL
REMARK 924 INTRA-LIGAND FREE ENERGY PREDICTED BY IDOCK:   -0.21 KCAL/MOL
REMARK 927      BINDING AFFINITY PREDICTED BY RF-SCORE:    0.00 PKD
ROOT
HETATM    1  C   UNL     1     -11.147   9.435  70.848  1.00  0.00    -0.389 C  
HETATM    2  C   UNL     1     -10.391   8.130  70.747  1.00  0.00    -0.196 C  
ENDROOT
BRANCH   2   3
HETATM    3  O   UNL     1     -10.522   7.610  69.407  1.00  0.00    -0.215 OA 
BRANCH   3   4
HETATM    4  C   UNL     1      -9.858   8.332  68.447  1.00  0.00    -0.172 A  
HETATM    5  C   UNL     1      -8.458   8.256  68.386  1.00  0.00    -0.129 A  
HETATM    6  C   UNL     1      -7.772   9.048  67.446  1.00  0.00    -0.092 A  
HETATM    7  C   UNL     1      -7.608   7.402  69.280  1.00  0.00    -0.101 C  
HETATM    8  C   UNL     1      -8.462   9.894  66.581  1.00  0.00    -0.126 A  
HETATM    9  O   UNL     1      -6.384   7.436  69.255  1.00  0.00    -0.034 OA 
HETATM   10  O   UNL     1      -8.284   6.574  70.094  1.00  0.00    -0.125 OA 
HETATM   11  C   UNL     1      -9.859   9.953  66.620  1.00  0.00    -0.265 A  
HETATM   12  C   UNL     1     -10.545   9.139  67.526  1.00  0.00    -0.317 A  
BRANCH  11  13
HETATM   13  C   UNL     1     -10.625  10.872  65.705  1.00  0.00    -0.233 C  
BRANCH  13  14
HETATM   14  C   UNL     1     -11.390  11.953  66.444  1.00  0.00    -0.339 C  
HETATM   15  O   UNL     1     -12.572  12.166  66.178  1.00  0.00    -0.094 OA 
HETATM   16  N   UNL     1     -10.681  12.638  67.416  1.00  0.00    -0.227 N  
HETATM   17  H   UNL     1      -9.688  12.441  67.542  1.00  0.00     0.000 HD 
BRANCH  16  18
HETATM   18  C   UNL     1     -11.332  13.645  68.274  1.00  0.00    -0.289 C  
BRANCH  18  19
HETATM   19  C   UNL     1     -10.673  15.035  68.312  1.00  0.00    -0.253 A  
HETATM   20  C   UNL     1      -9.256  15.252  68.225  1.00  0.00    -0.189 A  
HETATM   21  C   UNL     1      -8.837  16.608  68.132  1.00  0.00    -0.206 A  
HETATM   22  C   UNL     1     -11.541  16.164  68.267  1.00  0.00    -0.181 A  
HETATM   23  C   UNL     1      -9.712  17.694  68.080  1.00  0.00    -0.301 A  
HETATM   24  C   UNL     1     -11.071  17.472  68.150  1.00  0.00     0.024 A  
BRANCH  20  25
HETATM   25  N   UNL     1      -8.246  14.284  68.234  1.00  0.00    -0.141 NA 
HETATM   26  C   UNL     1      -7.310  14.163  67.093  1.00  0.00     0.167 C  
HETATM   27  C   UNL     1      -5.876  14.056  67.623  1.00  0.00    -0.022 C  
HETATM   28  C   UNL     1      -5.729  12.855  68.549  1.00  0.00    -0.067 C  
HETATM   29  C   UNL     1      -6.753  12.926  69.666  1.00  0.00     0.091 C  
HETATM   30  C   UNL     1      -8.169  13.148  69.152  1.00  0.00     0.529 C  
ENDBRANCH  20  25
ENDBRANCH  18  19
BRANCH  18  31
HETATM   31  C   UNL     1     -11.517  13.146  69.720  1.00  0.00    -0.216 C  
HETATM   32  C   UNL     1     -13.025  15.057  70.575  1.00  0.00    -0.344 C  
HETATM   33  C   UNL     1     -12.832  13.547  70.419  1.00  0.00    -0.064 C  
HETATM   34  C   UNL     1     -12.855  12.919  71.817  1.00  0.00    -0.339 C  
ENDBRANCH  18  31
ENDBRANCH  16  18
ENDBRANCH  13  14
ENDBRANCH  11  13
ENDBRANCH   3   4
ENDBRANCH   2   3
TORSDOF 8
ENDMDL
MODEL      305
REMARK 921   NORMALIZED FREE ENERGY PREDICTED BY IDOCK:   -1.70 KCAL/MOL
REMARK 922        TOTAL FREE ENERGY PREDICTED BY IDOCK:   -4.90 KCAL/MOL
REMARK 923 INTER-LIGAND FREE ENERGY PREDICTED BY IDOCK:   -5.37 KCAL/MOL
REMARK 924 INTRA-LIGAND FREE ENERGY PREDICTED BY IDOCK:    0.47 KCAL/MOL
REMARK 927      BINDING AFFINITY PREDICTED BY RF-SCORE:    0.00 PKD
ROOT
HETATM    1  C   UNL     1     -10.218  15.040  67.515  1.00  0.00    -0.234 C  
HETATM    2  C   UNL     1     -10.086  15.001  69.020  1.00  0.00    -0.241 C  
ENDROOT
BRANCH   2   3
HETATM    3  O   UNL     1      -9.177  16.038  69.442  1.00  0.00    -0.251 OA 
BRANCH   3   4
HETATM    4  C   UNL     1      -7.852  15.771  69.202  1.00  0.00    -0.227 A  
HETATM    5  C   UNL     1      -7.091  16.700  68.476  1.00  0.00    -0.172 A  
HETATM    6  C   UNL     1      -5.751  16.394  68.172  1.00  0.00    -0.113 A  
HETATM    7  C   UNL     1      -7.606  18.012  67.961  1.00  0.00    -0.244 C  
HETATM    8  C   UNL     1      -5.178  15.193  68.582  1.00  0.00    -0.093 A  
HETATM    9  O   UNL     1      -6.934  18.751  67.252  1.00  0.00    -0.203 OA 
HETATM   10  O   UNL     1      -8.850  18.333  68.355  1.00  0.00    -0.293 OA 
HETATM   11  C   UNL     1      -5.924  14.277  69.329  1.00  0.00    -0.095 A  
HETATM   12  C   UNL     1      -7.243  14.594  69.666  1.00  0.00    -0.098 A  
BRANCH  11  13
HETATM   13  C   UNL     1      -5.330  12.964  69.771  1.00  0.00    -0.087 C  
BRANCH  13  14
HETATM   14  C   UNL     1      -6.053  11.757  69.206  1.00  0.00    -0.084 C  
HETATM   15  O   UNL     1      -5.685  11.257  68.144  1.00  0.00    -0.046 OA 
HETATM   16  N   UNL     1      -7.105  11.273  69.965  1.00  0.00    -0.304 N  
HETATM   17  H   UNL     1      -7.385  11.774  70.808  1.00  0.00     0.000 HD 
BRANCH  16  18
HETATM   18  C   UNL     1      -7.829  10.048  69.579  1.00  0.00    -0.154 C  
BRANCH  18  19
HETATM   19  C   UNL     1      -7.052   9.042  68.712  1.00  0.00    -0.070 A  
HETATM   20  C   UNL     1      -7.175   8.952  67.284  1.00  0.00    -0.083 A  
HETATM   21  C   UNL     1      -6.275   8.062  66.635  1.00  0.00    -0.054 A  
HETATM   22  C   UNL     1      -6.039   8.277  69.360  1.00  0.00    -0.037 A  
HETATM   23  C   UNL     1      -5.285   7.333  67.296  1.00  0.00    -0.021 A  
HETATM   24  C   UNL     1      -5.167   7.438  68.665  1.00  0.00    -0.021 A  
BRANCH  20  25
HETATM   25  N   UNL     1      -8.086   9.629  66.465  1.00  0.00    -0.118 NA 
HETATM   26  C   UNL     1      -9.175   8.893  65.783  1.00  0.00    -0.221 C  
HETATM   27  C   UNL     1     -10.494   9.648  65.974  1.00  0.00    -0.047 C  
HETATM   28  C   UNL     1     -10.392  11.065  65.418  1.00  0.00    -0.330 C  
HETATM   29  C   UNL     1      -9.216  11.790  66.045  1.00  0.00    -0.202 C  
HETATM   30  C   UNL     1      -7.922  10.992  65.961  1.00  0.00    -0.094 C  
ENDBRANCH  20  25
ENDBRANCH  18  19
BRANCH  18  31
HETATM   31  C   UNL     1      -9.173  10.359  68.890  1.00  0.00    -0.179 C  
HETATM   32  C   UNL     1     -10.739   9.353  70.676  1.00  0.00    -0.353 C  
HETATM   33  C   UNL     1     -10.385  10.571  69.819  1.00  0.00    -0.211 C  
HETATM   34  C   UNL     1     -11.606  10.918  68.960  1.00  0.00    -0.387 C  
ENDBRANCH  18  31
ENDBRANCH  16  18
ENDBRANCH  13  14
ENDBRANCH  11  13
ENDBRANCH   3   4
ENDBRANCH   2   3
TORSDOF 8
ENDMDL
MODEL      306
REMARK 921   NORMALIZED FREE ENERGY PREDICTED BY IDOCK:   -1.60 KCAL/MOL
REMARK 922        TOTAL FREE ENERGY PREDICTED BY IDOCK:   -4.74 KCAL/MOL
REMARK 923 INTER-LIGAND FREE ENERGY PREDICTED BY IDOCK:   -5.51 KCAL/MOL
REMARK 924 INTRA-LIGAND FREE ENERGY PREDICTED BY IDOCK:    0.77 KCAL/MOL
REMARK 927      BINDING AFFINITY PREDICTED BY RF-SCORE:    0.00 PKD
ROOT
HETATM    1  C   UNL     1      -9.005   2.470  70.221  1.00  0.00    -0.162 C  
HETATM    2  C   UNL     1      -8.694   3.597  69.262  1.00  0.00    -0.083 C  
ENDROOT
BRANCH   2   3
HETATM    3  O   UNL     1      -9.512   3.454  68.083  1.00  0.00    -0.183 OA 
BRANCH   3   4
HETATM    4  C   UNL     1      -9.167   4.282  67.044  1.00  0.00    -0.149 A  
HETATM    5  C   UNL     1      -8.482   3.743  65.943  1.00  0.00    -0.110 A  
HETATM    6  C   UNL     1      -8.068   4.603  64.910  1.00  0.00    -0.102 A  
HETATM    7  C   UNL     1      -8.120   2.295  65.787  1.00  0.00    -0.085 C  
HETATM    8  C   UNL     1      -8.331   5.970  64.965  1.00  0.00    -0.121 A  
HETATM    9  O   UNL     1      -7.441   1.883  64.855  1.00  0.00    -0.059 OA 
HETATM   10  O   UNL     1      -8.618   1.475  66.728  1.00  0.00    -0.090 OA 
HETATM   11  C   UNL     1      -9.038   6.507  66.046  1.00  0.00    -0.111 A  
HETATM   12  C   UNL     1      -9.484   5.650  67.055  1.00  0.00    -0.132 A  
BRANCH  11  13
HETATM   13  C   UNL     1      -9.321   7.985  66.134  1.00  0.00    -0.212 C  
BRANCH  13  14
HETATM   14  C   UNL     1      -9.443   8.488  67.559  1.00  0.00    -0.149 C  
HETATM   15  O   UNL     1      -9.987   7.793  68.416  1.00  0.00    -0.167 OA 
HETATM   16  N   UNL     1      -8.895   9.735  67.809  1.00  0.00    -0.129 N  
HETATM   17  H   UNL     1      -8.507  10.274  67.035  1.00  0.00     0.000 HD 
BRANCH  16  18
HETATM   18  C   UNL     1      -8.859  10.298  69.170  1.00  0.00    -0.176 C  
BRANCH  18  19
HETATM   19  C   UNL     1     -10.205  10.774  69.746  1.00  0.00    -0.017 A  
HETATM   20  C   UNL     1     -10.941  10.062  70.753  1.00  0.00    -0.305 A  
HETATM   21  C   UNL     1     -12.091  10.722  71.268  1.00  0.00    -0.365 A  
HETATM   22  C   UNL     1     -10.648  12.074  69.367  1.00  0.00     0.108 A  
HETATM   23  C   UNL     1     -12.495  12.001  70.884  1.00  0.00    -0.384 A  
HETATM   24  C   UNL     1     -11.772  12.680  69.928  1.00  0.00    -0.320 A  
BRANCH  20  25
HETATM   25  N   UNL     1     -10.663   8.792  71.271  1.00  0.00    -0.246 NA 
HETATM   26  C   UNL     1      -9.493   8.580  72.154  1.00  0.00    -0.305 C  
HETATM   27  C   UNL     1      -9.922   7.759  73.375  1.00  0.00    -0.348 C  
HETATM   28  C   UNL     1     -10.504   6.416  72.947  1.00  0.00    -0.243 C  
HETATM   29  C   UNL     1     -11.641   6.627  71.965  1.00  0.00    -0.341 C  
HETATM   30  C   UNL     1     -11.257   7.538  70.807  1.00  0.00    -0.270 C  
ENDBRANCH  20  25
ENDBRANCH  18  19
BRANCH  18  31
HETATM   31  C   UNL     1      -7.834  11.442  69.301  1.00  0.00     0.098 C  
HETATM   32  C   UNL     1      -7.074  11.532  66.837  1.00  0.00    -0.135 C  
HETATM   33  C   UNL     1      -7.610  12.306  68.043  1.00  0.00    -0.126 C  
HETATM   34  C   UNL     1      -6.605  13.413  68.381  1.00  0.00    -0.094 C  
ENDBRANCH  18  31
ENDBRANCH  16  18
ENDBRANCH  13  14
ENDBRANCH  11  13
ENDBRANCH   3   4
ENDBRANCH   2   3
TORSDOF 8
ENDMDL
MODEL      307
REMARK 921   NORMALIZED FREE ENERGY PREDICTED BY IDOCK:   -1.24 KCAL/MOL
REMARK 922        TOTAL FREE ENERGY PREDICTED BY IDOCK:   -4.21 KCAL/MOL
REMARK 923 INTER-LIGAND FREE ENERGY PREDICTED BY IDOCK:   -3.84 KCAL/MOL
REMARK 924 INTRA-LIGAND FREE ENERGY PREDICTED BY IDOCK:   -0.37 KCAL/MOL
REMARK 927      BINDING AFFINITY PREDICTED BY RF-SCORE:    0.00 PKD
ROOT
HETATM    1  C   UNL     1     -10.747   3.557  63.533  1.00  0.00    -0.254 C  
HETATM    2  C   UNL     1     -10.284   4.202  64.819  1.00  0.00    -0.195 C  
ENDROOT
BRANCH   2   3
HETATM    3  O   UNL     1      -9.466   5.348  64.506  1.00  0.00     0.280 OA 
BRANCH   3   4
HETATM    4  C   UNL     1      -8.977   6.018  65.600  1.00  0.00    -0.064 A  
HETATM    5  C   UNL     1      -7.619   5.885  65.929  1.00  0.00    -0.086 A  
HETATM    6  C   UNL     1      -7.133   6.517  67.088  1.00  0.00    -0.076 A  
HETATM    7  C   UNL     1      -6.623   5.083  65.143  1.00  0.00    -0.040 C  
HETATM    8  C   UNL     1      -7.977   7.268  67.904  1.00  0.00    -0.119 A  
HETATM    9  O   UNL     1      -5.468   4.919  65.516  1.00  0.00    -0.013 OA 
HETATM   10  O   UNL     1      -7.080   4.580  63.984  1.00  0.00    -0.048 OA 
HETATM   11  C   UNL     1      -9.324   7.425  67.566  1.00  0.00    -0.147 A  
HETATM   12  C   UNL     1      -9.802   6.831  66.394  1.00  0.00    -0.096 A  
BRANCH  11  13
HETATM   13  C   UNL     1     -10.259   8.221  68.440  1.00  0.00    -0.242 C  
BRANCH  13  14
HETATM   14  C   UNL     1     -10.583   9.592  67.880  1.00  0.00    -0.255 C  
HETATM   15  O   UNL     1     -11.718   9.846  67.482  1.00  0.00     0.309 OA 
HETATM   16  N   UNL     1      -9.541  10.504  67.875  1.00  0.00    -0.149 N  
HETATM   17  H   UNL     1      -8.613  10.203  68.173  1.00  0.00     0.000 HD 
BRANCH  16  18
HETATM   18  C   UNL     1      -9.745  11.900  67.449  1.00  0.00    -0.184 C  
BRANCH  18  19
HETATM   19  C   UNL     1     -10.544  12.796  68.412  1.00  0.00    -0.262 A  
HETATM   20  C   UNL     1     -10.066  14.052  68.919  1.00  0.00    -0.126 A  
HETATM   21  C   UNL     1     -10.996  14.811  69.682  1.00  0.00    -0.285 A  
HETATM   22  C   UNL     1     -11.894  12.422  68.674  1.00  0.00    -0.348 A  
HETATM   23  C   UNL     1     -12.317  14.423  69.914  1.00  0.00    -0.365 A  
HETATM   24  C   UNL     1     -12.768  13.223  69.410  1.00  0.00     0.553 A  
BRANCH  20  25
HETATM   25  N   UNL     1      -8.790  14.604  68.759  1.00  0.00    -0.178 NA 
HETATM   26  C   UNL     1      -7.582  13.760  68.906  1.00  0.00    -0.040 C  
HETATM   27  C   UNL     1      -6.627  14.035  67.739  1.00  0.00    -0.188 C  
HETATM   28  C   UNL     1      -6.235  15.507  67.695  1.00  0.00    -0.174 C  
HETATM   29  C   UNL     1      -7.476  16.379  67.643  1.00  0.00    -0.153 C  
HETATM   30  C   UNL     1      -8.483  16.033  68.732  1.00  0.00    -0.228 C  
ENDBRANCH  20  25
ENDBRANCH  18  19
BRANCH  18  31
HETATM   31  C   UNL     1     -10.378  11.994  66.047  1.00  0.00    -0.271 C  
HETATM   32  C   UNL     1      -9.680  14.415  65.493  1.00  0.00    -0.214 C  
HETATM   33  C   UNL     1      -9.693  12.951  65.050  1.00  0.00     0.049 C  
HETATM   34  C   UNL     1     -10.428  12.868  63.707  1.00  0.00    -0.230 C  
ENDBRANCH  18  31
ENDBRANCH  16  18
ENDBRANCH  13  14
ENDBRANCH  11  13
ENDBRANCH   3   4
ENDBRANCH   2   3
TORSDOF 8
ENDMDL
MODEL      308
REMARK 921   NORMALIZED FREE ENERGY PREDICTED BY IDOCK:   -1.08 KCAL/MOL
REMARK 922        TOTAL FREE ENERGY PREDICTED BY IDOCK:   -3.98 KCAL/MOL
REMARK 923 INTER-LIGAND FREE ENERGY PREDICTED BY IDOCK:   -4.03 KCAL/MOL
REMARK 924 INTRA-LIGAND FREE ENERGY PREDICTED BY IDOCK:    0.05 KCAL/MOL
REMARK 927      BINDING AFFINITY PREDICTED BY RF-SCORE:    0.00 PKD
ROOT
HETATM    1  C   UNL     1      -5.435  15.329  68.848  1.00  0.00    -0.098 C  
HETATM    2  C   UNL     1      -6.768  15.752  69.424  1.00  0.00    -0.184 C  
ENDROOT
BRANCH   2   3
HETATM    3  O   UNL     1      -7.782  15.635  68.405  1.00  0.00    -0.121 OA 
BRANCH   3   4
HETATM    4  C   UNL     1      -8.449  14.435  68.398  1.00  0.00    -0.165 A  
HETATM    5  C   UNL     1      -9.820  14.420  68.095  1.00  0.00    -0.223 A  
HETATM    6  C   UNL     1     -10.518  13.200  68.154  1.00  0.00    -0.255 A  
HETATM    7  C   UNL     1     -10.628  15.631  67.731  1.00  0.00    -0.281 C  
HETATM    8  C   UNL     1      -9.869  12.018  68.504  1.00  0.00    -0.177 A  
HETATM    9  O   UNL     1     -11.841  15.587  67.564  1.00  0.00    -0.127 OA 
HETATM   10  O   UNL     1      -9.924  16.764  67.573  1.00  0.00    -0.254 OA 
HETATM   11  C   UNL     1      -8.499  12.023  68.780  1.00  0.00     0.065 A  
HETATM   12  C   UNL     1      -7.794  13.227  68.685  1.00  0.00    -0.063 A  
BRANCH  11  13
HETATM   13  C   UNL     1      -7.779  10.760  69.175  1.00  0.00    -0.138 C  
BRANCH  13  14
HETATM   14  C   UNL     1      -7.572   9.800  68.019  1.00  0.00    -0.082 C  
HETATM   15  O   UNL     1      -6.694   8.941  68.078  1.00  0.00    -0.066 OA 
HETATM   16  N   UNL     1      -8.433   9.953  66.946  1.00  0.00    -0.124 N  
HETATM   17  H   UNL     1      -9.102  10.724  66.948  1.00  0.00     0.000 HD 
BRANCH  16  18
HETATM   18  C   UNL     1      -8.404   9.026  65.801  1.00  0.00    -0.128 C  
BRANCH  18  19
HETATM   19  C   UNL     1      -8.262   7.531  66.139  1.00  0.00    -0.125 A  
HETATM   20  C   UNL     1      -9.114   6.834  67.061  1.00  0.00    -0.131 A  
HETATM   21  C   UNL     1      -8.928   5.427  67.141  1.00  0.00    -0.112 A  
HETATM   22  C   UNL     1      -7.333   6.778  65.364  1.00  0.00    -0.080 A  
HETATM   23  C   UNL     1      -8.016   4.714  66.361  1.00  0.00    -0.103 A  
HETATM   24  C   UNL     1      -7.213   5.392  65.469  1.00  0.00    -0.068 A  
BRANCH  20  25
HETATM   25  N   UNL     1     -10.095   7.384  67.894  1.00  0.00    -0.169 NA 
HETATM   26  C   UNL     1     -10.470   6.712  69.159  1.00  0.00    -0.219 C  
HETATM   27  C   UNL     1     -10.518   7.747  70.288  1.00  0.00    -0.225 C  
HETATM   28  C   UNL     1     -11.517   8.853  69.967  1.00  0.00     0.021 C  
HETATM   29  C   UNL     1     -11.192   9.479  68.624  1.00  0.00     0.060 C  
HETATM   30  C   UNL     1     -11.029   8.445  67.518  1.00  0.00     0.171 C  
ENDBRANCH  20  25
ENDBRANCH  18  19
BRANCH  18  31
HETATM   31  C   UNL     1      -7.321   9.405  64.772  1.00  0.00    -0.107 C  
HETATM   32  C   UNL     1      -8.781   9.294  62.648  1.00  0.00    -0.225 C  
HETATM   33  C   UNL     1      -7.810  10.119  63.495  1.00  0.00    -0.158 C  
HETATM   34  C   UNL     1      -6.593  10.459  62.627  1.00  0.00    -0.138 C  
ENDBRANCH  18  31
ENDBRANCH  16  18
ENDBRANCH  13  14
ENDBRANCH  11  13
ENDBRANCH   3   4
ENDBRANCH   2   3
TORSDOF 8
ENDMDL
MODEL      309
REMARK 921   NORMALIZED FREE ENERGY PREDICTED BY IDOCK:   -1.06 KCAL/MOL
REMARK 922        TOTAL FREE ENERGY PREDICTED BY IDOCK:   -3.95 KCAL/MOL
REMARK 923 INTER-LIGAND FREE ENERGY PREDICTED BY IDOCK:   -5.63 KCAL/MOL
REMARK 924 INTRA-LIGAND FREE ENERGY PREDICTED BY IDOCK:    1.68 KCAL/MOL
REMARK 927      BINDING AFFINITY PREDICTED BY RF-SCORE:    0.00 PKD
ROOT
HETATM    1  C   UNL     1     -10.124  17.854  69.925  1.00  0.00     0.712 C  
HETATM    2  C   UNL     1     -10.159  19.297  69.472  1.00  0.00     0.120 C  
ENDROOT
BRANCH   2   3
HETATM    3  O   UNL     1      -9.060  19.536  68.569  1.00  0.00    -0.351 OA 
BRANCH   3   4
HETATM    4  C   UNL     1      -8.795  18.503  67.704  1.00  0.00    -0.271 A  
HETATM    5  C   UNL     1      -7.463  18.107  67.505  1.00  0.00    -0.217 A  
HETATM    6  C   UNL     1      -7.185  17.095  66.568  1.00  0.00    -0.308 A  
HETATM    7  C   UNL     1      -6.278  18.707  68.205  1.00  0.00    -0.202 C  
HETATM    8  C   UNL     1      -8.208  16.486  65.845  1.00  0.00     0.126 A  
HETATM    9  O   UNL     1      -5.125  18.396  67.933  1.00  0.00    -0.158 OA 
HETATM   10  O   UNL     1      -6.572  19.592  69.172  1.00  0.00    -0.296 OA 
HETATM   11  C   UNL     1      -9.539  16.858  66.060  1.00  0.00    -0.238 A  
HETATM   12  C   UNL     1      -9.822  17.836  67.018  1.00  0.00    -0.309 A  
BRANCH  11  13
HETATM   13  C   UNL     1     -10.661  16.223  65.280  1.00  0.00    -0.349 C  
BRANCH  13  14
HETATM   14  C   UNL     1     -10.632  14.707  65.311  1.00  0.00    -0.391 C  
HETATM   15  O   UNL     1     -10.180  14.078  64.357  1.00  0.00    -0.310 OA 
HETATM   16  N   UNL     1     -11.117  14.118  66.467  1.00  0.00    -0.312 N  
HETATM   17  H   UNL     1     -11.524  14.705  67.194  1.00  0.00     0.000 HD 
BRANCH  16  18
HETATM   18  C   UNL     1     -11.055  12.659  66.667  1.00  0.00    -0.274 C  
BRANCH  18  19
HETATM   19  C   UNL     1      -9.823  12.125  67.419  1.00  0.00    -0.193 A  
HETATM   20  C   UNL     1      -9.895  11.356  68.629  1.00  0.00    -0.193 A  
HETATM   21  C   UNL     1      -8.664  10.826  69.106  1.00  0.00    -0.101 A  
HETATM   22  C   UNL     1      -8.559  12.273  66.777  1.00  0.00    -0.149 A  
HETATM   23  C   UNL     1      -7.442  10.979  68.450  1.00  0.00    -0.100 A  
HETATM   24  C   UNL     1      -7.388  11.707  67.281  1.00  0.00    -0.136 A  
BRANCH  20  25
HETATM   25  N   UNL     1     -11.034  11.082  69.396  1.00  0.00    -0.240 NA 
HETATM   26  C   UNL     1     -11.519   9.692  69.550  1.00  0.00     0.047 C  
HETATM   27  C   UNL     1     -11.828   9.424  71.028  1.00  0.00    -0.396 C  
HETATM   28  C   UNL     1     -12.873  10.404  71.548  1.00  0.00    -0.569 C  
HETATM   29  C   UNL     1     -12.421  11.831  71.303  1.00  0.00    -0.351 C  
HETATM   30  C   UNL     1     -12.002  12.075  69.859  1.00  0.00    -0.318 C  
ENDBRANCH  20  25
ENDBRANCH  18  19
BRANCH  18  31
HETATM   31  C   UNL     1     -11.200  11.883  65.342  1.00  0.00    -0.351 C  
HETATM   32  C   UNL     1     -13.516  12.780  64.646  1.00  0.00     0.904 C  
HETATM   33  C   UNL     1     -12.056  12.552  64.248  1.00  0.00    -0.507 C  
HETATM   34  C   UNL     1     -12.038  11.663  63.000  1.00  0.00     0.052 C  
ENDBRANCH  18  31
ENDBRANCH  16  18
ENDBRANCH  13  14
ENDBRANCH  11  13
ENDBRANCH   3   4
ENDBRANCH   2   3
TORSDOF 8
ENDMDL
MODEL      310
REMARK 921   NORMALIZED FREE ENERGY PREDICTED BY IDOCK:   -1.03 KCAL/MOL
REMARK 922        TOTAL FREE ENERGY PREDICTED BY IDOCK:   -3.90 KCAL/MOL
REMARK 923 INTER-LIGAND FREE ENERGY PREDICTED BY IDOCK:   -3.10 KCAL/MOL
REMARK 924 INTRA-LIGAND FREE ENERGY PREDICTED BY IDOCK:   -0.81 KCAL/MOL
REMARK 927      BINDING AFFINITY PREDICTED BY RF-SCORE:    0.00 PKD
ROOT
HETATM    1  C   UNL     1      -8.583   8.781  67.155  1.00  0.00    -0.119 C  
HETATM    2  C   UNL     1      -7.939  10.119  66.870  1.00  0.00    -0.114 C  
ENDROOT
BRANCH   2   3
HETATM    3  O   UNL     1      -6.519  10.020  67.107  1.00  0.00    -0.067 OA 
BRANCH   3   4
HETATM    4  C   UNL     1      -6.095  10.583  68.285  1.00  0.00    -0.047 A  
HETATM    5  C   UNL     1      -5.682   9.743  69.331  1.00  0.00    -0.034 A  
HETATM    6  C   UNL     1      -5.312  10.317  70.561  1.00  0.00    -0.058 A  
HETATM    7  C   UNL     1      -5.628   8.245  69.254  1.00  0.00    -0.031 C  
HETATM    8  C   UNL     1      -5.348  11.697  70.749  1.00  0.00    -0.141 A  
HETATM    9  O   UNL     1      -5.350   7.546  70.221  1.00  0.00    -0.023 OA 
HETATM   10  O   UNL     1      -5.878   7.724  68.042  1.00  0.00    -0.037 OA 
HETATM   11  C   UNL     1      -5.732  12.539  69.701  1.00  0.00    -0.102 A  
HETATM   12  C   UNL     1      -6.063  11.975  68.466  1.00  0.00    -0.051 A  
BRANCH  11  13
HETATM   13  C   UNL     1      -5.793  14.034  69.885  1.00  0.00    -0.122 C  
BRANCH  13  14
HETATM   14  C   UNL     1      -7.079  14.651  69.370  1.00  0.00    -0.157 C  
HETATM   15  O   UNL     1      -7.060  15.748  68.815  1.00  0.00    -0.118 OA 
HETATM   16  N   UNL     1      -8.225  13.896  69.552  1.00  0.00    -0.017 N  
HETATM   17  H   UNL     1      -8.170  13.019  70.069  1.00  0.00     0.000 HD 
BRANCH  16  18
HETATM   18  C   UNL     1      -9.525  14.334  69.012  1.00  0.00     0.014 C  
BRANCH  18  19
HETATM   19  C   UNL     1     -10.403  15.180  69.952  1.00  0.00    -0.207 A  
HETATM   20  C   UNL     1     -10.700  16.569  69.735  1.00  0.00    -0.298 A  
HETATM   21  C   UNL     1     -11.642  17.151  70.627  1.00  0.00     1.558 A  
HETATM   22  C   UNL     1     -11.080  14.491  70.999  1.00  0.00     0.256 A  
HETATM   23  C   UNL     1     -12.298  16.448  71.639  1.00  0.00     0.094 A  
HETATM   24  C   UNL     1     -12.015  15.113  71.828  1.00  0.00    -0.448 A  
BRANCH  20  25
HETATM   25  N   UNL     1     -10.160  17.412  68.757  1.00  0.00    -0.330 NA 
HETATM   26  C   UNL     1     -10.414  17.157  67.321  1.00  0.00    -0.313 C  
HETATM   27  C   UNL     1     -10.816  18.468  66.637  1.00  0.00    -0.131 C  
HETATM   28  C   UNL     1      -9.723  19.519  66.796  1.00  0.00    -0.464 C  
HETATM   29  C   UNL     1      -9.391  19.712  68.264  1.00  0.00    -0.426 C  
HETATM   30  C   UNL     1      -9.103  18.398  68.979  1.00  0.00    -0.057 C  
ENDBRANCH  20  25
ENDBRANCH  18  19
BRANCH  18  31
HETATM   31  C   UNL     1     -10.364  13.154  68.483  1.00  0.00    -0.245 C  
HETATM   32  C   UNL     1      -9.984  13.540  65.960  1.00  0.00    -0.308 C  
HETATM   33  C   UNL     1      -9.925  12.556  67.130  1.00  0.00    -0.217 C  
HETATM   34  C   UNL     1     -10.839  11.371  66.800  1.00  0.00    -0.336 C  
ENDBRANCH  18  31
ENDBRANCH  16  18
ENDBRANCH  13  14
ENDBRANCH  11  13
ENDBRANCH   3   4
ENDBRANCH   2   3
TORSDOF 8
ENDMDL
MODEL      311
REMARK 921   NORMALIZED FREE ENERGY PREDICTED BY IDOCK:   -0.85 KCAL/MOL
REMARK 922        TOTAL FREE ENERGY PREDICTED BY IDOCK:   -3.64 KCAL/MOL
REMARK 923 INTER-LIGAND FREE ENERGY PREDICTED BY IDOCK:   -4.80 KCAL/MOL
REMARK 924 INTRA-LIGAND FREE ENERGY PREDICTED BY IDOCK:    1.16 KCAL/MOL
REMARK 927      BINDING AFFINITY PREDICTED BY RF-SCORE:    0.00 PKD
ROOT
HETATM    1  C   UNL     1      -9.802   4.444  65.689  1.00  0.00    -0.229 C  
HETATM    2  C   UNL     1      -9.199   5.386  64.671  1.00  0.00     0.259 C  
ENDROOT
BRANCH   2   3
HETATM    3  O   UNL     1      -8.245   6.245  65.329  1.00  0.00    -0.131 OA 
BRANCH   3   4
HETATM    4  C   UNL     1      -8.506   7.587  65.209  1.00  0.00    -0.063 A  
HETATM    5  C   UNL     1      -7.859   8.319  64.201  1.00  0.00    -0.145 A  
HETATM    6  C   UNL     1      -8.074   9.707  64.120  1.00  0.00    -0.151 A  
HETATM    7  C   UNL     1      -6.912   7.734  63.194  1.00  0.00    -0.076 C  
HETATM    8  C   UNL     1      -8.917  10.356  65.020  1.00  0.00    -0.221 A  
HETATM    9  O   UNL     1      -6.298   8.424  62.390  1.00  0.00    -0.087 OA 
HETATM   10  O   UNL     1      -6.805   6.395  63.218  1.00  0.00    -0.042 OA 
HETATM   11  C   UNL     1      -9.585   9.627  66.009  1.00  0.00    -0.305 A  
HETATM   12  C   UNL     1      -9.404   8.243  66.067  1.00  0.00    -0.217 A  
BRANCH  11  13
HETATM   13  C   UNL     1     -10.490  10.310  67.002  1.00  0.00    -0.304 C  
BRANCH  13  14
HETATM   14  C   UNL     1      -9.979  11.668  67.444  1.00  0.00    -0.183 C  
HETATM   15  O   UNL     1      -9.832  11.914  68.640  1.00  0.00    -0.197 OA 
HETATM   16  N   UNL     1      -9.686  12.563  66.429  1.00  0.00    -0.246 N  
HETATM   17  H   UNL     1      -9.885  12.305  65.463  1.00  0.00     0.000 HD 
BRANCH  16  18
HETATM   18  C   UNL     1      -9.091  13.881  66.717  1.00  0.00    -0.223 C  
BRANCH  18  19
HETATM   19  C   UNL     1      -7.697  13.871  67.369  1.00  0.00    -0.165 A  
HETATM   20  C   UNL     1      -7.026  15.050  67.840  1.00  0.00    -0.156 A  
HETATM   21  C   UNL     1      -5.808  14.835  68.544  1.00  0.00    -0.097 A  
HETATM   22  C   UNL     1      -7.127  12.598  67.661  1.00  0.00    -0.139 A  
HETATM   23  C   UNL     1      -5.280  13.574  68.824  1.00  0.00    -0.073 A  
HETATM   24  C   UNL     1      -5.940  12.450  68.378  1.00  0.00    -0.056 A  
BRANCH  20  25
HETATM   25  N   UNL     1      -7.427  16.381  67.674  1.00  0.00    -0.127 NA 
HETATM   26  C   UNL     1      -8.036  17.128  68.798  1.00  0.00    -0.252 C  
HETATM   27  C   UNL     1      -7.380  18.509  68.903  1.00  0.00    -0.289 C  
HETATM   28  C   UNL     1      -7.549  19.288  67.604  1.00  0.00    -0.275 C  
HETATM   29  C   UNL     1      -7.012  18.483  66.436  1.00  0.00    -0.257 C  
HETATM   30  C   UNL     1      -7.573  17.067  66.391  1.00  0.00    -0.315 C  
ENDBRANCH  20  25
ENDBRANCH  18  19
BRANCH  18  31
HETATM   31  C   UNL     1     -10.025  14.769  67.562  1.00  0.00    -0.219 C  
HETATM   32  C   UNL     1     -10.553  16.550  65.772  1.00  0.00    -0.307 C  
HETATM   33  C   UNL     1     -11.107  15.552  66.791  1.00  0.00    -0.206 C  
HETATM   34  C   UNL     1     -11.962  16.328  67.798  1.00  0.00     0.692 C  
ENDBRANCH  18  31
ENDBRANCH  16  18
ENDBRANCH  13  14
ENDBRANCH  11  13
ENDBRANCH   3   4
ENDBRANCH   2   3
TORSDOF 8
ENDMDL
MODEL      312
REMARK 921   NORMALIZED FREE ENERGY PREDICTED BY IDOCK:   -0.58 KCAL/MOL
REMARK 922        TOTAL FREE ENERGY PREDICTED BY IDOCK:   -3.24 KCAL/MOL
REMARK 923 INTER-LIGAND FREE ENERGY PREDICTED BY IDOCK:   -3.81 KCAL/MOL
REMARK 924 INTRA-LIGAND FREE ENERGY PREDICTED BY IDOCK:    0.57 KCAL/MOL
REMARK 927      BINDING AFFINITY PREDICTED BY RF-SCORE:    0.00 PKD
ROOT
HETATM    1  C   UNL     1     -11.070   3.942  63.682  1.00  0.00     0.138 C  
HETATM    2  C   UNL     1      -9.950   3.789  64.686  1.00  0.00    -0.199 C  
ENDROOT
BRANCH   2   3
HETATM    3  O   UNL     1      -8.941   4.786  64.424  1.00  0.00    -0.152 OA 
BRANCH   3   4
HETATM    4  C   UNL     1      -7.701   4.493  64.937  1.00  0.00    -0.081 A  
HETATM    5  C   UNL     1      -6.882   3.579  64.256  1.00  0.00    -0.044 A  
HETATM    6  C   UNL     1      -5.640   3.228  64.817  1.00  0.00    -0.010 A  
HETATM    7  C   UNL     1      -7.241   2.907  62.963  1.00  0.00    -0.044 C  
HETATM    8  C   UNL     1      -5.218   3.775  66.027  1.00  0.00    -0.009 A  
HETATM    9  O   UNL     1      -6.537   2.045  62.452  1.00  0.00    -0.013 OA 
HETATM   10  O   UNL     1      -8.377   3.336  62.390  1.00  0.00    -0.072 OA 
HETATM   11  C   UNL     1      -6.019   4.707  66.694  1.00  0.00    -0.027 A  
HETATM   12  C   UNL     1      -7.236   5.088  66.120  1.00  0.00    -0.077 A  
BRANCH  11  13
HETATM   13  C   UNL     1      -5.590   5.301  68.011  1.00  0.00    -0.012 C  
BRANCH  13  14
HETATM   14  C   UNL     1      -6.582   6.303  68.569  1.00  0.00    -0.059 C  
HETATM   15  O   UNL     1      -6.922   6.245  69.750  1.00  0.00    -0.065 OA 
HETATM   16  N   UNL     1      -7.040   7.260  67.679  1.00  0.00    -0.082 N  
HETATM   17  H   UNL     1      -6.753   7.211  66.702  1.00  0.00     0.000 HD 
BRANCH  16  18
HETATM   18  C   UNL     1      -7.931   8.350  68.117  1.00  0.00    -0.119 C  
BRANCH  18  19
HETATM   19  C   UNL     1      -7.257   9.697  68.433  1.00  0.00    -0.074 A  
HETATM   20  C   UNL     1      -7.544  10.918  67.735  1.00  0.00    -0.095 A  
HETATM   21  C   UNL     1      -6.933  12.092  68.256  1.00  0.00    -0.080 A  
HETATM   22  C   UNL     1      -6.427   9.749  69.590  1.00  0.00    -0.049 A  
HETATM   23  C   UNL     1      -6.132  12.115  69.399  1.00  0.00    -0.103 A  
HETATM   24  C   UNL     1      -5.876  10.938  70.068  1.00  0.00    -0.089 A  
BRANCH  20  25
HETATM   25  N   UNL     1      -8.343  11.081  66.597  1.00  0.00    -0.150 NA 
HETATM   26  C   UNL     1      -8.064  10.307  65.366  1.00  0.00    -0.147 C  
HETATM   27  C   UNL     1      -9.373   9.715  64.832  1.00  0.00    -0.306 C  
HETATM   28  C   UNL     1     -10.386  10.817  64.540  1.00  0.00    -0.401 C  
HETATM   29  C   UNL     1     -10.600  11.673  65.774  1.00  0.00    -0.320 C  
HETATM   30  C   UNL     1      -9.294  12.170  66.379  1.00  0.00    -0.224 C  
ENDBRANCH  20  25
ENDBRANCH  18  19
BRANCH  18  31
HETATM   31  C   UNL     1      -8.804   7.940  69.319  1.00  0.00    -0.142 C  
HETATM   32  C   UNL     1     -10.754   9.585  68.932  1.00  0.00    -0.220 C  
HETATM   33  C   UNL     1     -10.326   8.133  69.157  1.00  0.00    -0.228 C  
HETATM   34  C   UNL     1     -11.022   7.625  70.424  1.00  0.00    -0.256 C  
ENDBRANCH  18  31
ENDBRANCH  16  18
ENDBRANCH  13  14
ENDBRANCH  11  13
ENDBRANCH   3   4
ENDBRANCH   2   3
TORSDOF 8
ENDMDL
MODEL      313
REMARK 921   NORMALIZED FREE ENERGY PREDICTED BY IDOCK:   -0.56 KCAL/MOL
REMARK 922        TOTAL FREE ENERGY PREDICTED BY IDOCK:   -3.21 KCAL/MOL
REMARK 923 INTER-LIGAND FREE ENERGY PREDICTED BY IDOCK:   -5.88 KCAL/MOL
REMARK 924 INTRA-LIGAND FREE ENERGY PREDICTED BY IDOCK:    2.67 KCAL/MOL
REMARK 927      BINDING AFFINITY PREDICTED BY RF-SCORE:    0.00 PKD
ROOT
HETATM    1  C   UNL     1      -8.022   2.686  65.856  1.00  0.00    -0.082 C  
HETATM    2  C   UNL     1      -7.572   3.721  64.850  1.00  0.00    -0.077 C  
ENDROOT
BRANCH   2   3
HETATM    3  O   UNL     1      -6.924   4.806  65.545  1.00  0.00    -0.060 OA 
BRANCH   3   4
HETATM    4  C   UNL     1      -7.412   6.052  65.242  1.00  0.00    -0.083 A  
HETATM    5  C   UNL     1      -6.822   6.779  64.197  1.00  0.00    -0.050 A  
HETATM    6  C   UNL     1      -7.278   8.084  63.931  1.00  0.00    -0.092 A  
HETATM    7  C   UNL     1      -5.698   6.281  63.336  1.00  0.00    -0.022 C  
HETATM    8  C   UNL     1      -8.300   8.654  64.685  1.00  0.00    -0.165 A  
HETATM    9  O   UNL     1      -5.150   6.983  62.496  1.00  0.00    -0.030 OA 
HETATM   10  O   UNL     1      -5.353   4.997  63.532  1.00  0.00    -0.009 OA 
HETATM   11  C   UNL     1      -8.910   7.923  65.710  1.00  0.00    -0.155 A  
HETATM   12  C   UNL     1      -8.487   6.613  65.951  1.00  0.00    -0.145 A  
BRANCH  11  13
HETATM   13  C   UNL     1     -10.009   8.525  66.548  1.00  0.00    -0.350 C  
BRANCH  13  14
HETATM   14  C   UNL     1      -9.808  10.001  66.832  1.00  0.00    -0.197 C  
HETATM   15  O   UNL     1      -9.793  10.411  67.991  1.00  0.00    -0.148 OA 
HETATM   16  N   UNL     1      -9.630  10.810  65.722  1.00  0.00    -0.197 N  
HETATM   17  H   UNL     1      -9.708  10.404  64.790  1.00  0.00     0.000 HD 
BRANCH  16  18
HETATM   18  C   UNL     1      -9.328  12.246  65.862  1.00  0.00    -0.095 C  
BRANCH  18  19
HETATM   19  C   UNL     1      -8.316  12.627  66.957  1.00  0.00    -0.130 A  
HETATM   20  C   UNL     1      -8.403  13.824  67.746  1.00  0.00    -0.180 A  
HETATM   21  C   UNL     1      -7.463  13.940  68.807  1.00  0.00    -0.114 A  
HETATM   22  C   UNL     1      -7.341  11.648  67.305  1.00  0.00    -0.136 A  
HETATM   23  C   UNL     1      -6.525  12.959  69.131  1.00  0.00    -0.108 A  
HETATM   24  C   UNL     1      -6.461  11.809  68.376  1.00  0.00    -0.053 A  
BRANCH  20  25
HETATM   25  N   UNL     1      -9.295  14.889  67.579  1.00  0.00    -0.190 NA 
HETATM   26  C   UNL     1     -10.412  15.089  68.530  1.00  0.00    -0.232 C  
HETATM   27  C   UNL     1     -10.472  16.565  68.939  1.00  0.00    -0.304 C  
HETATM   28  C   UNL     1     -10.658  17.458  67.717  1.00  0.00    -0.371 C  
HETATM   29  C   UNL     1      -9.568  17.185  66.698  1.00  0.00    -0.279 C  
HETATM   30  C   UNL     1      -9.425  15.705  66.372  1.00  0.00    -0.292 C  
ENDBRANCH  20  25
ENDBRANCH  18  19
BRANCH  18  31
HETATM   31  C   UNL     1     -10.602  13.093  66.051  1.00  0.00    -0.291 C  
HETATM   32  C   UNL     1     -11.702  12.611  63.767  1.00  0.00    -0.566 C  
HETATM   33  C   UNL     1     -11.857  12.620  65.289  1.00  0.00    -0.452 C  
HETATM   34  C   UNL     1     -13.024  13.549  65.642  1.00  0.00    -0.231 C  
ENDBRANCH  18  31
ENDBRANCH  16  18
ENDBRANCH  13  14
ENDBRANCH  11  13
ENDBRANCH   3   4
ENDBRANCH   2   3
TORSDOF 8
ENDMDL
MODEL      314
REMARK 921   NORMALIZED FREE ENERGY PREDICTED BY IDOCK:   -0.31 KCAL/MOL
REMARK 922        TOTAL FREE ENERGY PREDICTED BY IDOCK:   -2.84 KCAL/MOL
REMARK 923 INTER-LIGAND FREE ENERGY PREDICTED BY IDOCK:   -3.38 KCAL/MOL
REMARK 924 INTRA-LIGAND FREE ENERGY PREDICTED BY IDOCK:    0.53 KCAL/MOL
REMARK 927      BINDING AFFINITY PREDICTED BY RF-SCORE:    0.00 PKD
ROOT
HETATM    1  C   UNL     1      -8.080  16.238  70.267  1.00  0.00     1.802 C  
HETATM    2  C   UNL     1      -6.978  16.492  69.264  1.00  0.00    -0.227 C  
ENDROOT
BRANCH   2   3
HETATM    3  O   UNL     1      -7.452  16.153  67.945  1.00  0.00    -0.122 OA 
BRANCH   3   4
HETATM    4  C   UNL     1      -8.797  15.892  67.870  1.00  0.00    -0.179 A  
HETATM    5  C   UNL     1      -9.642  16.840  67.273  1.00  0.00    -0.234 A  
HETATM    6  C   UNL     1     -11.029  16.604  67.257  1.00  0.00    -0.064 A  
HETATM    7  C   UNL     1      -9.182  18.131  66.660  1.00  0.00    -0.290 C  
HETATM    8  C   UNL     1     -11.567  15.448  67.819  1.00  0.00    -0.237 A  
HETATM    9  O   UNL     1      -9.962  18.972  66.233  1.00  0.00    -0.362 OA 
HETATM   10  O   UNL     1      -7.849  18.287  66.587  1.00  0.00    -0.232 OA 
HETATM   11  C   UNL     1     -10.726  14.488  68.390  1.00  0.00    -0.246 A  
HETATM   12  C   UNL     1      -9.345  14.701  68.373  1.00  0.00    -0.201 A  
BRANCH  11  13
HETATM   13  C   UNL     1     -11.286  13.237  69.018  1.00  0.00    -0.334 C  
BRANCH  13  14
HETATM   14  C   UNL     1     -11.123  12.005  68.148  1.00  0.00    -0.245 C  
HETATM   15  O   UNL     1     -12.091  11.285  67.907  1.00  0.00    -0.634 OA 
HETATM   16  N   UNL     1      -9.850  11.780  67.652  1.00  0.00    -0.182 N  
HETATM   17  H   UNL     1      -9.086  12.393  67.939  1.00  0.00     0.000 HD 
BRANCH  16  18
HETATM   18  C   UNL     1      -9.576  10.675  66.717  1.00  0.00    -0.169 C  
BRANCH  18  19
HETATM   19  C   UNL     1      -8.149  10.097  66.744  1.00  0.00    -0.119 A  
HETATM   20  C   UNL     1      -7.816   8.815  67.298  1.00  0.00    -0.097 A  
HETATM   21  C   UNL     1      -6.474   8.384  67.107  1.00  0.00    -0.058 A  
HETATM   22  C   UNL     1      -7.147  10.816  66.030  1.00  0.00    -0.102 A  
HETATM   23  C   UNL     1      -5.515   9.105  66.394  1.00  0.00    -0.045 A  
HETATM   24  C   UNL     1      -5.852  10.328  65.855  1.00  0.00    -0.088 A  
BRANCH  20  25
HETATM   25  N   UNL     1      -8.655   7.953  68.012  1.00  0.00    -0.126 NA 
HETATM   26  C   UNL     1      -8.607   7.911  69.491  1.00  0.00    -0.137 C  
HETATM   27  C   UNL     1     -10.035   7.955  70.046  1.00  0.00    -0.191 C  
HETATM   28  C   UNL     1     -10.857   6.785  69.516  1.00  0.00    -0.315 C  
HETATM   29  C   UNL     1     -10.828   6.769  68.000  1.00  0.00    -0.306 C  
HETATM   30  C   UNL     1      -9.414   6.842  67.439  1.00  0.00    -0.134 C  
ENDBRANCH  20  25
ENDBRANCH  18  19
BRANCH  18  31
HETATM   31  C   UNL     1      -9.933  11.040  65.262  1.00  0.00    -0.320 C  
HETATM   32  C   UNL     1      -8.703   9.102  64.086  1.00  0.00    -0.170 C  
HETATM   33  C   UNL     1     -10.015   9.868  64.263  1.00  0.00     0.171 C  
HETATM   34  C   UNL     1     -10.430  10.420  62.895  1.00  0.00     0.811 C  
ENDBRANCH  18  31
ENDBRANCH  16  18
ENDBRANCH  13  14
ENDBRANCH  11  13
ENDBRANCH   3   4
ENDBRANCH   2   3
TORSDOF 8
ENDMDL
MODEL      315
REMARK 921   NORMALIZED FREE ENERGY PREDICTED BY IDOCK:    0.46 KCAL/MOL
REMARK 922        TOTAL FREE ENERGY PREDICTED BY IDOCK:   -1.72 KCAL/MOL
REMARK 923 INTER-LIGAND FREE ENERGY PREDICTED BY IDOCK:   -4.31 KCAL/MOL
REMARK 924 INTRA-LIGAND FREE ENERGY PREDICTED BY IDOCK:    2.60 KCAL/MOL
REMARK 927      BINDING AFFINITY PREDICTED BY RF-SCORE:    0.00 PKD
ROOT
HETATM    1  C   UNL     1     -10.502  16.623  69.608  1.00  0.00    -0.237 C  
HETATM    2  C   UNL     1     -10.549  18.001  70.230  1.00  0.00     1.555 C  
ENDROOT
BRANCH   2   3
HETATM    3  O   UNL     1      -9.449  18.785  69.724  1.00  0.00     0.403 OA 
BRANCH   3   4
HETATM    4  C   UNL     1      -8.989  18.397  68.490  1.00  0.00    -0.315 A  
HETATM    5  C   UNL     1      -7.739  18.862  68.053  1.00  0.00    -0.298 A  
HETATM    6  C   UNL     1      -7.298  18.520  66.761  1.00  0.00    -0.234 A  
HETATM    7  C   UNL     1      -6.823  19.738  68.857  1.00  0.00    -0.338 C  
HETATM    8  C   UNL     1      -8.079  17.730  65.922  1.00  0.00    -0.027 A  
HETATM    9  O   UNL     1      -5.783  20.197  68.401  1.00  0.00    -0.217 OA 
HETATM   10  O   UNL     1      -7.211  19.962  70.123  1.00  0.00    -0.052 OA 
HETATM   11  C   UNL     1      -9.313  17.242  66.363  1.00  0.00    -0.281 A  
HETATM   12  C   UNL     1      -9.737  17.547  67.660  1.00  0.00    -0.275 A  
BRANCH  11  13
HETATM   13  C   UNL     1     -10.183  16.397  65.467  1.00  0.00    -0.296 C  
BRANCH  13  14
HETATM   14  C   UNL     1      -9.876  14.915  65.557  1.00  0.00    -0.313 C  
HETATM   15  O   UNL     1      -9.417  14.319  64.584  1.00  0.00     0.426 OA 
HETATM   16  N   UNL     1     -10.125  14.319  66.782  1.00  0.00    -0.259 N  
HETATM   17  H   UNL     1     -10.557  14.868  67.526  1.00  0.00     0.000 HD 
BRANCH  16  18
HETATM   18  C   UNL     1      -9.780  12.908  67.032  1.00  0.00    -0.230 C  
BRANCH  18  19
HETATM   19  C   UNL     1      -8.376  12.641  67.603  1.00  0.00    -0.174 A  
HETATM   20  C   UNL     1      -7.823  11.329  67.785  1.00  0.00    -0.115 A  
HETATM   21  C   UNL     1      -6.460  11.278  68.190  1.00  0.00    -0.056 A  
HETATM   22  C   UNL     1      -7.534  13.773  67.804  1.00  0.00    -0.168 A  
HETATM   23  C   UNL     1      -5.655  12.404  68.369  1.00  0.00    -0.057 A  
HETATM   24  C   UNL     1      -6.195  13.658  68.178  1.00  0.00    -0.117 A  
BRANCH  20  25
HETATM   25  N   UNL     1      -8.474  10.101  67.622  1.00  0.00    -0.118 NA 
HETATM   26  C   UNL     1      -9.415   9.606  68.652  1.00  0.00    -0.146 C  
HETATM   27  C   UNL     1     -10.695   9.107  67.972  1.00  0.00    -0.205 C  
HETATM   28  C   UNL     1     -10.380   7.997  66.975  1.00  0.00    -0.414 C  
HETATM   29  C   UNL     1      -9.341   8.470  65.975  1.00  0.00    -0.266 C  
HETATM   30  C   UNL     1      -8.114   9.074  66.644  1.00  0.00    -0.107 C  
ENDBRANCH  20  25
ENDBRANCH  18  19
BRANCH  18  31
HETATM   31  C   UNL     1      -9.980  12.029  65.782  1.00  0.00    -0.266 C  
HETATM   32  C   UNL     1     -12.484  12.514  65.393  1.00  0.00    -0.311 C  
HETATM   33  C   UNL     1     -11.076  12.482  64.795  1.00  0.00    -0.338 C  
HETATM   34  C   UNL     1     -11.088  11.521  63.602  1.00  0.00    -0.469 C  
ENDBRANCH  18  31
ENDBRANCH  16  18
ENDBRANCH  13  14
ENDBRANCH  11  13
ENDBRANCH   3   4
ENDBRANCH   2   3
TORSDOF 8
ENDMDL
MODEL      316
REMARK 921   NORMALIZED FREE ENERGY PREDICTED BY IDOCK:    0.66 KCAL/MOL
REMARK 922        TOTAL FREE ENERGY PREDICTED BY IDOCK:   -1.43 KCAL/MOL
REMARK 923 INTER-LIGAND FREE ENERGY PREDICTED BY IDOCK:   -4.13 KCAL/MOL
REMARK 924 INTRA-LIGAND FREE ENERGY PREDICTED BY IDOCK:    2.70 KCAL/MOL
REMARK 927      BINDING AFFINITY PREDICTED BY RF-SCORE:    0.00 PKD
ROOT
HETATM    1  C   UNL     1      -8.510  17.373  66.949  1.00  0.00    -0.264 C  
HETATM    2  C   UNL     1      -8.581  15.863  66.974  1.00  0.00    -0.216 C  
ENDROOT
BRANCH   2   3
HETATM    3  O   UNL     1      -9.895  15.444  66.550  1.00  0.00    -0.248 OA 
BRANCH   3   4
HETATM    4  C   UNL     1     -10.084  14.085  66.531  1.00  0.00    -0.285 A  
HETATM    5  C   UNL     1     -11.107  13.551  65.731  1.00  0.00    -0.295 A  
HETATM    6  C   UNL     1     -11.344  12.165  65.763  1.00  0.00    -0.402 A  
HETATM    7  C   UNL     1     -12.009  14.359  64.844  1.00  0.00    -0.426 C  
HETATM    8  C   UNL     1     -10.581  11.324  66.570  1.00  0.00    -0.315 A  
HETATM    9  O   UNL     1     -12.949  13.865  64.235  1.00  0.00    -0.447 OA 
HETATM   10  O   UNL     1     -11.696  15.662  64.744  1.00  0.00    -0.254 OA 
HETATM   11  C   UNL     1      -9.543  11.848  67.347  1.00  0.00    -0.176 A  
HETATM   12  C   UNL     1      -9.279  13.219  67.288  1.00  0.00    -0.222 A  
BRANCH  11  13
HETATM   13  C   UNL     1      -8.713  10.960  68.238  1.00  0.00    -0.140 C  
BRANCH  13  14
HETATM   14  C   UNL     1      -9.544  10.089  69.159  1.00  0.00    -0.210 C  
HETATM   15  O   UNL     1     -10.222   9.171  68.699  1.00  0.00    -0.192 OA 
HETATM   16  N   UNL     1      -9.463  10.387  70.509  1.00  0.00     0.093 N  
HETATM   17  H   UNL     1      -8.922  11.197  70.810  1.00  0.00     0.000 HD 
BRANCH  16  18
HETATM   18  C   UNL     1     -10.144   9.558  71.520  1.00  0.00     0.079 C  
BRANCH  18  19
HETATM   19  C   UNL     1     -10.340   8.074  71.164  1.00  0.00    -0.229 A  
HETATM   20  C   UNL     1      -9.260   7.142  70.998  1.00  0.00    -0.158 A  
HETATM   21  C   UNL     1      -9.634   5.782  70.812  1.00  0.00    -0.210 A  
HETATM   22  C   UNL     1     -11.677   7.579  71.163  1.00  0.00    -0.315 A  
HETATM   23  C   UNL     1     -10.952   5.325  70.827  1.00  0.00    -0.011 A  
HETATM   24  C   UNL     1     -11.979   6.227  71.001  1.00  0.00    -0.138 A  
BRANCH  20  25
HETATM   25  N   UNL     1      -7.889   7.422  70.987  1.00  0.00    -0.091 NA 
HETATM   26  C   UNL     1      -6.979   6.685  70.081  1.00  0.00    -0.063 C  
HETATM   27  C   UNL     1      -6.053   7.681  69.374  1.00  0.00    -0.031 C  
HETATM   28  C   UNL     1      -5.245   8.482  70.389  1.00  0.00    -0.021 C  
HETATM   29  C   UNL     1      -6.172   9.160  71.379  1.00  0.00    -0.078 C  
HETATM   30  C   UNL     1      -7.174   8.196  72.001  1.00  0.00    -0.089 C  
ENDBRANCH  20  25
ENDBRANCH  18  19
BRANCH  18  31
HETATM   31  C   UNL     1     -11.505  10.150  71.937  1.00  0.00     0.648 C  
HETATM   32  C   UNL     1     -12.764   9.768  69.718  1.00  0.00     0.810 C  
HETATM   33  C   UNL     1     -12.749   9.567  71.235  1.00  0.00    -0.416 C  
HETATM   34  C   UNL     1     -13.998  10.238  71.815  1.00  0.00     0.179 C  
ENDBRANCH  18  31
ENDBRANCH  16  18
ENDBRANCH  13  14
ENDBRANCH  11  13
ENDBRANCH   3   4
ENDBRANCH   2   3
TORSDOF 8
ENDMDL
MODEL      317
REMARK 921   NORMALIZED FREE ENERGY PREDICTED BY IDOCK:    0.78 KCAL/MOL
REMARK 922        TOTAL FREE ENERGY PREDICTED BY IDOCK:   -1.26 KCAL/MOL
REMARK 923 INTER-LIGAND FREE ENERGY PREDICTED BY IDOCK:   -3.52 KCAL/MOL
REMARK 924 INTRA-LIGAND FREE ENERGY PREDICTED BY IDOCK:    2.26 KCAL/MOL
REMARK 927      BINDING AFFINITY PREDICTED BY RF-SCORE:    0.00 PKD
ROOT
HETATM    1  C   UNL     1      -8.157   3.263  65.847  1.00  0.00    -0.093 C  
HETATM    2  C   UNL     1      -7.806   4.574  65.180  1.00  0.00    -0.090 C  
ENDROOT
BRANCH   2   3
HETATM    3  O   UNL     1      -7.592   5.577  66.194  1.00  0.00    -0.088 OA 
BRANCH   3   4
HETATM    4  C   UNL     1      -8.171   6.793  65.928  1.00  0.00    -0.132 A  
HETATM    5  C   UNL     1      -7.980   7.375  64.665  1.00  0.00    -0.127 A  
HETATM    6  C   UNL     1      -8.517   8.652  64.414  1.00  0.00    -0.113 A  
HETATM    7  C   UNL     1      -7.209   6.747  63.541  1.00  0.00    -0.066 C  
HETATM    8  C   UNL     1      -9.231   9.335  65.395  1.00  0.00    -0.284 A  
HETATM    9  O   UNL     1      -6.988   7.330  62.487  1.00  0.00    -0.069 OA 
HETATM   10  O   UNL     1      -6.800   5.486  63.762  1.00  0.00    -0.043 OA 
HETATM   11  C   UNL     1      -9.447   8.748  66.646  1.00  0.00    -0.263 A  
HETATM   12  C   UNL     1      -8.949   7.464  66.885  1.00  0.00    -0.150 A  
BRANCH  11  13
HETATM   13  C   UNL     1     -10.204   9.474  67.728  1.00  0.00    -0.265 C  
BRANCH  13  14
HETATM   14  C   UNL     1      -9.525  10.753  68.179  1.00  0.00    -0.158 C  
HETATM   15  O   UNL     1      -9.043  10.832  69.308  1.00  0.00    -0.143 OA 
HETATM   16  N   UNL     1      -9.478  11.774  67.245  1.00  0.00    -0.169 N  
HETATM   17  H   UNL     1      -9.947  11.653  66.348  1.00  0.00     0.000 HD 
BRANCH  16  18
HETATM   18  C   UNL     1      -8.763  13.033  67.522  1.00  0.00    -0.197 C  
BRANCH  18  19
HETATM   19  C   UNL     1      -7.605  12.952  68.533  1.00  0.00    -0.120 A  
HETATM   20  C   UNL     1      -6.475  12.077  68.386  1.00  0.00    -0.055 A  
HETATM   21  C   UNL     1      -5.434  12.239  69.342  1.00  0.00    -0.074 A  
HETATM   22  C   UNL     1      -7.591  13.919  69.579  1.00  0.00     0.356 A  
HETATM   23  C   UNL     1      -5.443  13.203  70.351  1.00  0.00    -0.145 A  
HETATM   24  C   UNL     1      -6.526  14.046  70.472  1.00  0.00     0.036 A  
BRANCH  20  25
HETATM   25  N   UNL     1      -6.291  11.080  67.422  1.00  0.00    -0.059 NA 
HETATM   26  C   UNL     1      -6.355  11.408  65.980  1.00  0.00     0.187 C  
HETATM   27  C   UNL     1      -5.165  10.763  65.260  1.00  0.00    -0.144 C  
HETATM   28  C   UNL     1      -5.171   9.251  65.453  1.00  0.00    -0.036 C  
HETATM   29  C   UNL     1      -5.204   8.911  66.931  1.00  0.00    -0.039 C  
HETATM   30  C   UNL     1      -6.315   9.640  67.677  1.00  0.00    -0.057 C  
ENDBRANCH  20  25
ENDBRANCH  18  19
BRANCH  18  31
HETATM   31  C   UNL     1      -9.718  14.163  67.955  1.00  0.00    -0.226 C  
HETATM   32  C   UNL     1     -10.858  14.570  65.677  1.00  0.00    -0.329 C  
HETATM   33  C   UNL     1     -11.040  14.280  67.168  1.00  0.00    -0.318 C  
HETATM   34  C   UNL     1     -11.872  15.416  67.774  1.00  0.00    -0.045 C  
ENDBRANCH  18  31
ENDBRANCH  16  18
ENDBRANCH  13  14
ENDBRANCH  11  13
ENDBRANCH   3   4
ENDBRANCH   2   3
TORSDOF 8
ENDMDL
MODEL      318
REMARK 921   NORMALIZED FREE ENERGY PREDICTED BY IDOCK:    1.07 KCAL/MOL
REMARK 922        TOTAL FREE ENERGY PREDICTED BY IDOCK:   -0.83 KCAL/MOL
REMARK 923 INTER-LIGAND FREE ENERGY PREDICTED BY IDOCK:   -2.79 KCAL/MOL
REMARK 924 INTRA-LIGAND FREE ENERGY PREDICTED BY IDOCK:    1.97 KCAL/MOL
REMARK 927      BINDING AFFINITY PREDICTED BY RF-SCORE:    0.00 PKD
ROOT
HETATM    1  C   UNL     1      -9.701   2.693  69.599  1.00  0.00     0.079 C  
HETATM    2  C   UNL     1      -8.677   3.754  69.934  1.00  0.00    -0.076 C  
ENDROOT
BRANCH   2   3
HETATM    3  O   UNL     1      -8.810   4.849  69.004  1.00  0.00    -0.090 OA 
BRANCH   3   4
HETATM    4  C   UNL     1      -8.565   6.088  69.541  1.00  0.00    -0.119 A  
HETATM    5  C   UNL     1      -7.368   6.301  70.243  1.00  0.00    -0.089 A  
HETATM    6  C   UNL     1      -7.148   7.551  70.852  1.00  0.00    -0.059 A  
HETATM    7  C   UNL     1      -6.290   5.274  70.427  1.00  0.00    -0.027 C  
HETATM    8  C   UNL     1      -8.094   8.569  70.763  1.00  0.00    -0.128 A  
HETATM    9  O   UNL     1      -5.304   5.472  71.126  1.00  0.00    -0.008 OA 
HETATM   10  O   UNL     1      -6.469   4.128  69.749  1.00  0.00    -0.031 OA 
HETATM   11  C   UNL     1      -9.275   8.371  70.041  1.00  0.00    -0.158 A  
HETATM   12  C   UNL     1      -9.480   7.144  69.403  1.00  0.00    -0.153 A  
BRANCH  11  13
HETATM   13  C   UNL     1     -10.320   9.453  69.943  1.00  0.00    -0.252 C  
BRANCH  13  14
HETATM   14  C   UNL     1      -9.802  10.731  69.313  1.00  0.00    -0.138 C  
HETATM   15  O   UNL     1      -8.602  10.999  69.353  1.00  0.00     0.004 OA 
HETATM   16  N   UNL     1     -10.751  11.529  68.697  1.00  0.00    -0.199 N  
HETATM   17  H   UNL     1     -11.735  11.267  68.751  1.00  0.00     0.000 HD 
BRANCH  16  18
HETATM   18  C   UNL     1     -10.369  12.749  67.963  1.00  0.00    -0.229 C  
BRANCH  18  19
HETATM   19  C   UNL     1     -11.165  13.051  66.681  1.00  0.00    -0.341 A  
HETATM   20  C   UNL     1     -10.965  12.366  65.434  1.00  0.00    -0.299 A  
HETATM   21  C   UNL     1     -11.888  12.677  64.397  1.00  0.00    -0.452 A  
HETATM   22  C   UNL     1     -12.267  13.946  66.800  1.00  0.00    -0.438 A  
HETATM   23  C   UNL     1     -12.965  13.551  64.547  1.00  0.00     0.129 A  
HETATM   24  C   UNL     1     -13.155  14.191  65.752  1.00  0.00    -0.053 A  
BRANCH  20  25
HETATM   25  N   UNL     1      -9.960  11.443  65.123  1.00  0.00    -0.252 NA 
HETATM   26  C   UNL     1      -9.025  11.698  64.004  1.00  0.00     0.400 C  
HETATM   27  C   UNL     1      -7.592  11.415  64.466  1.00  0.00     1.429 C  
HETATM   28  C   UNL     1      -7.453   9.974  64.946  1.00  0.00    -0.140 C  
HETATM   29  C   UNL     1      -8.476   9.681  66.027  1.00  0.00    -0.131 C  
HETATM   30  C   UNL     1      -9.891  10.068  65.617  1.00  0.00    -0.295 C  
ENDBRANCH  20  25
ENDBRANCH  18  19
BRANCH  18  31
HETATM   31  C   UNL     1      -8.864  12.778  67.628  1.00  0.00    -0.189 C  
HETATM   32  C   UNL     1      -8.758  15.160  66.642  1.00  0.00    -0.308 C  
HETATM   33  C   UNL     1      -8.186  14.163  67.652  1.00  0.00    -0.193 C  
HETATM   34  C   UNL     1      -6.694  13.983  67.348  1.00  0.00     0.014 C  
ENDBRANCH  18  31
ENDBRANCH  16  18
ENDBRANCH  13  14
ENDBRANCH  11  13
ENDBRANCH   3   4
ENDBRANCH   2   3
TORSDOF 8
ENDMDL
MODEL      319
REMARK 921   NORMALIZED FREE ENERGY PREDICTED BY IDOCK:    1.18 KCAL/MOL
REMARK 922        TOTAL FREE ENERGY PREDICTED BY IDOCK:   -0.66 KCAL/MOL
REMARK 923 INTER-LIGAND FREE ENERGY PREDICTED BY IDOCK:   -3.09 KCAL/MOL
REMARK 924 INTRA-LIGAND FREE ENERGY PREDICTED BY IDOCK:    2.43 KCAL/MOL
REMARK 927      BINDING AFFINITY PREDICTED BY RF-SCORE:    0.00 PKD
ROOT
HETATM    1  C   UNL     1      -7.982  14.697  69.035  1.00  0.00    -0.122 C  
HETATM    2  C   UNL     1      -7.259  13.829  68.030  1.00  0.00    -0.137 C  
ENDROOT
BRANCH   2   3
HETATM    3  O   UNL     1      -7.740  14.138  66.706  1.00  0.00     0.209 OA 
BRANCH   3   4
HETATM    4  C   UNL     1      -8.515  13.159  66.136  1.00  0.00     0.839 A  
HETATM    5  C   UNL     1      -9.752  13.511  65.574  1.00  0.00    -0.072 A  
HETATM    6  C   UNL     1     -10.577  12.498  65.052  1.00  0.00    -0.329 A  
HETATM    7  C   UNL     1     -10.294  14.909  65.508  1.00  0.00    -0.365 C  
HETATM    8  C   UNL     1     -10.182  11.163  65.083  1.00  0.00    -0.347 A  
HETATM    9  O   UNL     1     -11.419  15.161  65.093  1.00  0.00    -0.352 OA 
HETATM   10  O   UNL     1      -9.448  15.872  65.911  1.00  0.00    -0.328 OA 
HETATM   11  C   UNL     1      -8.939  10.810  65.617  1.00  0.00    -0.205 A  
HETATM   12  C   UNL     1      -8.100  11.818  66.102  1.00  0.00     0.206 A  
BRANCH  11  13
HETATM   13  C   UNL     1      -8.495   9.371  65.675  1.00  0.00    -0.145 C  
BRANCH  13  14
HETATM   14  C   UNL     1      -8.017   8.945  67.049  1.00  0.00    -0.102 C  
HETATM   15  O   UNL     1      -7.832   9.786  67.928  1.00  0.00    -0.090 OA 
HETATM   16  N   UNL     1      -7.834   7.584  67.230  1.00  0.00    -0.115 N  
HETATM   17  H   UNL     1      -7.956   6.954  66.438  1.00  0.00     0.000 HD 
BRANCH  16  18
HETATM   18  C   UNL     1      -7.465   7.029  68.545  1.00  0.00    -0.102 C  
BRANCH  18  19
HETATM   19  C   UNL     1      -7.527   5.497  68.679  1.00  0.00    -0.076 A  
HETATM   20  C   UNL     1      -7.388   4.796  69.925  1.00  0.00    -0.055 A  
HETATM   21  C   UNL     1      -7.615   3.393  69.879  1.00  0.00    -0.044 A  
HETATM   22  C   UNL     1      -7.905   4.761  67.519  1.00  0.00    -0.094 A  
HETATM   23  C   UNL     1      -7.995   2.700  68.729  1.00  0.00    -0.062 A  
HETATM   24  C   UNL     1      -8.139   3.386  67.542  1.00  0.00    -0.081 A  
BRANCH  20  25
HETATM   25  N   UNL     1      -7.044   5.335  71.170  1.00  0.00    -0.059 NA 
HETATM   26  C   UNL     1      -7.929   5.146  72.341  1.00  0.00    -0.102 C  
HETATM   27  C   UNL     1      -7.088   4.712  73.547  1.00  0.00    -0.072 C  
HETATM   28  C   UNL     1      -6.018   5.751  73.862  1.00  0.00    -0.061 C  
HETATM   29  C   UNL     1      -5.169   6.019  72.633  1.00  0.00    -0.026 C  
HETATM   30  C   UNL     1      -6.005   6.338  71.401  1.00  0.00    -0.032 C  
ENDBRANCH  20  25
ENDBRANCH  18  19
BRANCH  18  31
HETATM   31  C   UNL     1      -8.281   7.658  69.692  1.00  0.00    -0.128 C  
HETATM   32  C   UNL     1     -10.483   6.365  69.326  1.00  0.00    -0.277 C  
HETATM   33  C   UNL     1      -9.386   6.777  70.309  1.00  0.00    -0.159 C  
HETATM   34  C   UNL     1     -10.044   7.549  71.458  1.00  0.00    -0.201 C  
ENDBRANCH  18  31
ENDBRANCH  16  18
ENDBRANCH  13  14
ENDBRANCH  11  13
ENDBRANCH   3   4
ENDBRANCH   2   3
TORSDOF 8
ENDMDL
MODEL      320
REMARK 921   NORMALIZED FREE ENERGY PREDICTED BY IDOCK:    1.44 KCAL/MOL
REMARK 922        TOTAL FREE ENERGY PREDICTED BY IDOCK:   -0.28 KCAL/MOL
REMARK 923 INTER-LIGAND FREE ENERGY PREDICTED BY IDOCK:   -4.43 KCAL/MOL
REMARK 924 INTRA-LIGAND FREE ENERGY PREDICTED BY IDOCK:    4.15 KCAL/MOL
REMARK 927      BINDING AFFINITY PREDICTED BY RF-SCORE:    0.00 PKD
ROOT
HETATM    1  C   UNL     1     -12.266  14.566  64.047  1.00  0.00    -0.262 C  
HETATM    2  C   UNL     1     -12.528  13.401  63.119  1.00  0.00     0.110 C  
ENDROOT
BRANCH   2   3
HETATM    3  O   UNL     1     -12.713  12.205  63.903  1.00  0.00    -0.624 OA 
BRANCH   3   4
HETATM    4  C   UNL     1     -11.689  11.927  64.774  1.00  0.00    -0.212 A  
HETATM    5  C   UNL     1     -11.653  12.585  66.013  1.00  0.00    -0.456 A  
HETATM    6  C   UNL     1     -10.567  12.352  66.878  1.00  0.00    -0.251 A  
HETATM    7  C   UNL     1     -12.686  13.562  66.493  1.00  0.00     0.078 C  
HETATM    8  C   UNL     1      -9.540  11.481  66.521  1.00  0.00    -0.225 A  
HETATM    9  O   UNL     1     -12.567  14.184  67.542  1.00  0.00    -0.018 OA 
HETATM   10  O   UNL     1     -13.766  13.688  65.705  1.00  0.00    -0.164 OA 
HETATM   11  C   UNL     1      -9.586  10.802  65.300  1.00  0.00    -0.278 A  
HETATM   12  C   UNL     1     -10.682  11.002  64.455  1.00  0.00    -0.335 A  
BRANCH  11  13
HETATM   13  C   UNL     1      -8.479   9.866  64.887  1.00  0.00    -0.168 C  
BRANCH  13  14
HETATM   14  C   UNL     1      -8.054   8.916  65.989  1.00  0.00    -0.111 C  
HETATM   15  O   UNL     1      -8.213   9.227  67.169  1.00  0.00    -0.115 OA 
HETATM   16  N   UNL     1      -7.514   7.711  65.573  1.00  0.00    -0.074 N  
HETATM   17  H   UNL     1      -7.365   7.547  64.578  1.00  0.00     0.000 HD 
BRANCH  16  18
HETATM   18  C   UNL     1      -7.150   6.659  66.540  1.00  0.00    -0.068 C  
BRANCH  18  19
HETATM   19  C   UNL     1      -6.681   7.140  67.925  1.00  0.00    -0.061 A  
HETATM   20  C   UNL     1      -6.993   6.466  69.154  1.00  0.00    -0.068 A  
HETATM   21  C   UNL     1      -6.356   6.971  70.321  1.00  0.00    -0.038 A  
HETATM   22  C   UNL     1      -5.752   8.220  67.954  1.00  0.00    -0.039 A  
HETATM   23  C   UNL     1      -5.442   8.026  70.318  1.00  0.00    -0.023 A  
HETATM   24  C   UNL     1      -5.140   8.655  69.130  1.00  0.00    -0.035 A  
BRANCH  20  25
HETATM   25  N   UNL     1      -7.859   5.382  69.333  1.00  0.00    -0.088 NA 
HETATM   26  C   UNL     1      -7.364   3.993  69.197  1.00  0.00    -0.054 C  
HETATM   27  C   UNL     1      -7.871   3.157  70.378  1.00  0.00    -0.046 C  
HETATM   28  C   UNL     1      -9.394   3.165  70.432  1.00  0.00    -0.232 C  
HETATM   29  C   UNL     1      -9.909   4.592  70.473  1.00  0.00    -0.297 C  
HETATM   30  C   UNL     1      -9.319   5.461  69.370  1.00  0.00    -0.124 C  
ENDBRANCH  20  25
ENDBRANCH  18  19
BRANCH  18  31
HETATM   31  C   UNL     1      -6.099   5.685  65.972  1.00  0.00    -0.029 C  
HETATM   32  C   UNL     1      -7.664   4.299  64.462  1.00  0.00    -0.081 C  
HETATM   33  C   UNL     1      -6.378   5.122  64.564  1.00  0.00    -0.034 C  
HETATM   34  C   UNL     1      -5.206   4.223  64.155  1.00  0.00    -0.012 C  
ENDBRANCH  18  31
ENDBRANCH  16  18
ENDBRANCH  13  14
ENDBRANCH  11  13
ENDBRANCH   3   4
ENDBRANCH   2   3
TORSDOF 8
ENDMDL
MODEL      321
REMARK 921   NORMALIZED FREE ENERGY PREDICTED BY IDOCK:    1.75 KCAL/MOL
REMARK 922        TOTAL FREE ENERGY PREDICTED BY IDOCK:    0.17 KCAL/MOL
REMARK 923 INTER-LIGAND FREE ENERGY PREDICTED BY IDOCK:   -4.56 KCAL/MOL
REMARK 924 INTRA-LIGAND FREE ENERGY PREDICTED BY IDOCK:    4.73 KCAL/MOL
REMARK 927      BINDING AFFINITY PREDICTED BY RF-SCORE:    0.00 PKD
ROOT
HETATM    1  C   UNL     1      -8.009   2.695  65.844  1.00  0.00    -0.082 C  
HETATM    2  C   UNL     1      -7.550   3.726  64.837  1.00  0.00    -0.077 C  
ENDROOT
BRANCH   2   3
HETATM    3  O   UNL     1      -6.917   4.818  65.533  1.00  0.00    -0.060 OA 
BRANCH   3   4
HETATM    4  C   UNL     1      -7.402   6.061  65.210  1.00  0.00    -0.076 A  
HETATM    5  C   UNL     1      -6.806   6.770  64.155  1.00  0.00    -0.050 A  
HETATM    6  C   UNL     1      -7.258   8.072  63.868  1.00  0.00    -0.092 A  
HETATM    7  C   UNL     1      -5.682   6.255  63.305  1.00  0.00    -0.022 C  
HETATM    8  C   UNL     1      -8.282   8.656  64.610  1.00  0.00    -0.167 A  
HETATM    9  O   UNL     1      -5.130   6.943  62.455  1.00  0.00    -0.029 OA 
HETATM   10  O   UNL     1      -5.340   4.974  63.522  1.00  0.00    -0.009 OA 
HETATM   11  C   UNL     1      -8.896   7.943  65.644  1.00  0.00    -0.121 A  
HETATM   12  C   UNL     1      -8.476   6.636  65.907  1.00  0.00    -0.145 A  
BRANCH  11  13
HETATM   13  C   UNL     1      -9.996   8.560  66.470  1.00  0.00    -0.350 C  
BRANCH  13  14
HETATM   14  C   UNL     1      -9.790  10.039  66.734  1.00  0.00    -0.198 C  
HETATM   15  O   UNL     1     -10.116  10.870  65.887  1.00  0.00    -0.234 OA 
HETATM   16  N   UNL     1      -9.246  10.364  67.965  1.00  0.00    -0.138 N  
HETATM   17  H   UNL     1      -8.952   9.616  68.594  1.00  0.00     0.000 HD 
BRANCH  16  18
HETATM   18  C   UNL     1      -9.085  11.767  68.386  1.00  0.00    -0.176 C  
BRANCH  18  19
HETATM   19  C   UNL     1     -10.176  12.748  67.921  1.00  0.00    -0.229 A  
HETATM   20  C   UNL     1      -9.912  14.093  67.493  1.00  0.00    -0.236 A  
HETATM   21  C   UNL     1     -11.022  14.807  66.962  1.00  0.00    -0.324 A  
HETATM   22  C   UNL     1     -11.490  12.223  67.756  1.00  0.00    -0.392 A  
HETATM   23  C   UNL     1     -12.297  14.263  66.803  1.00  0.00    -0.280 A  
HETATM   24  C   UNL     1     -12.534  12.966  67.204  1.00  0.00     0.390 A  
BRANCH  20  25
HETATM   25  N   UNL     1      -8.695  14.782  67.553  1.00  0.00    -0.176 NA 
HETATM   26  C   UNL     1      -8.323  15.743  66.490  1.00  0.00    -0.278 C  
HETATM   27  C   UNL     1      -7.805  17.034  67.134  1.00  0.00    -0.203 C  
HETATM   28  C   UNL     1      -6.603  16.750  68.027  1.00  0.00    -0.148 C  
HETATM   29  C   UNL     1      -6.953  15.692  69.056  1.00  0.00    -0.145 C  
HETATM   30  C   UNL     1      -7.576  14.450  68.434  1.00  0.00    -0.122 C  
ENDBRANCH  20  25
ENDBRANCH  18  19
BRANCH  18  31
HETATM   31  C   UNL     1      -7.708  12.338  67.994  1.00  0.00    -0.132 C  
HETATM   32  C   UNL     1      -6.346  11.391  69.971  1.00  0.00    -0.132 C  
HETATM   33  C   UNL     1      -6.477  11.529  68.452  1.00  0.00    -0.051 C  
HETATM   34  C   UNL     1      -5.213  12.220  67.928  1.00  0.00    -0.073 C  
ENDBRANCH  18  31
ENDBRANCH  16  18
ENDBRANCH  13  14
ENDBRANCH  11  13
ENDBRANCH   3   4
ENDBRANCH   2   3
TORSDOF 8
ENDMDL
MODEL      322
REMARK 921   NORMALIZED FREE ENERGY PREDICTED BY IDOCK:    2.28 KCAL/MOL
REMARK 922        TOTAL FREE ENERGY PREDICTED BY IDOCK:    0.95 KCAL/MOL
REMARK 923 INTER-LIGAND FREE ENERGY PREDICTED BY IDOCK:   -3.52 KCAL/MOL
REMARK 924 INTRA-LIGAND FREE ENERGY PREDICTED BY IDOCK:    4.47 KCAL/MOL
REMARK 927      BINDING AFFINITY PREDICTED BY RF-SCORE:    0.00 PKD
ROOT
HETATM    1  C   UNL     1     -11.983  13.564  63.286  1.00  0.00    -0.182 C  
HETATM    2  C   UNL     1     -12.257  12.180  62.744  1.00  0.00     0.626 C  
ENDROOT
BRANCH   2   3
HETATM    3  O   UNL     1     -12.539  11.289  63.843  1.00  0.00     0.244 OA 
BRANCH   3   4
HETATM    4  C   UNL     1     -11.606  11.310  64.850  1.00  0.00     0.246 A  
HETATM    5  C   UNL     1     -11.635  12.359  65.783  1.00  0.00    -0.449 A  
HETATM    6  C   UNL     1     -10.638  12.418  66.774  1.00  0.00    -0.250 A  
HETATM    7  C   UNL     1     -12.650  13.465  65.795  1.00  0.00    -0.393 C  
HETATM    8  C   UNL     1      -9.634  11.455  66.840  1.00  0.00    -0.203 A  
HETATM    9  O   UNL     1     -12.584  14.410  66.570  1.00  0.00    -0.301 OA 
HETATM   10  O   UNL     1     -13.654  13.331  64.912  1.00  0.00    -0.005 OA 
HETATM   11  C   UNL     1      -9.616  10.393  65.930  1.00  0.00    -0.258 A  
HETATM   12  C   UNL     1     -10.628  10.310  64.968  1.00  0.00     0.127 A  
BRANCH  11  13
HETATM   13  C   UNL     1      -8.532   9.348  65.973  1.00  0.00    -0.132 C  
BRANCH  13  14
HETATM   14  C   UNL     1      -8.304   8.777  67.360  1.00  0.00    -0.109 C  
HETATM   15  O   UNL     1      -8.499   9.473  68.355  1.00  0.00    -0.117 OA 
HETATM   16  N   UNL     1      -7.894   7.455  67.409  1.00  0.00    -0.110 N  
HETATM   17  H   UNL     1      -7.702   6.959  66.539  1.00  0.00     0.000 HD 
BRANCH  16  18
HETATM   18  C   UNL     1      -7.731   6.750  68.693  1.00  0.00    -0.113 C  
BRANCH  18  19
HETATM   19  C   UNL     1      -7.140   7.574  69.851  1.00  0.00    -0.064 A  
HETATM   20  C   UNL     1      -7.621   7.513  71.203  1.00  0.00    -0.081 A  
HETATM   21  C   UNL     1      -6.863   8.233  72.168  1.00  0.00    -0.089 A  
HETATM   22  C   UNL     1      -5.948   8.307  69.582  1.00  0.00    -0.029 A  
HETATM   23  C   UNL     1      -5.693   8.935  71.876  1.00  0.00    -0.062 A  
HETATM   24  C   UNL     1      -5.234   8.975  70.577  1.00  0.00    -0.020 A  
BRANCH  20  25
HETATM   25  N   UNL     1      -8.753   6.837  71.674  1.00  0.00    -0.126 NA 
HETATM   26  C   UNL     1      -9.163   6.954  73.092  1.00  0.00    -0.134 C  
HETATM   27  C   UNL     1     -10.670   7.224  73.163  1.00  0.00    -0.411 C  
HETATM   28  C   UNL     1     -11.452   6.106  72.482  1.00  0.00    -0.318 C  
HETATM   29  C   UNL     1     -10.966   5.918  71.058  1.00  0.00    -0.335 C  
HETATM   30  C   UNL     1      -9.454   5.765  70.968  1.00  0.00    -0.165 C  
ENDBRANCH  20  25
ENDBRANCH  18  19
BRANCH  18  31
HETATM   31  C   UNL     1      -6.915   5.451  68.544  1.00  0.00    -0.061 C  
HETATM   32  C   UNL     1      -8.854   3.876  67.898  1.00  0.00    -0.133 C  
HETATM   33  C   UNL     1      -7.464   4.410  67.547  1.00  0.00    -0.073 C  
HETATM   34  C   UNL     1      -6.498   3.221  67.499  1.00  0.00    -0.037 C  
ENDBRANCH  18  31
ENDBRANCH  16  18
ENDBRANCH  13  14
ENDBRANCH  11  13
ENDBRANCH   3   4
ENDBRANCH   2   3
TORSDOF 8
ENDMDL
MODEL      323
REMARK 921   NORMALIZED FREE ENERGY PREDICTED BY IDOCK:    2.57 KCAL/MOL
REMARK 922        TOTAL FREE ENERGY PREDICTED BY IDOCK:    1.38 KCAL/MOL
REMARK 923 INTER-LIGAND FREE ENERGY PREDICTED BY IDOCK:   -2.05 KCAL/MOL
REMARK 924 INTRA-LIGAND FREE ENERGY PREDICTED BY IDOCK:    3.43 KCAL/MOL
REMARK 927      BINDING AFFINITY PREDICTED BY RF-SCORE:    0.00 PKD
ROOT
HETATM    1  C   UNL     1     -11.863  16.319  71.100  1.00  0.00    -0.298 C  
HETATM    2  C   UNL     1     -10.669  16.111  70.196  1.00  0.00    -0.289 C  
ENDROOT
BRANCH   2   3
HETATM    3  O   UNL     1     -10.660  17.136  69.182  1.00  0.00    -0.324 OA 
BRANCH   3   4
HETATM    4  C   UNL     1      -9.598  17.073  68.314  1.00  0.00    -0.273 A  
HETATM    5  C   UNL     1      -9.299  18.193  67.521  1.00  0.00    -0.258 A  
HETATM    6  C   UNL     1      -8.254  18.105  66.583  1.00  0.00    -0.283 A  
HETATM    7  C   UNL     1     -10.038  19.498  67.572  1.00  0.00    -0.406 C  
HETATM    8  C   UNL     1      -7.518  16.932  66.437  1.00  0.00    -0.323 A  
HETATM    9  O   UNL     1      -9.804  20.418  66.798  1.00  0.00    -0.441 OA 
HETATM   10  O   UNL     1     -10.958  19.599  68.547  1.00  0.00     0.186 OA 
HETATM   11  C   UNL     1      -7.794  15.823  67.243  1.00  0.00    -0.226 A  
HETATM   12  C   UNL     1      -8.806  15.920  68.203  1.00  0.00    -0.176 A  
BRANCH  11  13
HETATM   13  C   UNL     1      -7.020  14.539  67.092  1.00  0.00     0.278 C  
BRANCH  13  14
HETATM   14  C   UNL     1      -6.474  14.010  68.404  1.00  0.00    -0.103 C  
HETATM   15  O   UNL     1      -6.478  14.721  69.408  1.00  0.00    -0.111 OA 
HETATM   16  N   UNL     1      -6.009  12.706  68.384  1.00  0.00    -0.056 N  
HETATM   17  H   UNL     1      -5.989  12.197  67.500  1.00  0.00     0.000 HD 
BRANCH  16  18
HETATM   18  C   UNL     1      -5.542  12.038  69.612  1.00  0.00    -0.086 C  
BRANCH  18  19
HETATM   19  C   UNL     1      -6.021  10.591  69.826  1.00  0.00    -0.057 A  
HETATM   20  C   UNL     1      -7.216  10.050  69.241  1.00  0.00    -0.078 A  
HETATM   21  C   UNL     1      -7.426   8.656  69.430  1.00  0.00    -0.080 A  
HETATM   22  C   UNL     1      -5.135   9.710  70.510  1.00  0.00    -0.032 A  
HETATM   23  C   UNL     1      -6.533   7.815  70.096  1.00  0.00    -0.034 A  
HETATM   24  C   UNL     1      -5.384   8.344  70.641  1.00  0.00    -0.024 A  
BRANCH  20  25
HETATM   25  N   UNL     1      -8.198  10.739  68.520  1.00  0.00    -0.128 NA 
HETATM   26  C   UNL     1      -9.167  11.614  69.217  1.00  0.00     0.506 C  
HETATM   27  C   UNL     1      -9.269  12.950  68.474  1.00  0.00    -0.062 C  
HETATM   28  C   UNL     1      -9.706  12.733  67.029  1.00  0.00    -0.224 C  
HETATM   29  C   UNL     1      -8.770  11.759  66.339  1.00  0.00    -0.147 C  
HETATM   30  C   UNL     1      -8.572  10.473  67.131  1.00  0.00    -0.127 C  
ENDBRANCH  20  25
ENDBRANCH  18  19
BRANCH  18  31
HETATM   31  C   UNL     1      -5.864  12.857  70.878  1.00  0.00    -0.008 C  
HETATM   32  C   UNL     1      -5.538  10.981  72.619  1.00  0.00     1.042 C  
HETATM   33  C   UNL     1      -5.176  12.402  72.181  1.00  0.00     0.223 C  
HETATM   34  C   UNL     1      -5.575  13.362  73.307  1.00  0.00     0.372 C  
ENDBRANCH  18  31
ENDBRANCH  16  18
ENDBRANCH  13  14
ENDBRANCH  11  13
ENDBRANCH   3   4
ENDBRANCH   2   3
TORSDOF 8
ENDMDL
MODEL      324
REMARK 921   NORMALIZED FREE ENERGY PREDICTED BY IDOCK:    3.74 KCAL/MOL
REMARK 922        TOTAL FREE ENERGY PREDICTED BY IDOCK:    3.09 KCAL/MOL
REMARK 923 INTER-LIGAND FREE ENERGY PREDICTED BY IDOCK:   -3.10 KCAL/MOL
REMARK 924 INTRA-LIGAND FREE ENERGY PREDICTED BY IDOCK:    6.20 KCAL/MOL
REMARK 927      BINDING AFFINITY PREDICTED BY RF-SCORE:    0.00 PKD
ROOT
HETATM    1  C   UNL     1     -11.384  14.963  70.399  1.00  0.00    -0.287 C  
HETATM    2  C   UNL     1      -9.944  14.504  70.466  1.00  0.00     1.303 C  
ENDROOT
BRANCH   2   3
HETATM    3  O   UNL     1      -9.520  14.085  69.153  1.00  0.00     0.035 OA 
BRANCH   3   4
HETATM    4  C   UNL     1     -10.246  13.047  68.622  1.00  0.00    -0.164 A  
HETATM    5  C   UNL     1     -10.968  13.259  67.437  1.00  0.00    -0.287 A  
HETATM    6  C   UNL     1     -11.766  12.216  66.929  1.00  0.00    -0.374 A  
HETATM    7  C   UNL     1     -10.983  14.544  66.662  1.00  0.00    -0.321 C  
HETATM    8  C   UNL     1     -11.843  10.989  67.583  1.00  0.00     0.078 A  
HETATM    9  O   UNL     1     -11.700  14.715  65.684  1.00  0.00    -0.347 OA 
HETATM   10  O   UNL     1     -10.132  15.487  67.100  1.00  0.00    -0.246 OA 
HETATM   11  C   UNL     1     -11.104  10.764  68.748  1.00  0.00    -0.312 A  
HETATM   12  C   UNL     1     -10.280  11.784  69.234  1.00  0.00     0.153 A  
BRANCH  11  13
HETATM   13  C   UNL     1     -11.183   9.449  69.480  1.00  0.00    -0.059 C  
BRANCH  13  14
HETATM   14  C   UNL     1      -9.952   8.584  69.294  1.00  0.00    -0.195 C  
HETATM   15  O   UNL     1      -8.929   8.818  69.936  1.00  0.00    -0.143 OA 
HETATM   16  N   UNL     1     -10.077   7.539  68.394  1.00  0.00    -0.175 N  
HETATM   17  H   UNL     1     -10.941   7.442  67.860  1.00  0.00     0.000 HD 
BRANCH  16  18
HETATM   18  C   UNL     1      -8.989   6.566  68.192  1.00  0.00    -0.116 C  
BRANCH  18  19
HETATM   19  C   UNL     1      -8.824   6.014  66.765  1.00  0.00    -0.120 A  
HETATM   20  C   UNL     1      -7.818   6.465  65.844  1.00  0.00    -0.102 A  
HETATM   21  C   UNL     1      -7.724   5.743  64.622  1.00  0.00    -0.098 A  
HETATM   22  C   UNL     1      -9.617   4.884  66.413  1.00  0.00    -0.177 A  
HETATM   23  C   UNL     1      -8.508   4.632  64.309  1.00  0.00    -0.131 A  
HETATM   24  C   UNL     1      -9.460   4.201  65.206  1.00  0.00    -0.173 A  
BRANCH  20  25
HETATM   25  N   UNL     1      -6.933   7.536  66.009  1.00  0.00    -0.060 NA 
HETATM   26  C   UNL     1      -5.586   7.500  65.396  1.00  0.00    -0.033 C  
HETATM   27  C   UNL     1      -5.312   8.834  64.694  1.00  0.00    -0.043 C  
HETATM   28  C   UNL     1      -5.407   9.994  65.679  1.00  0.00    -0.055 C  
HETATM   29  C   UNL     1      -6.752   9.976  66.381  1.00  0.00    -0.088 C  
HETATM   30  C   UNL     1      -7.083   8.617  66.983  1.00  0.00    -0.075 C  
ENDBRANCH  20  25
ENDBRANCH  18  19
BRANCH  18  31
HETATM   31  C   UNL     1      -9.080   5.380  69.173  1.00  0.00    -0.131 C  
HETATM   32  C   UNL     1      -9.785   3.563  67.482  1.00  0.00    -0.067 C  
HETATM   33  C   UNL     1      -8.807   3.982  68.582  1.00  0.00    -0.146 C  
HETATM   34  C   UNL     1      -8.891   2.948  69.710  1.00  0.00    -0.147 C  
ENDBRANCH  18  31
ENDBRANCH  16  18
ENDBRANCH  13  14
ENDBRANCH  11  13
ENDBRANCH   3   4
ENDBRANCH   2   3
TORSDOF 8
ENDMDL
MODEL      325
REMARK 921   NORMALIZED FREE ENERGY PREDICTED BY IDOCK:    3.94 KCAL/MOL
REMARK 922        TOTAL FREE ENERGY PREDICTED BY IDOCK:    3.38 KCAL/MOL
REMARK 923 INTER-LIGAND FREE ENERGY PREDICTED BY IDOCK:   -0.91 KCAL/MOL
REMARK 924 INTRA-LIGAND FREE ENERGY PREDICTED BY IDOCK:    4.29 KCAL/MOL
REMARK 927      BINDING AFFINITY PREDICTED BY RF-SCORE:    0.00 PKD
ROOT
HETATM    1  C   UNL     1      -8.351  16.065  67.272  1.00  0.00    -0.205 C  
HETATM    2  C   UNL     1      -8.567  14.574  67.393  1.00  0.00    -0.201 C  
ENDROOT
BRANCH   2   3
HETATM    3  O   UNL     1      -9.931  14.264  67.038  1.00  0.00    -0.250 OA 
BRANCH   3   4
HETATM    4  C   UNL     1     -10.277  12.945  67.197  1.00  0.00    -0.239 A  
HETATM    5  C   UNL     1     -11.491  12.632  67.830  1.00  0.00    -0.360 A  
HETATM    6  C   UNL     1     -11.814  11.281  68.054  1.00  0.00    -0.244 A  
HETATM    7  C   UNL     1     -12.483  13.643  68.325  1.00  0.00     0.335 C  
HETATM    8  C   UNL     1     -10.953  10.261  67.656  1.00  0.00    -0.356 A  
HETATM    9  O   UNL     1     -13.485  13.329  68.955  1.00  0.00     2.777 OA 
HETATM   10  O   UNL     1     -12.209  14.919  68.005  1.00  0.00    -0.168 OA 
HETATM   11  C   UNL     1      -9.756  10.567  67.001  1.00  0.00    -0.212 A  
HETATM   12  C   UNL     1      -9.450  11.906  66.742  1.00  0.00    -0.207 A  
BRANCH  11  13
HETATM   13  C   UNL     1      -8.802   9.481  66.573  1.00  0.00    -0.156 C  
BRANCH  13  14
HETATM   14  C   UNL     1      -8.382   8.570  67.710  1.00  0.00    -0.130 C  
HETATM   15  O   UNL     1      -9.216   7.867  68.280  1.00  0.00    -0.138 OA 
HETATM   16  N   UNL     1      -7.034   8.579  68.026  1.00  0.00    -0.073 N  
HETATM   17  H   UNL     1      -6.413   9.229  67.544  1.00  0.00     0.000 HD 
BRANCH  16  18
HETATM   18  C   UNL     1      -6.479   7.669  69.044  1.00  0.00    -0.040 C  
BRANCH  18  19
HETATM   19  C   UNL     1      -7.284   6.388  69.325  1.00  0.00    -0.090 A  
HETATM   20  C   UNL     1      -7.485   5.342  68.362  1.00  0.00    -0.073 A  
HETATM   21  C   UNL     1      -8.133   4.170  68.840  1.00  0.00    -0.074 A  
HETATM   22  C   UNL     1      -7.708   6.172  70.668  1.00  0.00    -0.105 A  
HETATM   23  C   UNL     1      -8.527   3.981  70.166  1.00  0.00    -0.093 A  
HETATM   24  C   UNL     1      -8.317   4.987  71.084  1.00  0.00    -0.115 A  
BRANCH  20  25
HETATM   25  N   UNL     1      -7.128   5.352  67.008  1.00  0.00    -0.068 NA 
HETATM   26  C   UNL     1      -6.182   6.364  66.488  1.00  0.00    -0.037 C  
HETATM   27  C   UNL     1      -5.133   5.674  65.608  1.00  0.00    -0.009 C  
HETATM   28  C   UNL     1      -5.798   4.935  64.452  1.00  0.00    -0.017 C  
HETATM   29  C   UNL     1      -6.839   3.966  64.979  1.00  0.00    -0.049 C  
HETATM   30  C   UNL     1      -7.817   4.621  65.945  1.00  0.00    -0.095 C  
ENDBRANCH  20  25
ENDBRANCH  18  19
BRANCH  18  31
HETATM   31  C   UNL     1      -6.210   8.387  70.381  1.00  0.00    -0.035 C  
HETATM   32  C   UNL     1      -8.661   8.743  71.103  1.00  0.00    -0.265 C  
HETATM   33  C   UNL     1      -7.278   8.209  71.480  1.00  0.00    -0.077 C  
HETATM   34  C   UNL     1      -6.812   8.946  72.740  1.00  0.00     0.159 C  
ENDBRANCH  18  31
ENDBRANCH  16  18
ENDBRANCH  13  14
ENDBRANCH  11  13
ENDBRANCH   3   4
ENDBRANCH   2   3
TORSDOF 8
ENDMDL
MODEL      326
REMARK 921   NORMALIZED FREE ENERGY PREDICTED BY IDOCK:    4.04 KCAL/MOL
REMARK 922        TOTAL FREE ENERGY PREDICTED BY IDOCK:    3.53 KCAL/MOL
REMARK 923 INTER-LIGAND FREE ENERGY PREDICTED BY IDOCK:   -1.58 KCAL/MOL
REMARK 924 INTRA-LIGAND FREE ENERGY PREDICTED BY IDOCK:    5.11 KCAL/MOL
REMARK 927      BINDING AFFINITY PREDICTED BY RF-SCORE:    0.00 PKD
ROOT
HETATM    1  C   UNL     1     -11.361   4.254  63.581  1.00  0.00     0.816 C  
HETATM    2  C   UNL     1     -10.510   3.995  64.804  1.00  0.00    -0.177 C  
ENDROOT
BRANCH   2   3
HETATM    3  O   UNL     1      -9.612   5.107  64.999  1.00  0.00     0.000 OA 
BRANCH   3   4
HETATM    4  C   UNL     1      -8.296   4.755  65.175  1.00  0.00    -0.129 A  
HETATM    5  C   UNL     1      -7.844   3.532  64.656  1.00  0.00    -0.085 A  
HETATM    6  C   UNL     1      -6.513   3.140  64.896  1.00  0.00    -0.035 A  
HETATM    7  C   UNL     1      -8.688   2.571  63.872  1.00  0.00    -0.086 C  
HETATM    8  C   UNL     1      -5.649   3.947  65.632  1.00  0.00    -0.017 A  
HETATM    9  O   UNL     1      -8.279   1.472  63.517  1.00  0.00    -0.060 OA 
HETATM   10  O   UNL     1      -9.919   3.011  63.561  1.00  0.00    -0.126 OA 
HETATM   11  C   UNL     1      -6.088   5.178  66.128  1.00  0.00    -0.030 A  
HETATM   12  C   UNL     1      -7.397   5.588  65.859  1.00  0.00    -0.077 A  
BRANCH  11  13
HETATM   13  C   UNL     1      -5.175   6.061  66.941  1.00  0.00    -0.005 C  
BRANCH  13  14
HETATM   14  C   UNL     1      -5.916   7.111  67.745  1.00  0.00    -0.033 C  
HETATM   15  O   UNL     1      -6.079   8.241  67.286  1.00  0.00    -0.052 OA 
HETATM   16  N   UNL     1      -6.393   6.702  68.979  1.00  0.00    -0.034 N  
HETATM   17  H   UNL     1      -6.173   5.765  69.314  1.00  0.00     0.000 HD 
BRANCH  16  18
HETATM   18  C   UNL     1      -7.213   7.595  69.818  1.00  0.00    -0.079 C  
BRANCH  18  19
HETATM   19  C   UNL     1      -7.075   7.415  71.340  1.00  0.00    -0.063 A  
HETATM   20  C   UNL     1      -6.968   6.138  71.989  1.00  0.00    -0.078 A  
HETATM   21  C   UNL     1      -6.703   6.169  73.386  1.00  0.00    -0.075 A  
HETATM   22  C   UNL     1      -6.882   8.594  72.117  1.00  0.00    -0.069 A  
HETATM   23  C   UNL     1      -6.508   7.340  74.119  1.00  0.00    -0.077 A  
HETATM   24  C   UNL     1      -6.600   8.559  73.482  1.00  0.00    -0.097 A  
BRANCH  20  25
HETATM   25  N   UNL     1      -7.106   4.873  71.405  1.00  0.00    -0.054 NA 
HETATM   26  C   UNL     1      -8.217   3.979  71.803  1.00  0.00    -0.090 C  
HETATM   27  C   UNL     1      -8.876   3.399  70.547  1.00  0.00    -0.145 C  
HETATM   28  C   UNL     1      -7.860   2.631  69.708  1.00  0.00    -0.049 C  
HETATM   29  C   UNL     1      -6.673   3.517  69.381  1.00  0.00    -0.037 C  
HETATM   30  C   UNL     1      -6.083   4.189  70.614  1.00  0.00    -0.018 C  
ENDBRANCH  20  25
ENDBRANCH  18  19
BRANCH  18  31
HETATM   31  C   UNL     1      -8.708   7.532  69.447  1.00  0.00    -0.137 C  
HETATM   32  C   UNL     1      -9.047  10.026  68.879  1.00  0.00    -0.159 C  
HETATM   33  C   UNL     1      -9.202   8.574  68.422  1.00  0.00    -0.135 C  
HETATM   34  C   UNL     1     -10.688   8.320  68.144  1.00  0.00    -0.093 C  
ENDBRANCH  18  31
ENDBRANCH  16  18
ENDBRANCH  13  14
ENDBRANCH  11  13
ENDBRANCH   3   4
ENDBRANCH   2   3
TORSDOF 8
ENDMDL
MODEL      327
REMARK 921   NORMALIZED FREE ENERGY PREDICTED BY IDOCK:    4.20 KCAL/MOL
REMARK 922        TOTAL FREE ENERGY PREDICTED BY IDOCK:    3.78 KCAL/MOL
REMARK 923 INTER-LIGAND FREE ENERGY PREDICTED BY IDOCK:   -1.86 KCAL/MOL
REMARK 924 INTRA-LIGAND FREE ENERGY PREDICTED BY IDOCK:    5.63 KCAL/MOL
REMARK 927      BINDING AFFINITY PREDICTED BY RF-SCORE:    0.00 PKD
ROOT
HETATM    1  C   UNL     1      -8.015   2.976  65.789  1.00  0.00    -0.086 C  
HETATM    2  C   UNL     1      -7.646   4.193  64.971  1.00  0.00    -0.077 C  
ENDROOT
BRANCH   2   3
HETATM    3  O   UNL     1      -7.379   5.297  65.860  1.00  0.00    -0.078 OA 
BRANCH   3   4
HETATM    4  C   UNL     1      -7.921   6.494  65.464  1.00  0.00    -0.117 A  
HETATM    5  C   UNL     1      -7.389   7.142  64.338  1.00  0.00    -0.082 A  
HETATM    6  C   UNL     1      -7.899   8.402  63.971  1.00  0.00    -0.146 A  
HETATM    7  C   UNL     1      -6.276   6.604  63.487  1.00  0.00    -0.038 C  
HETATM    8  C   UNL     1      -8.917   9.005  64.706  1.00  0.00    -0.146 A  
HETATM    9  O   UNL     1      -5.780   7.244  62.569  1.00  0.00    -0.047 OA 
HETATM   10  O   UNL     1      -5.879   5.355  63.786  1.00  0.00    -0.020 OA 
HETATM   11  C   UNL     1      -9.469   8.351  65.812  1.00  0.00    -0.088 A  
HETATM   12  C   UNL     1      -8.992   7.083  66.155  1.00  0.00    -0.162 A  
BRANCH  11  13
HETATM   13  C   UNL     1     -10.562   8.990  66.630  1.00  0.00    -0.158 C  
BRANCH  13  14
HETATM   14  C   UNL     1     -10.345  10.472  66.867  1.00  0.00    -0.239 C  
HETATM   15  O   UNL     1     -10.086  10.887  67.995  1.00  0.00    -0.170 OA 
HETATM   16  N   UNL     1     -10.438  11.283  65.748  1.00  0.00    -0.252 N  
HETATM   17  H   UNL     1     -10.708  10.872  64.855  1.00  0.00     0.000 HD 
BRANCH  16  18
HETATM   18  C   UNL     1     -10.154  12.727  65.822  1.00  0.00    -0.286 C  
BRANCH  18  19
HETATM   19  C   UNL     1      -9.174  13.173  66.922  1.00  0.00    -0.236 A  
HETATM   20  C   UNL     1      -9.541  13.341  68.300  1.00  0.00    -0.221 A  
HETATM   21  C   UNL     1      -8.475  13.619  69.200  1.00  0.00     0.442 A  
HETATM   22  C   UNL     1      -7.797  13.262  66.566  1.00  0.00     0.882 A  
HETATM   23  C   UNL     1      -7.133  13.689  68.823  1.00  0.00    -0.103 A  
HETATM   24  C   UNL     1      -6.792  13.512  67.500  1.00  0.00    -0.156 A  
BRANCH  20  25
HETATM   25  N   UNL     1     -10.825  13.275  68.853  1.00  0.00    -0.235 NA 
HETATM   26  C   UNL     1     -11.341  12.002  69.406  1.00  0.00    -0.251 C  
HETATM   27  C   UNL     1     -11.979  12.266  70.775  1.00  0.00    -0.101 C  
HETATM   28  C   UNL     1     -13.109  13.282  70.658  1.00  0.00     0.094 C  
HETATM   29  C   UNL     1     -12.605  14.554  70.002  1.00  0.00    -0.281 C  
HETATM   30  C   UNL     1     -11.868  14.288  68.696  1.00  0.00    -0.344 C  
ENDBRANCH  20  25
ENDBRANCH  18  19
BRANCH  18  31
HETATM   31  C   UNL     1     -11.440  13.569  65.936  1.00  0.00    -0.338 C  
HETATM   32  C   UNL     1     -12.339  13.183  63.548  1.00  0.00    -0.478 C  
HETATM   33  C   UNL     1     -12.625  13.130  65.050  1.00  0.00    -0.499 C  
HETATM   34  C   UNL     1     -13.818  14.047  65.339  1.00  0.00     2.155 C  
ENDBRANCH  18  31
ENDBRANCH  16  18
ENDBRANCH  13  14
ENDBRANCH  11  13
ENDBRANCH   3   4
ENDBRANCH   2   3
TORSDOF 8
ENDMDL
MODEL      328
REMARK 921   NORMALIZED FREE ENERGY PREDICTED BY IDOCK:    4.89 KCAL/MOL
REMARK 922        TOTAL FREE ENERGY PREDICTED BY IDOCK:    4.78 KCAL/MOL
REMARK 923 INTER-LIGAND FREE ENERGY PREDICTED BY IDOCK:   -2.78 KCAL/MOL
REMARK 924 INTRA-LIGAND FREE ENERGY PREDICTED BY IDOCK:    7.55 KCAL/MOL
REMARK 927      BINDING AFFINITY PREDICTED BY RF-SCORE:    0.00 PKD
ROOT
HETATM    1  C   UNL     1     -11.366   4.263  63.581  1.00  0.00     0.816 C  
HETATM    2  C   UNL     1     -10.524   4.077  64.823  1.00  0.00    -0.177 C  
ENDROOT
BRANCH   2   3
HETATM    3  O   UNL     1      -9.662   5.222  64.985  1.00  0.00     0.130 OA 
BRANCH   3   4
HETATM    4  C   UNL     1      -8.343   4.918  65.213  1.00  0.00    -0.131 A  
HETATM    5  C   UNL     1      -7.852   3.669  64.802  1.00  0.00    -0.082 A  
HETATM    6  C   UNL     1      -6.518   3.330  65.096  1.00  0.00    -0.035 A  
HETATM    7  C   UNL     1      -8.658   2.628  64.082  1.00  0.00    -0.087 C  
HETATM    8  C   UNL     1      -5.688   4.214  65.781  1.00  0.00    -0.022 A  
HETATM    9  O   UNL     1      -8.217   1.515  63.824  1.00  0.00    -0.064 OA 
HETATM   10  O   UNL     1      -9.892   3.011  63.714  1.00  0.00    -0.130 OA 
HETATM   11  C   UNL     1      -6.164   5.470  66.168  1.00  0.00    -0.034 A  
HETATM   12  C   UNL     1      -7.477   5.825  65.844  1.00  0.00    -0.078 A  
BRANCH  11  13
HETATM   13  C   UNL     1      -5.289   6.437  66.923  1.00  0.00    -0.012 C  
BRANCH  13  14
HETATM   14  C   UNL     1      -6.067   7.544  67.606  1.00  0.00    -0.047 C  
HETATM   15  O   UNL     1      -6.241   8.620  67.037  1.00  0.00    -0.054 OA 
HETATM   16  N   UNL     1      -6.564   7.246  68.864  1.00  0.00    -0.046 N  
HETATM   17  H   UNL     1      -6.333   6.350  69.293  1.00  0.00     0.000 HD 
BRANCH  16  18
HETATM   18  C   UNL     1      -7.419   8.198  69.596  1.00  0.00    -0.086 C  
BRANCH  18  19
HETATM   19  C   UNL     1      -7.301   8.180  71.130  1.00  0.00    -0.065 A  
HETATM   20  C   UNL     1      -8.313   7.656  72.005  1.00  0.00    -0.110 A  
HETATM   21  C   UNL     1      -7.971   7.590  73.384  1.00  0.00    -0.150 A  
HETATM   22  C   UNL     1      -6.045   8.558  71.687  1.00  0.00    -0.051 A  
HETATM   23  C   UNL     1      -6.728   7.958  73.900  1.00  0.00    -0.121 A  
HETATM   24  C   UNL     1      -5.760   8.447  73.048  1.00  0.00    -0.067 A  
BRANCH  20  25
HETATM   25  N   UNL     1      -9.595   7.217  71.655  1.00  0.00    -0.156 NA 
HETATM   26  C   UNL     1     -10.795   7.923  72.159  1.00  0.00    -0.269 C  
HETATM   27  C   UNL     1     -11.772   8.151  71.001  1.00  0.00    -0.295 C  
HETATM   28  C   UNL     1     -12.174   6.826  70.363  1.00  0.00    -0.180 C  
HETATM   29  C   UNL     1     -10.940   6.056  69.933  1.00  0.00    -0.458 C  
HETATM   30  C   UNL     1      -9.911   5.924  71.048  1.00  0.00    -0.190 C  
ENDBRANCH  20  25
ENDBRANCH  18  19
BRANCH  18  31
HETATM   31  C   UNL     1      -8.906   8.057  69.213  1.00  0.00    -0.141 C  
HETATM   32  C   UNL     1      -9.299  10.469  68.385  1.00  0.00    -0.158 C  
HETATM   33  C   UNL     1      -9.410   8.973  68.080  1.00  0.00    -0.153 C  
HETATM   34  C   UNL     1     -10.884   8.653  67.810  1.00  0.00    -0.075 C  
ENDBRANCH  18  31
ENDBRANCH  16  18
ENDBRANCH  13  14
ENDBRANCH  11  13
ENDBRANCH   3   4
ENDBRANCH   2   3
TORSDOF 8
ENDMDL
MODEL      329
REMARK 921   NORMALIZED FREE ENERGY PREDICTED BY IDOCK:    4.92 KCAL/MOL
REMARK 922        TOTAL FREE ENERGY PREDICTED BY IDOCK:    4.82 KCAL/MOL
REMARK 923 INTER-LIGAND FREE ENERGY PREDICTED BY IDOCK:   -1.50 KCAL/MOL
REMARK 924 INTRA-LIGAND FREE ENERGY PREDICTED BY IDOCK:    6.33 KCAL/MOL
REMARK 927      BINDING AFFINITY PREDICTED BY RF-SCORE:    0.00 PKD
ROOT
HETATM    1  C   UNL     1     -11.360   4.253  63.581  1.00  0.00     0.816 C  
HETATM    2  C   UNL     1     -10.516   3.987  64.807  1.00  0.00    -0.177 C  
ENDROOT
BRANCH   2   3
HETATM    3  O   UNL     1      -9.623   5.100  65.018  1.00  0.00     0.000 OA 
BRANCH   3   4
HETATM    4  C   UNL     1      -8.306   4.753  65.190  1.00  0.00    -0.129 A  
HETATM    5  C   UNL     1      -7.846   3.541  64.652  1.00  0.00    -0.085 A  
HETATM    6  C   UNL     1      -6.514   3.153  64.886  1.00  0.00    -0.035 A  
HETATM    7  C   UNL     1      -8.685   2.587  63.852  1.00  0.00    -0.086 C  
HETATM    8  C   UNL     1      -5.655   3.952  65.637  1.00  0.00    -0.017 A  
HETATM    9  O   UNL     1      -8.269   1.497  63.480  1.00  0.00    -0.060 OA 
HETATM   10  O   UNL     1      -9.917   3.026  63.547  1.00  0.00    -0.126 OA 
HETATM   11  C   UNL     1      -6.101   5.174  66.151  1.00  0.00    -0.030 A  
HETATM   12  C   UNL     1      -7.412   5.581  65.887  1.00  0.00    -0.082 A  
BRANCH  11  13
HETATM   13  C   UNL     1      -5.194   6.048  66.978  1.00  0.00    -0.005 C  
BRANCH  13  14
HETATM   14  C   UNL     1      -5.941   7.081  67.799  1.00  0.00    -0.029 C  
HETATM   15  O   UNL     1      -6.111   8.217  67.359  1.00  0.00    -0.048 OA 
HETATM   16  N   UNL     1      -6.416   6.649  69.026  1.00  0.00    -0.038 N  
HETATM   17  H   UNL     1      -6.190   5.707  69.346  1.00  0.00     0.000 HD 
BRANCH  16  18
HETATM   18  C   UNL     1      -7.242   7.522  69.880  1.00  0.00    -0.080 C  
BRANCH  18  19
HETATM   19  C   UNL     1      -8.711   7.696  69.457  1.00  0.00    -0.136 A  
HETATM   20  C   UNL     1      -9.829   7.277  70.255  1.00  0.00    -0.179 A  
HETATM   21  C   UNL     1     -11.114   7.648  69.772  1.00  0.00    -0.115 A  
HETATM   22  C   UNL     1      -8.959   8.463  68.281  1.00  0.00    -0.139 A  
HETATM   23  C   UNL     1     -11.326   8.409  68.621  1.00  0.00     0.728 A  
HETATM   24  C   UNL     1     -10.245   8.816  67.871  1.00  0.00    -0.272 A  
BRANCH  20  25
HETATM   25  N   UNL     1      -9.796   6.539  71.444  1.00  0.00    -0.176 NA 
HETATM   26  C   UNL     1      -9.748   7.225  72.755  1.00  0.00    -0.162 C  
HETATM   27  C   UNL     1     -10.775   6.588  73.698  1.00  0.00    -0.245 C  
HETATM   28  C   UNL     1     -10.496   5.100  73.876  1.00  0.00    -0.316 C  
HETATM   29  C   UNL     1     -10.447   4.410  72.525  1.00  0.00    -0.235 C  
HETATM   30  C   UNL     1      -9.514   5.107  71.543  1.00  0.00    -0.151 C  
ENDBRANCH  20  25
ENDBRANCH  18  19
BRANCH  18  31
HETATM   31  C   UNL     1      -6.612   8.917  70.067  1.00  0.00    -0.042 C  
HETATM   32  C   UNL     1      -6.794   9.057  72.636  1.00  0.00     0.257 C  
HETATM   33  C   UNL     1      -5.890   9.168  71.406  1.00  0.00    -0.066 C  
HETATM   34  C   UNL     1      -5.291  10.578  71.383  1.00  0.00    -0.042 C  
ENDBRANCH  18  31
ENDBRANCH  16  18
ENDBRANCH  13  14
ENDBRANCH  11  13
ENDBRANCH   3   4
ENDBRANCH   2   3
TORSDOF 8
ENDMDL
MODEL      330
REMARK 921   NORMALIZED FREE ENERGY PREDICTED BY IDOCK:    5.67 KCAL/MOL
REMARK 922        TOTAL FREE ENERGY PREDICTED BY IDOCK:    5.92 KCAL/MOL
REMARK 923 INTER-LIGAND FREE ENERGY PREDICTED BY IDOCK:    3.23 KCAL/MOL
REMARK 924 INTRA-LIGAND FREE ENERGY PREDICTED BY IDOCK:    2.69 KCAL/MOL
REMARK 927      BINDING AFFINITY PREDICTED BY RF-SCORE:    0.00 PKD
ROOT
HETATM    1  C   UNL     1      -5.398  15.539  68.974  1.00  0.00    -0.099 C  
HETATM    2  C   UNL     1      -6.123  16.409  69.976  1.00  0.00    -0.151 C  
ENDROOT
BRANCH   2   3
HETATM    3  O   UNL     1      -7.460  16.667  69.499  1.00  0.00    -0.143 OA 
BRANCH   3   4
HETATM    4  C   UNL     1      -8.229  15.544  69.317  1.00  0.00    -0.255 A  
HETATM    5  C   UNL     1      -9.620  15.640  69.476  1.00  0.00    -0.279 A  
HETATM    6  C   UNL     1     -10.401  14.475  69.356  1.00  0.00    -0.095 A  
HETATM    7  C   UNL     1     -10.360  16.905  69.798  1.00  0.00    -0.021 C  
HETATM    8  C   UNL     1      -9.815  13.242  69.082  1.00  0.00     0.387 A  
HETATM    9  O   UNL     1     -11.564  16.926  70.020  1.00  0.00     0.414 OA 
HETATM   10  O   UNL     1      -9.612  18.021  69.800  1.00  0.00     0.491 OA 
HETATM   11  C   UNL     1      -8.432  13.147  68.896  1.00  0.00     0.270 A  
HETATM   12  C   UNL     1      -7.657  14.308  68.975  1.00  0.00    -0.084 A  
BRANCH  11  13
HETATM   13  C   UNL     1      -7.773  11.822  68.612  1.00  0.00    -0.126 C  
BRANCH  13  14
HETATM   14  C   UNL     1      -7.722  11.481  67.135  1.00  0.00    -0.160 C  
HETATM   15  O   UNL     1      -6.825  10.763  66.697  1.00  0.00    -0.107 OA 
HETATM   16  N   UNL     1      -8.740  12.008  66.358  1.00  0.00    -0.357 N  
HETATM   17  H   UNL     1      -9.418  12.639  66.784  1.00  0.00     0.000 HD 
BRANCH  16  18
HETATM   18  C   UNL     1      -8.863  11.675  64.927  1.00  0.00     0.405 C  
BRANCH  18  19
HETATM   19  C   UNL     1     -10.241  11.920  64.287  1.00  0.00    -0.346 A  
HETATM   20  C   UNL     1     -10.843  13.217  64.156  1.00  0.00    -0.380 A  
HETATM   21  C   UNL     1     -12.054  13.269  63.411  1.00  0.00    -0.508 A  
HETATM   22  C   UNL     1     -10.864  10.808  63.649  1.00  0.00     0.221 A  
HETATM   23  C   UNL     1     -12.636  12.165  62.788  1.00  0.00     0.538 A  
HETATM   24  C   UNL     1     -12.041  10.928  62.908  1.00  0.00     1.883 A  
BRANCH  20  25
HETATM   25  N   UNL     1     -10.382  14.426  64.689  1.00  0.00    -0.324 NA 
HETATM   26  C   UNL     1     -11.284  15.597  64.786  1.00  0.00    -0.382 C  
HETATM   27  C   UNL     1     -11.154  16.222  66.179  1.00  0.00     0.142 C  
HETATM   28  C   UNL     1      -9.715  16.645  66.451  1.00  0.00    -0.306 C  
HETATM   29  C   UNL     1      -8.776  15.469  66.256  1.00  0.00    -0.283 C  
HETATM   30  C   UNL     1      -8.980  14.771  64.918  1.00  0.00     2.913 C  
ENDBRANCH  20  25
ENDBRANCH  18  19
BRANCH  18  31
HETATM   31  C   UNL     1      -8.429  10.226  64.627  1.00  0.00    -0.179 C  
HETATM   32  C   UNL     1      -9.789   9.048  66.476  1.00  0.00    -0.338 C  
HETATM   33  C   UNL     1      -9.442   9.120  64.988  1.00  0.00    -0.024 C  
HETATM   34  C   UNL     1      -8.858   7.766  64.571  1.00  0.00     0.516 C  
ENDBRANCH  18  31
ENDBRANCH  16  18
ENDBRANCH  13  14
ENDBRANCH  11  13
ENDBRANCH   3   4
ENDBRANCH   2   3
TORSDOF 8
ENDMDL
MODEL      331
REMARK 921   NORMALIZED FREE ENERGY PREDICTED BY IDOCK:    6.24 KCAL/MOL
REMARK 922        TOTAL FREE ENERGY PREDICTED BY IDOCK:    6.76 KCAL/MOL
REMARK 923 INTER-LIGAND FREE ENERGY PREDICTED BY IDOCK:    0.74 KCAL/MOL
REMARK 924 INTRA-LIGAND FREE ENERGY PREDICTED BY IDOCK:    6.02 KCAL/MOL
REMARK 927      BINDING AFFINITY PREDICTED BY RF-SCORE:    0.00 PKD
ROOT
HETATM    1  C   UNL     1     -11.360   4.254  63.581  1.00  0.00     0.816 C  
HETATM    2  C   UNL     1     -10.510   3.993  64.804  1.00  0.00    -0.177 C  
ENDROOT
BRANCH   2   3
HETATM    3  O   UNL     1      -9.611   5.103  65.000  1.00  0.00     0.000 OA 
BRANCH   3   4
HETATM    4  C   UNL     1      -8.295   4.751  65.168  1.00  0.00    -0.129 A  
HETATM    5  C   UNL     1      -7.844   3.531  64.640  1.00  0.00    -0.085 A  
HETATM    6  C   UNL     1      -6.513   3.138  64.871  1.00  0.00    -0.035 A  
HETATM    7  C   UNL     1      -8.692   2.574  63.853  1.00  0.00    -0.086 C  
HETATM    8  C   UNL     1      -5.645   3.940  65.609  1.00  0.00    -0.017 A  
HETATM    9  O   UNL     1      -8.284   1.478  63.490  1.00  0.00    -0.060 OA 
HETATM   10  O   UNL     1      -9.924   3.016  63.551  1.00  0.00    -0.126 OA 
HETATM   11  C   UNL     1      -6.082   5.168  66.114  1.00  0.00    -0.030 A  
HETATM   12  C   UNL     1      -7.392   5.580  65.853  1.00  0.00    -0.077 A  
BRANCH  11  13
HETATM   13  C   UNL     1      -5.166   6.046  66.927  1.00  0.00    -0.005 C  
BRANCH  13  14
HETATM   14  C   UNL     1      -5.903   7.091  67.742  1.00  0.00    -0.025 C  
HETATM   15  O   UNL     1      -6.068   8.224  67.291  1.00  0.00    -0.052 OA 
HETATM   16  N   UNL     1      -6.375   6.674  68.975  1.00  0.00    -0.034 N  
HETATM   17  H   UNL     1      -6.153   5.735  69.303  1.00  0.00     0.000 HD 
BRANCH  16  18
HETATM   18  C   UNL     1      -7.191   7.561  69.824  1.00  0.00    -0.080 C  
BRANCH  18  19
HETATM   19  C   UNL     1      -7.047   7.372  71.344  1.00  0.00    -0.063 A  
HETATM   20  C   UNL     1      -6.544   8.382  72.232  1.00  0.00    -0.084 A  
HETATM   21  C   UNL     1      -6.616   8.083  73.621  1.00  0.00    -0.119 A  
HETATM   22  C   UNL     1      -7.599   6.183  71.903  1.00  0.00    -0.096 A  
HETATM   23  C   UNL     1      -7.172   6.913  74.141  1.00  0.00    -0.095 A  
HETATM   24  C   UNL     1      -7.664   5.957  73.278  1.00  0.00    -0.098 A  
BRANCH  20  25
HETATM   25  N   UNL     1      -5.983   9.617  71.886  1.00  0.00    -0.282 NA 
HETATM   26  C   UNL     1      -5.568   9.889  70.491  1.00  0.00    -0.056 C  
HETATM   27  C   UNL     1      -6.087  11.267  70.068  1.00  0.00    -0.142 C  
HETATM   28  C   UNL     1      -5.554  12.354  70.994  1.00  0.00    -0.061 C  
HETATM   29  C   UNL     1      -5.894  12.028  72.436  1.00  0.00     1.892 C  
HETATM   30  C   UNL     1      -5.484  10.615  72.831  1.00  0.00     0.710 C  
ENDBRANCH  20  25
ENDBRANCH  18  19
BRANCH  18  31
HETATM   31  C   UNL     1      -8.688   7.501  69.458  1.00  0.00    -0.137 C  
HETATM   32  C   UNL     1      -9.124  10.039  69.294  1.00  0.00    -0.208 C  
HETATM   33  C   UNL     1      -9.233   8.672  68.615  1.00  0.00    -0.138 C  
HETATM   34  C   UNL     1     -10.712   8.409  68.311  1.00  0.00    -0.084 C  
ENDBRANCH  18  31
ENDBRANCH  16  18
ENDBRANCH  13  14
ENDBRANCH  11  13
ENDBRANCH   3   4
ENDBRANCH   2   3
TORSDOF 8
ENDMDL
MODEL      332
REMARK 921   NORMALIZED FREE ENERGY PREDICTED BY IDOCK:    7.69 KCAL/MOL
REMARK 922        TOTAL FREE ENERGY PREDICTED BY IDOCK:    8.88 KCAL/MOL
REMARK 923 INTER-LIGAND FREE ENERGY PREDICTED BY IDOCK:   -3.16 KCAL/MOL
REMARK 924 INTRA-LIGAND FREE ENERGY PREDICTED BY IDOCK:   12.04 KCAL/MOL
REMARK 927      BINDING AFFINITY PREDICTED BY RF-SCORE:    0.00 PKD
ROOT
HETATM    1  C   UNL     1     -11.308  20.305  67.221  1.00  0.00     1.027 C  
HETATM    2  C   UNL     1     -10.876  19.360  68.320  1.00  0.00     0.149 C  
ENDROOT
BRANCH   2   3
HETATM    3  O   UNL     1     -11.361  18.035  68.022  1.00  0.00     0.160 OA 
BRANCH   3   4
HETATM    4  C   UNL     1     -10.394  17.061  68.011  1.00  0.00    -0.341 A  
HETATM    5  C   UNL     1      -9.067  17.422  67.729  1.00  0.00    -0.243 A  
HETATM    6  C   UNL     1      -8.089  16.414  67.650  1.00  0.00    -0.170 A  
HETATM    7  C   UNL     1      -8.599  18.824  67.471  1.00  0.00    -0.274 C  
HETATM    8  C   UNL     1      -8.419  15.075  67.850  1.00  0.00    -0.149 A  
HETATM    9  O   UNL     1      -7.449  19.083  67.137  1.00  0.00    -0.226 OA 
HETATM   10  O   UNL     1      -9.524  19.780  67.658  1.00  0.00    -0.325 OA 
HETATM   11  C   UNL     1      -9.734  14.714  68.158  1.00  0.00    -0.220 A  
HETATM   12  C   UNL     1     -10.701  15.716  68.275  1.00  0.00    -0.283 A  
BRANCH  11  13
HETATM   13  C   UNL     1     -10.118  13.271  68.364  1.00  0.00    -0.237 C  
BRANCH  13  14
HETATM   14  C   UNL     1      -8.942  12.383  68.721  1.00  0.00     0.158 C  
HETATM   15  O   UNL     1      -7.815  12.863  68.834  1.00  0.00    -0.012 OA 
HETATM   16  N   UNL     1      -9.235  11.045  68.923  1.00  0.00    -0.303 N  
HETATM   17  H   UNL     1     -10.185  10.711  68.760  1.00  0.00     0.000 HD 
BRANCH  16  18
HETATM   18  C   UNL     1      -8.202  10.092  69.370  1.00  0.00    -0.166 C  
BRANCH  18  19
HETATM   19  C   UNL     1      -7.487   9.295  68.265  1.00  0.00    -0.079 A  
HETATM   20  C   UNL     1      -7.724   9.484  66.861  1.00  0.00    -0.098 A  
HETATM   21  C   UNL     1      -6.871   8.761  65.982  1.00  0.00    -0.073 A  
HETATM   22  C   UNL     1      -6.419   8.443  68.669  1.00  0.00    -0.054 A  
HETATM   23  C   UNL     1      -5.825   7.941  66.407  1.00  0.00    -0.040 A  
HETATM   24  C   UNL     1      -5.598   7.779  67.757  1.00  0.00    -0.036 A  
BRANCH  20  25
HETATM   25  N   UNL     1      -8.704  10.285  66.264  1.00  0.00    -0.144 NA 
HETATM   26  C   UNL     1     -10.140  10.045  66.535  1.00  0.00    -0.232 C  
HETATM   27  C   UNL     1     -10.827  11.379  66.846  1.00  0.00    -0.335 C  
HETATM   28  C   UNL     1     -10.670  12.352  65.683  1.00  0.00    -0.299 C  
HETATM   29  C   UNL     1      -9.203  12.526  65.339  1.00  0.00     0.341 C  
HETATM   30  C   UNL     1      -8.485  11.197  65.142  1.00  0.00     0.131 C  
ENDBRANCH  20  25
ENDBRANCH  18  19
BRANCH  18  31
HETATM   31  C   UNL     1      -8.738   9.104  70.424  1.00  0.00    -0.245 C  
HETATM   32  C   UNL     1     -10.497   7.921  68.953  1.00  0.00    -0.205 C  
HETATM   33  C   UNL     1      -9.296   7.769  69.889  1.00  0.00    -0.157 C  
HETATM   34  C   UNL     1      -9.728   6.906  71.080  1.00  0.00    -0.178 C  
ENDBRANCH  18  31
ENDBRANCH  16  18
ENDBRANCH  13  14
ENDBRANCH  11  13
ENDBRANCH   3   4
ENDBRANCH   2   3
TORSDOF 8
ENDMDL
MODEL      333
REMARK 921   NORMALIZED FREE ENERGY PREDICTED BY IDOCK:    8.37 KCAL/MOL
REMARK 922        TOTAL FREE ENERGY PREDICTED BY IDOCK:    9.88 KCAL/MOL
REMARK 923 INTER-LIGAND FREE ENERGY PREDICTED BY IDOCK:    1.10 KCAL/MOL
REMARK 924 INTRA-LIGAND FREE ENERGY PREDICTED BY IDOCK:    8.78 KCAL/MOL
REMARK 927      BINDING AFFINITY PREDICTED BY RF-SCORE:    0.00 PKD
ROOT
HETATM    1  C   UNL     1     -11.689  17.085  72.841  1.00  0.00     0.353 C  
HETATM    2  C   UNL     1     -11.172  15.700  73.162  1.00  0.00     0.677 C  
ENDROOT
BRANCH   2   3
HETATM    3  O   UNL     1     -12.084  14.719  72.626  1.00  0.00    -0.285 OA 
BRANCH   3   4
HETATM    4  C   UNL     1     -12.139  14.680  71.255  1.00  0.00    -0.350 A  
HETATM    5  C   UNL     1     -12.357  13.448  70.618  1.00  0.00    -0.423 A  
HETATM    6  C   UNL     1     -12.346  13.396  69.211  1.00  0.00    -0.090 A  
HETATM    7  C   UNL     1     -12.579  12.145  71.328  1.00  0.00    -0.238 C  
HETATM    8  C   UNL     1     -12.127  14.544  68.453  1.00  0.00    -0.249 A  
HETATM    9  O   UNL     1     -12.672  11.078  70.734  1.00  0.00    -0.341 OA 
HETATM   10  O   UNL     1     -12.695  12.233  72.664  1.00  0.00     0.302 OA 
HETATM   11  C   UNL     1     -11.936  15.777  69.083  1.00  0.00    -0.312 A  
HETATM   12  C   UNL     1     -11.985  15.839  70.478  1.00  0.00    -0.401 A  
BRANCH  11  13
HETATM   13  C   UNL     1     -11.682  17.030  68.283  1.00  0.00     0.721 C  
BRANCH  13  14
HETATM   14  C   UNL     1     -11.022  16.763  66.944  1.00  0.00     0.083 C  
HETATM   15  O   UNL     1     -10.518  17.687  66.308  1.00  0.00    -0.349 OA 
HETATM   16  N   UNL     1     -11.015  15.443  66.526  1.00  0.00    -0.303 N  
HETATM   17  H   UNL     1     -11.500  14.740  67.083  1.00  0.00     0.000 HD 
BRANCH  16  18
HETATM   18  C   UNL     1     -10.321  15.033  65.292  1.00  0.00    -0.395 C  
BRANCH  18  19
HETATM   19  C   UNL     1      -9.955  13.542  65.179  1.00  0.00    -0.201 A  
HETATM   20  C   UNL     1      -9.075  12.863  66.088  1.00  0.00     0.077 A  
HETATM   21  C   UNL     1      -8.965  11.456  65.915  1.00  0.00    -0.184 A  
HETATM   22  C   UNL     1     -10.665  12.773  64.211  1.00  0.00    -0.419 A  
HETATM   23  C   UNL     1      -9.681  10.727  64.965  1.00  0.00    -0.323 A  
HETATM   24  C   UNL     1     -10.533  11.389  64.107  1.00  0.00    -0.421 A  
BRANCH  20  25
HETATM   25  N   UNL     1      -8.308  13.430  67.112  1.00  0.00    -0.172 NA 
HETATM   26  C   UNL     1      -8.961  14.025  68.300  1.00  0.00    -0.190 C  
HETATM   27  C   UNL     1      -8.257  13.529  69.568  1.00  0.00     0.995 C  
HETATM   28  C   UNL     1      -6.778  13.898  69.544  1.00  0.00    -0.062 C  
HETATM   29  C   UNL     1      -6.126  13.373  68.279  1.00  0.00    -0.099 C  
HETATM   30  C   UNL     1      -6.887  13.766  67.020  1.00  0.00     0.744 C  
ENDBRANCH  20  25
ENDBRANCH  18  19
BRANCH  18  31
HETATM   31  C   UNL     1      -9.056  15.874  65.029  1.00  0.00     1.923 C  
HETATM   32  C   UNL     1      -8.598  16.612  67.458  1.00  0.00    -0.199 C  
HETATM   33  C   UNL     1      -8.042  15.964  66.188  1.00  0.00     0.165 C  
HETATM   34  C   UNL     1      -6.838  16.791  65.722  1.00  0.00     1.071 C  
ENDBRANCH  18  31
ENDBRANCH  16  18
ENDBRANCH  13  14
ENDBRANCH  11  13
ENDBRANCH   3   4
ENDBRANCH   2   3
TORSDOF 8
ENDMDL
MODEL      334
REMARK 921   NORMALIZED FREE ENERGY PREDICTED BY IDOCK:    8.40 KCAL/MOL
REMARK 922        TOTAL FREE ENERGY PREDICTED BY IDOCK:    9.93 KCAL/MOL
REMARK 923 INTER-LIGAND FREE ENERGY PREDICTED BY IDOCK:    8.04 KCAL/MOL
REMARK 924 INTRA-LIGAND FREE ENERGY PREDICTED BY IDOCK:    1.90 KCAL/MOL
REMARK 927      BINDING AFFINITY PREDICTED BY RF-SCORE:    0.00 PKD
ROOT
HETATM    1  C   UNL     1      -8.216  19.221  68.600  1.00  0.00    -0.408 C  
HETATM    2  C   UNL     1      -9.364  18.696  69.433  1.00  0.00     0.238 C  
ENDROOT
BRANCH   2   3
HETATM    3  O   UNL     1     -10.309  18.032  68.570  1.00  0.00    -0.373 OA 
BRANCH   3   4
HETATM    4  C   UNL     1      -9.749  17.393  67.492  1.00  0.00    -0.266 A  
HETATM    5  C   UNL     1     -10.320  17.572  66.223  1.00  0.00    -0.335 A  
HETATM    6  C   UNL     1      -9.788  16.863  65.129  1.00  0.00     0.847 A  
HETATM    7  C   UNL     1     -11.498  18.456  65.931  1.00  0.00     1.732 C  
HETATM    8  C   UNL     1      -8.710  15.997  65.292  1.00  0.00     1.843 A  
HETATM    9  O   UNL     1     -12.022  18.512  64.826  1.00  0.00     2.932 OA 
HETATM   10  O   UNL     1     -11.920  19.206  66.963  1.00  0.00     1.436 OA 
HETATM   11  C   UNL     1      -8.120  15.836  66.550  1.00  0.00    -0.231 A  
HETATM   12  C   UNL     1      -8.621  16.568  67.630  1.00  0.00    -0.189 A  
BRANCH  11  13
HETATM   13  C   UNL     1      -6.962  14.894  66.752  1.00  0.00     1.034 C  
BRANCH  13  14
HETATM   14  C   UNL     1      -7.377  13.543  67.303  1.00  0.00    -0.012 C  
HETATM   15  O   UNL     1      -8.551  13.329  67.597  1.00  0.00    -0.171 OA 
HETATM   16  N   UNL     1      -6.367  12.603  67.421  1.00  0.00    -0.161 N  
HETATM   17  H   UNL     1      -5.406  12.872  67.207  1.00  0.00     0.000 HD 
BRANCH  16  18
HETATM   18  C   UNL     1      -6.651  11.222  67.851  1.00  0.00    -0.059 C  
BRANCH  18  19
HETATM   19  C   UNL     1      -8.125  10.891  68.148  1.00  0.00    -0.119 A  
HETATM   20  C   UNL     1      -9.098  10.594  67.135  1.00  0.00    -0.143 A  
HETATM   21  C   UNL     1     -10.374  10.171  67.601  1.00  0.00    -0.265 A  
HETATM   22  C   UNL     1      -8.485  10.715  69.515  1.00  0.00     0.008 A  
HETATM   23  C   UNL     1     -10.695   9.997  68.948  1.00  0.00    -0.243 A  
HETATM   24  C   UNL     1      -9.748  10.273  69.910  1.00  0.00    -0.119 A  
BRANCH  20  25
HETATM   25  N   UNL     1      -8.937  10.685  65.747  1.00  0.00    -0.175 NA 
HETATM   26  C   UNL     1      -9.961  11.355  64.914  1.00  0.00    -0.265 C  
HETATM   27  C   UNL     1      -9.272  12.311  63.935  1.00  0.00     0.602 C  
HETATM   28  C   UNL     1      -8.285  11.559  63.048  1.00  0.00     0.577 C  
HETATM   29  C   UNL     1      -7.293  10.792  63.901  1.00  0.00     0.368 C  
HETATM   30  C   UNL     1      -7.969   9.926  64.955  1.00  0.00    -0.137 C  
ENDBRANCH  20  25
ENDBRANCH  18  19
BRANCH  18  31
HETATM   31  C   UNL     1      -5.796  10.801  69.062  1.00  0.00    -0.040 C  
HETATM   32  C   UNL     1      -6.230  12.865  70.549  1.00  0.00     0.159 C  
HETATM   33  C   UNL     1      -6.246  11.339  70.436  1.00  0.00    -0.067 C  
HETATM   34  C   UNL     1      -5.312  10.774  71.513  1.00  0.00     0.036 C  
ENDBRANCH  18  31
ENDBRANCH  16  18
ENDBRANCH  13  14
ENDBRANCH  11  13
ENDBRANCH   3   4
ENDBRANCH   2   3
TORSDOF 8
ENDMDL
MODEL      335
REMARK 921   NORMALIZED FREE ENERGY PREDICTED BY IDOCK:   10.79 KCAL/MOL
REMARK 922        TOTAL FREE ENERGY PREDICTED BY IDOCK:   13.44 KCAL/MOL
REMARK 923 INTER-LIGAND FREE ENERGY PREDICTED BY IDOCK:    7.12 KCAL/MOL
REMARK 924 INTRA-LIGAND FREE ENERGY PREDICTED BY IDOCK:    6.32 KCAL/MOL
REMARK 927      BINDING AFFINITY PREDICTED BY RF-SCORE:    0.00 PKD
ROOT
HETATM    1  C   UNL     1     -10.409  10.298  71.879  1.00  0.00     3.320 C  
HETATM    2  C   UNL     1      -9.643   9.021  71.620  1.00  0.00    -0.248 C  
ENDROOT
BRANCH   2   3
HETATM    3  O   UNL     1     -10.102   8.436  70.384  1.00  0.00    -0.184 OA 
BRANCH   3   4
HETATM    4  C   UNL     1      -9.750   9.134  69.255  1.00  0.00    -0.164 A  
HETATM    5  C   UNL     1      -8.397   9.192  68.885  1.00  0.00    -0.124 A  
HETATM    6  C   UNL     1      -8.029   9.964  67.768  1.00  0.00    -0.105 A  
HETATM    7  C   UNL     1      -7.280   8.507  69.617  1.00  0.00    -0.052 C  
HETATM    8  C   UNL     1      -8.983  10.660  67.030  1.00  0.00    -0.145 A  
HETATM    9  O   UNL     1      -6.103   8.660  69.314  1.00  0.00    -0.040 OA 
HETATM   10  O   UNL     1      -7.664   7.690  70.612  1.00  0.00    -0.085 OA 
HETATM   11  C   UNL     1     -10.335  10.583  67.379  1.00  0.00    -0.269 A  
HETATM   12  C   UNL     1     -10.709   9.787  68.465  1.00  0.00    -0.252 A  
BRANCH  11  13
HETATM   13  C   UNL     1     -11.384  11.340  66.604  1.00  0.00    -0.154 C  
BRANCH  13  14
HETATM   14  C   UNL     1     -11.790  12.644  67.262  1.00  0.00    -0.328 C  
HETATM   15  O   UNL     1     -12.550  13.419  66.682  1.00  0.00    -0.234 OA 
HETATM   16  N   UNL     1     -11.272  12.871  68.525  1.00  0.00    -0.256 N  
HETATM   17  H   UNL     1     -10.605  12.207  68.919  1.00  0.00     0.000 HD 
BRANCH  16  18
HETATM   18  C   UNL     1     -11.663  14.054  69.314  1.00  0.00    -0.326 C  
BRANCH  18  19
HETATM   19  C   UNL     1     -10.723  15.269  69.232  1.00  0.00    -0.252 A  
HETATM   20  C   UNL     1     -10.052  15.682  68.032  1.00  0.00    -0.224 A  
HETATM   21  C   UNL     1      -9.337  16.910  68.108  1.00  0.00    -0.240 A  
HETATM   22  C   UNL     1     -10.655  16.113  70.378  1.00  0.00    -0.058 A  
HETATM   23  C   UNL     1      -9.297  17.721  69.243  1.00  0.00     0.166 A  
HETATM   24  C   UNL     1      -9.957  17.321  70.384  1.00  0.00     1.706 A  
BRANCH  20  25
HETATM   25  N   UNL     1     -10.011  15.009  66.805  1.00  0.00    -0.242 NA 
HETATM   26  C   UNL     1     -11.262  14.556  66.155  1.00  0.00    -0.339 C  
HETATM   27  C   UNL     1     -11.232  14.945  64.673  1.00  0.00    -0.349 C  
HETATM   28  C   UNL     1     -10.026  14.327  63.975  1.00  0.00     2.225 C  
HETATM   29  C   UNL     1      -8.749  14.711  64.698  1.00  0.00     5.439 C  
HETATM   30  C   UNL     1      -8.814  14.433  66.194  1.00  0.00     0.261 C  
ENDBRANCH  20  25
ENDBRANCH  18  19
BRANCH  18  31
HETATM   31  C   UNL     1     -11.900  13.711  70.798  1.00  0.00    -0.169 C  
HETATM   32  C   UNL     1     -13.472  15.673  71.379  1.00  0.00    -0.473 C  
HETATM   33  C   UNL     1     -13.249  14.159  71.397  1.00  0.00    -0.418 C  
HETATM   34  C   UNL     1     -13.320  13.686  72.853  1.00  0.00    -0.267 C  
ENDBRANCH  18  31
ENDBRANCH  16  18
ENDBRANCH  13  14
ENDBRANCH  11  13
ENDBRANCH   3   4
ENDBRANCH   2   3
TORSDOF 8
ENDMDL
MODEL      336
REMARK 921   NORMALIZED FREE ENERGY PREDICTED BY IDOCK:   13.71 KCAL/MOL
REMARK 922        TOTAL FREE ENERGY PREDICTED BY IDOCK:   17.73 KCAL/MOL
REMARK 923 INTER-LIGAND FREE ENERGY PREDICTED BY IDOCK:   17.80 KCAL/MOL
REMARK 924 INTRA-LIGAND FREE ENERGY PREDICTED BY IDOCK:   -0.07 KCAL/MOL
REMARK 927      BINDING AFFINITY PREDICTED BY RF-SCORE:    0.00 PKD
ROOT
HETATM    1  C   UNL     1      -7.544  16.781  72.842  1.00  0.00    14.747 C  
HETATM    2  C   UNL     1      -6.173  16.225  72.532  1.00  0.00     3.299 C  
ENDROOT
BRANCH   2   3
HETATM    3  O   UNL     1      -6.101  15.899  71.129  1.00  0.00     0.430 OA 
BRANCH   3   4
HETATM    4  C   UNL     1      -7.285  16.035  70.448  1.00  0.00     1.134 A  
HETATM    5  C   UNL     1      -7.445  17.117  69.569  1.00  0.00     0.232 A  
HETATM    6  C   UNL     1      -8.682  17.294  68.923  1.00  0.00    -0.172 A  
HETATM    7  C   UNL     1      -6.389  18.142  69.273  1.00  0.00    -0.256 C  
HETATM    8  C   UNL     1      -9.739  16.414  69.143  1.00  0.00    -0.260 A  
HETATM    9  O   UNL     1      -6.601  19.122  68.571  1.00  0.00    -0.240 OA 
HETATM   10  O   UNL     1      -5.183  17.894  69.812  1.00  0.00    -0.182 OA 
HETATM   11  C   UNL     1      -9.576  15.319  69.998  1.00  0.00     0.048 A  
HETATM   12  C   UNL     1      -8.336  15.118  70.610  1.00  0.00     1.677 A  
BRANCH  11  13
HETATM   13  C   UNL     1     -10.710  14.362  70.262  1.00  0.00     0.290 C  
BRANCH  13  14
HETATM   14  C   UNL     1     -10.749  13.196  69.293  1.00  0.00     0.067 C  
HETATM   15  O   UNL     1     -11.824  12.684  68.985  1.00  0.00    -0.296 OA 
HETATM   16  N   UNL     1      -9.526  12.787  68.790  1.00  0.00    -0.410 N  
HETATM   17  H   UNL     1      -8.672  13.226  69.134  1.00  0.00     0.000 HD 
BRANCH  16  18
HETATM   18  C   UNL     1      -9.432  11.730  67.767  1.00  0.00    -0.181 C  
BRANCH  18  19
HETATM   19  C   UNL     1      -8.019  11.208  67.453  1.00  0.00    -0.125 A  
HETATM   20  C   UNL     1      -7.533   9.920  67.860  1.00  0.00    -0.089 A  
HETATM   21  C   UNL     1      -6.254   9.549  67.360  1.00  0.00    -0.060 A  
HETATM   22  C   UNL     1      -7.220  11.993  66.572  1.00  0.00     0.267 A  
HETATM   23  C   UNL     1      -5.498  10.335  66.489  1.00  0.00    -0.048 A  
HETATM   24  C   UNL     1      -5.982  11.564  66.094  1.00  0.00     0.153 A  
BRANCH  20  25
HETATM   25  N   UNL     1      -8.168   8.997  68.700  1.00  0.00    -0.117 NA 
HETATM   26  C   UNL     1      -7.757   8.863  70.116  1.00  0.00    -0.084 C  
HETATM   27  C   UNL     1      -9.005   8.844  71.006  1.00  0.00    -0.298 C  
HETATM   28  C   UNL     1      -9.929   7.695  70.618  1.00  0.00    -0.183 C  
HETATM   29  C   UNL     1     -10.273   7.774  69.142  1.00  0.00    -0.210 C  
HETATM   30  C   UNL     1      -9.041   7.910  68.258  1.00  0.00    -0.134 C  
ENDBRANCH  20  25
ENDBRANCH  18  19
BRANCH  18  31
HETATM   31  C   UNL     1     -10.113  12.137  66.445  1.00  0.00    -0.242 C  
HETATM   32  C   UNL     1      -9.301  10.165  64.994  1.00  0.00    -0.299 C  
HETATM   33  C   UNL     1     -10.492  10.988  65.488  1.00  0.00    -0.302 C  
HETATM   34  C   UNL     1     -11.198  11.583  64.265  1.00  0.00    -0.358 C  
ENDBRANCH  18  31
ENDBRANCH  16  18
ENDBRANCH  13  14
ENDBRANCH  11  13
ENDBRANCH   3   4
ENDBRANCH   2   3
TORSDOF 8
ENDMDL
MODEL      337
REMARK 921   NORMALIZED FREE ENERGY PREDICTED BY IDOCK:   14.33 KCAL/MOL
REMARK 922        TOTAL FREE ENERGY PREDICTED BY IDOCK:   18.63 KCAL/MOL
REMARK 923 INTER-LIGAND FREE ENERGY PREDICTED BY IDOCK:   12.66 KCAL/MOL
REMARK 924 INTRA-LIGAND FREE ENERGY PREDICTED BY IDOCK:    5.97 KCAL/MOL
REMARK 927      BINDING AFFINITY PREDICTED BY RF-SCORE:    0.00 PKD
ROOT
HETATM    1  C   UNL     1      -8.359  19.356  68.560  1.00  0.00    -0.399 C  
HETATM    2  C   UNL     1      -9.532  18.908  69.403  1.00  0.00     0.103 C  
ENDROOT
BRANCH   2   3
HETATM    3  O   UNL     1     -10.565  18.391  68.540  1.00  0.00    -0.256 OA 
BRANCH   3   4
HETATM    4  C   UNL     1     -10.119  17.929  67.327  1.00  0.00    -0.343 A  
HETATM    5  C   UNL     1     -10.684  18.447  66.152  1.00  0.00    -0.210 A  
HETATM    6  C   UNL     1     -10.275  17.925  64.910  1.00  0.00     1.928 A  
HETATM    7  C   UNL     1     -11.734  19.519  66.108  1.00  0.00     1.786 C  
HETATM    8  C   UNL     1      -9.323  16.911  64.837  1.00  0.00     2.716 A  
HETATM    9  O   UNL     1     -12.267  19.877  65.065  1.00  0.00     3.100 OA 
HETATM   10  O   UNL     1     -12.030  20.080  67.293  1.00  0.00     1.211 OA 
HETATM   11  C   UNL     1      -8.737  16.410  66.004  1.00  0.00    -0.274 A  
HETATM   12  C   UNL     1      -9.112  16.954  67.236  1.00  0.00    -0.225 A  
BRANCH  11  13
HETATM   13  C   UNL     1      -7.716  15.304  65.950  1.00  0.00     2.659 C  
BRANCH  13  14
HETATM   14  C   UNL     1      -8.324  13.919  66.066  1.00  0.00     1.511 C  
HETATM   15  O   UNL     1      -7.628  12.921  65.889  1.00  0.00     1.807 OA 
HETATM   16  N   UNL     1      -9.668  13.876  66.396  1.00  0.00    -0.291 N  
HETATM   17  H   UNL     1     -10.192  14.748  66.474  1.00  0.00     0.000 HD 
BRANCH  16  18
HETATM   18  C   UNL     1     -10.358  12.595  66.635  1.00  0.00    -0.236 C  
BRANCH  18  19
HETATM   19  C   UNL     1      -9.506  11.323  66.479  1.00  0.00    -0.213 A  
HETATM   20  C   UNL     1      -8.300  11.072  67.218  1.00  0.00    -0.125 A  
HETATM   21  C   UNL     1      -7.723   9.783  67.050  1.00  0.00    -0.095 A  
HETATM   22  C   UNL     1     -10.045  10.278  65.674  1.00  0.00    -0.341 A  
HETATM   23  C   UNL     1      -8.280   8.775  66.261  1.00  0.00    -0.115 A  
HETATM   24  C   UNL     1      -9.445   9.023  65.568  1.00  0.00    -0.220 A  
BRANCH  20  25
HETATM   25  N   UNL     1      -7.626  11.953  68.071  1.00  0.00    -0.113 NA 
HETATM   26  C   UNL     1      -6.147  12.016  68.071  1.00  0.00    -0.058 C  
HETATM   27  C   UNL     1      -5.702  13.482  68.030  1.00  0.00    -0.124 C  
HETATM   28  C   UNL     1      -6.258  14.250  69.224  1.00  0.00    -0.108 C  
HETATM   29  C   UNL     1      -7.767  14.107  69.283  1.00  0.00     0.100 C  
HETATM   30  C   UNL     1      -8.223  12.655  69.207  1.00  0.00     0.773 C  
ENDBRANCH  20  25
ENDBRANCH  18  19
BRANCH  18  31
HETATM   31  C   UNL     1     -11.628  12.448  65.774  1.00  0.00    -0.449 C  
HETATM   32  C   UNL     1     -10.525  12.693  63.454  1.00  0.00    -0.108 C  
HETATM   33  C   UNL     1     -11.432  11.859  64.362  1.00  0.00    -0.393 C  
HETATM   34  C   UNL     1     -12.803  11.743  63.686  1.00  0.00    -0.339 C  
ENDBRANCH  18  31
ENDBRANCH  16  18
ENDBRANCH  13  14
ENDBRANCH  11  13
ENDBRANCH   3   4
ENDBRANCH   2   3
TORSDOF 8
ENDMDL
MODEL      338
REMARK 921   NORMALIZED FREE ENERGY PREDICTED BY IDOCK:   15.25 KCAL/MOL
REMARK 922        TOTAL FREE ENERGY PREDICTED BY IDOCK:   19.99 KCAL/MOL
REMARK 923 INTER-LIGAND FREE ENERGY PREDICTED BY IDOCK:    9.27 KCAL/MOL
REMARK 924 INTRA-LIGAND FREE ENERGY PREDICTED BY IDOCK:   10.72 KCAL/MOL
REMARK 927      BINDING AFFINITY PREDICTED BY RF-SCORE:    0.00 PKD
ROOT
HETATM    1  C   UNL     1      -8.150   3.194  65.753  1.00  0.00    -0.086 C  
HETATM    2  C   UNL     1      -8.007   4.573  65.149  1.00  0.00    -0.098 C  
ENDROOT
BRANCH   2   3
HETATM    3  O   UNL     1      -7.851   5.539  66.209  1.00  0.00    -0.098 OA 
BRANCH   3   4
HETATM    4  C   UNL     1      -8.619   6.668  66.071  1.00  0.00    -0.148 A  
HETATM    5  C   UNL     1      -9.098   7.014  64.797  1.00  0.00     0.882 A  
HETATM    6  C   UNL     1      -9.828   8.208  64.644  1.00  0.00     2.690 A  
HETATM    7  C   UNL     1      -8.868   6.212  63.550  1.00  0.00     0.623 C  
HETATM    8  C   UNL     1     -10.080   9.040  65.732  1.00  0.00     0.101 A  
HETATM    9  O   UNL     1      -9.224   6.597  62.443  1.00  0.00     0.592 OA 
HETATM   10  O   UNL     1      -8.266   5.025  63.735  1.00  0.00    -0.112 OA 
HETATM   11  C   UNL     1      -9.628   8.686  67.007  1.00  0.00    -0.240 A  
HETATM   12  C   UNL     1      -8.937   7.482  67.170  1.00  0.00    -0.136 A  
BRANCH  11  13
HETATM   13  C   UNL     1      -9.877   9.577  68.197  1.00  0.00    -0.177 C  
BRANCH  13  14
HETATM   14  C   UNL     1      -9.598  11.041  67.918  1.00  0.00    -0.172 C  
HETATM   15  O   UNL     1     -10.199  11.625  67.018  1.00  0.00    -0.206 OA 
HETATM   16  N   UNL     1      -8.663  11.646  68.742  1.00  0.00    -0.352 N  
HETATM   17  H   UNL     1      -8.168  11.082  69.433  1.00  0.00     0.000 HD 
BRANCH  16  18
HETATM   18  C   UNL     1      -8.371  13.087  68.642  1.00  0.00     0.027 C  
BRANCH  18  19
HETATM   19  C   UNL     1      -9.427  13.948  67.926  1.00  0.00    -0.212 A  
HETATM   20  C   UNL     1     -10.821  13.954  68.270  1.00  0.00    -0.249 A  
HETATM   21  C   UNL     1     -11.625  14.916  67.599  1.00  0.00    -0.357 A  
HETATM   22  C   UNL     1      -8.951  14.905  66.984  1.00  0.00    -0.256 A  
HETATM   23  C   UNL     1     -11.129  15.849  66.687  1.00  0.00    -0.045 A  
HETATM   24  C   UNL     1      -9.786  15.843  66.376  1.00  0.00    -0.302 A  
BRANCH  20  25
HETATM   25  N   UNL     1     -11.477  13.114  69.178  1.00  0.00    -0.289 NA 
HETATM   26  C   UNL     1     -12.939  13.226  69.384  1.00  0.00     1.243 C  
HETATM   27  C   UNL     1     -13.563  11.827  69.355  1.00  0.00     4.117 C  
HETATM   28  C   UNL     1     -12.949  10.937  70.430  1.00  0.00    -0.172 C  
HETATM   29  C   UNL     1     -11.440  10.899  70.280  1.00  0.00    -0.391 C  
HETATM   30  C   UNL     1     -10.823  12.289  70.193  1.00  0.00     1.118 C  
ENDBRANCH  20  25
ENDBRANCH  18  19
BRANCH  18  31
HETATM   31  C   UNL     1      -6.995  13.359  68.001  1.00  0.00    -0.127 C  
HETATM   32  C   UNL     1      -6.432  10.938  67.309  1.00  0.00    -0.072 C  
HETATM   33  C   UNL     1      -6.565  12.399  66.873  1.00  0.00     0.145 C  
HETATM   34  C   UNL     1      -5.207  12.858  66.331  1.00  0.00     2.030 C  
ENDBRANCH  18  31
ENDBRANCH  16  18
ENDBRANCH  13  14
ENDBRANCH  11  13
ENDBRANCH   3   4
ENDBRANCH   2   3
TORSDOF 8
ENDMDL
MODEL      339
REMARK 921   NORMALIZED FREE ENERGY PREDICTED BY IDOCK:   15.59 KCAL/MOL
REMARK 922        TOTAL FREE ENERGY PREDICTED BY IDOCK:   20.49 KCAL/MOL
REMARK 923 INTER-LIGAND FREE ENERGY PREDICTED BY IDOCK:   15.88 KCAL/MOL
REMARK 924 INTRA-LIGAND FREE ENERGY PREDICTED BY IDOCK:    4.61 KCAL/MOL
REMARK 927      BINDING AFFINITY PREDICTED BY RF-SCORE:    0.00 PKD
ROOT
HETATM    1  C   UNL     1      -8.382  16.068  67.266  1.00  0.00    -0.205 C  
HETATM    2  C   UNL     1      -8.679  14.590  67.379  1.00  0.00    -0.199 C  
ENDROOT
BRANCH   2   3
HETATM    3  O   UNL     1     -10.032  14.346  66.941  1.00  0.00    -0.251 OA 
BRANCH   3   4
HETATM    4  C   UNL     1     -10.466  13.055  67.117  1.00  0.00    -0.243 A  
HETATM    5  C   UNL     1     -11.767  12.833  67.594  1.00  0.00    -0.422 A  
HETATM    6  C   UNL     1     -12.188  11.513  67.838  1.00  0.00     0.349 A  
HETATM    7  C   UNL     1     -12.762  13.915  67.898  1.00  0.00     0.945 C  
HETATM    8  C   UNL     1     -11.336  10.435  67.612  1.00  0.00    -0.162 A  
HETATM    9  O   UNL     1     -13.855  13.682  68.400  1.00  0.00     5.393 OA 
HETATM   10  O   UNL     1     -12.381  15.157  67.555  1.00  0.00     0.184 OA 
HETATM   11  C   UNL     1     -10.048  10.649  67.111  1.00  0.00    -0.248 A  
HETATM   12  C   UNL     1      -9.640  11.956  66.830  1.00  0.00    -0.208 A  
BRANCH  11  13
HETATM   13  C   UNL     1      -9.104   9.499  66.872  1.00  0.00    -0.158 C  
BRANCH  13  14
HETATM   14  C   UNL     1      -8.863   8.653  68.108  1.00  0.00    -0.142 C  
HETATM   15  O   UNL     1      -7.985   7.793  68.107  1.00  0.00    -0.118 OA 
HETATM   16  N   UNL     1      -9.669   8.935  69.199  1.00  0.00    -0.165 N  
HETATM   17  H   UNL     1     -10.412   9.627  69.106  1.00  0.00     0.000 HD 
BRANCH  16  18
HETATM   18  C   UNL     1      -9.473   8.254  70.492  1.00  0.00    -0.167 C  
BRANCH  18  19
HETATM   19  C   UNL     1      -8.074   7.668  70.749  1.00  0.00    -0.103 A  
HETATM   20  C   UNL     1      -6.884   8.462  70.874  1.00  0.00    -0.047 A  
HETATM   21  C   UNL     1      -5.705   7.763  71.253  1.00  0.00    -0.034 A  
HETATM   22  C   UNL     1      -7.999   6.274  71.036  1.00  0.00    -0.116 A  
HETATM   23  C   UNL     1      -5.664   6.398  71.538  1.00  0.00    -0.028 A  
HETATM   24  C   UNL     1      -6.815   5.648  71.428  1.00  0.00    -0.062 A  
BRANCH  20  25
HETATM   25  N   UNL     1      -6.753   9.838  70.655  1.00  0.00    -0.169 NA 
HETATM   26  C   UNL     1      -7.952  10.703  70.565  1.00  0.00     1.527 C  
HETATM   27  C   UNL     1      -7.742  11.952  71.428  1.00  0.00     8.669 C  
HETATM   28  C   UNL     1      -6.507  12.722  70.975  1.00  0.00     1.530 C  
HETATM   29  C   UNL     1      -5.293  11.811  70.973  1.00  0.00    -0.101 C  
HETATM   30  C   UNL     1      -5.534  10.513  70.213  1.00  0.00    -0.063 C  
ENDBRANCH  20  25
ENDBRANCH  18  19
BRANCH  18  31
HETATM   31  C   UNL     1     -10.523   7.151  70.733  1.00  0.00    -0.227 C  
HETATM   32  C   UNL     1      -9.661   5.442  69.004  1.00  0.00    -0.191 C  
HETATM   33  C   UNL     1     -10.071   5.703  70.455  1.00  0.00    -0.284 C  
HETATM   34  C   UNL     1     -11.223   4.755  70.800  1.00  0.00     1.395 C  
ENDBRANCH  18  31
ENDBRANCH  16  18
ENDBRANCH  13  14
ENDBRANCH  11  13
ENDBRANCH   3   4
ENDBRANCH   2   3
TORSDOF 8
ENDMDL
MODEL      340
REMARK 921   NORMALIZED FREE ENERGY PREDICTED BY IDOCK:   20.81 KCAL/MOL
REMARK 922        TOTAL FREE ENERGY PREDICTED BY IDOCK:   28.14 KCAL/MOL
REMARK 923 INTER-LIGAND FREE ENERGY PREDICTED BY IDOCK:   29.53 KCAL/MOL
REMARK 924 INTRA-LIGAND FREE ENERGY PREDICTED BY IDOCK:   -1.39 KCAL/MOL
REMARK 927      BINDING AFFINITY PREDICTED BY RF-SCORE:    0.00 PKD
ROOT
HETATM    1  C   UNL     1      -9.664  11.628  72.779  1.00  0.00    20.580 C  
HETATM    2  C   UNL     1      -9.187  10.216  72.522  1.00  0.00     6.885 C  
ENDROOT
BRANCH   2   3
HETATM    3  O   UNL     1     -10.147   9.537  71.687  1.00  0.00    -0.153 OA 
BRANCH   3   4
HETATM    4  C   UNL     1      -9.821   9.501  70.354  1.00  0.00    -0.271 A  
HETATM    5  C   UNL     1     -10.799   9.840  69.405  1.00  0.00    -0.256 A  
HETATM    6  C   UNL     1     -10.486   9.737  68.037  1.00  0.00    -0.271 A  
HETATM    7  C   UNL     1     -12.193  10.287  69.735  1.00  0.00    -0.006 C  
HETATM    8  C   UNL     1      -9.228   9.309  67.618  1.00  0.00    -0.139 A  
HETATM    9  O   UNL     1     -13.042  10.484  68.875  1.00  0.00     0.938 OA 
HETATM   10  O   UNL     1     -12.437  10.484  71.042  1.00  0.00    -0.329 OA 
HETATM   11  C   UNL     1      -8.242   8.996  68.560  1.00  0.00    -0.112 A  
HETATM   12  C   UNL     1      -8.537   9.135  69.919  1.00  0.00    -0.155 A  
BRANCH  11  13
HETATM   13  C   UNL     1      -6.879   8.518  68.131  1.00  0.00    -0.069 C  
BRANCH  13  14
HETATM   14  C   UNL     1      -6.761   7.007  68.085  1.00  0.00    -0.064 C  
HETATM   15  O   UNL     1      -5.662   6.468  68.203  1.00  0.00    -0.011 OA 
HETATM   16  N   UNL     1      -7.948   6.312  67.926  1.00  0.00    -0.110 N  
HETATM   17  H   UNL     1      -8.815   6.831  67.781  1.00  0.00     0.000 HD 
BRANCH  16  18
HETATM   18  C   UNL     1      -7.986   4.839  67.961  1.00  0.00    -0.085 C  
BRANCH  18  19
HETATM   19  C   UNL     1      -7.966   4.124  66.599  1.00  0.00    -0.098 A  
HETATM   20  C   UNL     1      -8.021   4.806  65.336  1.00  0.00    -0.099 A  
HETATM   21  C   UNL     1      -7.847   3.994  64.181  1.00  0.00    -0.085 A  
HETATM   22  C   UNL     1      -7.714   2.721  66.608  1.00  0.00    -0.076 A  
HETATM   23  C   UNL     1      -7.591   2.623  64.221  1.00  0.00    -0.071 A  
HETATM   24  C   UNL     1      -7.526   1.982  65.440  1.00  0.00    -0.070 A  
BRANCH  20  25
HETATM   25  N   UNL     1      -8.239   6.171  65.116  1.00  0.00    -0.139 NA 
HETATM   26  C   UNL     1      -7.129   7.048  64.680  1.00  0.00    -0.061 C  
HETATM   27  C   UNL     1      -7.603   7.925  63.516  1.00  0.00    -0.130 C  
HETATM   28  C   UNL     1      -8.806   8.768  63.928  1.00  0.00     0.127 C  
HETATM   29  C   UNL     1      -9.910   7.877  64.466  1.00  0.00     3.328 C  
HETATM   30  C   UNL     1      -9.419   6.920  65.545  1.00  0.00     0.591 C  
ENDBRANCH  20  25
ENDBRANCH  18  19
BRANCH  18  31
HETATM   31  C   UNL     1      -9.178   4.307  68.781  1.00  0.00    -0.200 C  
HETATM   32  C   UNL     1      -7.910   3.769  70.962  1.00  0.00    -0.062 C  
HETATM   33  C   UNL     1      -9.092   4.488  70.310  1.00  0.00    -0.159 C  
HETATM   34  C   UNL     1     -10.381   3.950  70.941  1.00  0.00     0.363 C  
ENDBRANCH  18  31
ENDBRANCH  16  18
ENDBRANCH  13  14
ENDBRANCH  11  13
ENDBRANCH   3   4
ENDBRANCH   2   3
TORSDOF 8
ENDMDL
MODEL      341
REMARK 921   NORMALIZED FREE ENERGY PREDICTED BY IDOCK:   22.98 KCAL/MOL
REMARK 922        TOTAL FREE ENERGY PREDICTED BY IDOCK:   31.34 KCAL/MOL
REMARK 923 INTER-LIGAND FREE ENERGY PREDICTED BY IDOCK:   21.78 KCAL/MOL
REMARK 924 INTRA-LIGAND FREE ENERGY PREDICTED BY IDOCK:    9.56 KCAL/MOL
REMARK 927      BINDING AFFINITY PREDICTED BY RF-SCORE:    0.00 PKD
ROOT
HETATM    1  C   UNL     1     -12.803  13.619  64.064  1.00  0.00     0.257 C  
HETATM    2  C   UNL     1     -11.498  13.438  64.806  1.00  0.00    -0.336 C  
ENDROOT
BRANCH   2   3
HETATM    3  O   UNL     1     -10.521  12.868  63.911  1.00  0.00    -0.413 OA 
BRANCH   3   4
HETATM    4  C   UNL     1      -9.345  12.494  64.511  1.00  0.00     0.554 A  
HETATM    5  C   UNL     1      -8.852  11.197  64.294  1.00  0.00     0.105 A  
HETATM    6  C   UNL     1      -7.683  10.791  64.963  1.00  0.00     0.139 A  
HETATM    7  C   UNL     1      -9.499  10.174  63.407  1.00  0.00    -0.261 C  
HETATM    8  C   UNL     1      -7.015  11.653  65.829  1.00  0.00     0.886 A  
HETATM    9  O   UNL     1      -9.087   9.024  63.318  1.00  0.00    -0.006 OA 
HETATM   10  O   UNL     1     -10.549  10.616  62.694  1.00  0.00     0.373 OA 
HETATM   11  C   UNL     1      -7.486  12.955  66.027  1.00  0.00     2.587 A  
HETATM   12  C   UNL     1      -8.625  13.375  65.334  1.00  0.00     2.261 A  
BRANCH  11  13
HETATM   13  C   UNL     1      -6.788  13.901  66.970  1.00  0.00     0.738 C  
BRANCH  13  14
HETATM   14  C   UNL     1      -7.024  15.362  66.637  1.00  0.00     0.911 C  
HETATM   15  O   UNL     1      -6.158  16.011  66.052  1.00  0.00     1.237 OA 
HETATM   16  N   UNL     1      -8.253  15.876  67.014  1.00  0.00    -0.198 N  
HETATM   17  H   UNL     1      -8.899  15.291  67.543  1.00  0.00     0.000 HD 
BRANCH  16  18
HETATM   18  C   UNL     1      -8.648  17.253  66.665  1.00  0.00    -0.257 C  
BRANCH  18  19
HETATM   19  C   UNL     1      -8.399  18.326  67.739  1.00  0.00    -0.261 A  
HETATM   20  C   UNL     1      -7.700  18.080  68.969  1.00  0.00    -0.110 A  
HETATM   21  C   UNL     1      -7.439  19.221  69.777  1.00  0.00     0.176 A  
HETATM   22  C   UNL     1      -8.746  19.668  67.406  1.00  0.00    -0.364 A  
HETATM   23  C   UNL     1      -7.782  20.526  69.420  1.00  0.00     0.881 A  
HETATM   24  C   UNL     1      -8.440  20.751  68.230  1.00  0.00     0.496 A  
BRANCH  20  25
HETATM   25  N   UNL     1      -7.259  16.848  69.465  1.00  0.00    -0.074 NA 
HETATM   26  C   UNL     1      -7.995  15.603  69.148  1.00  0.00    -0.227 C  
HETATM   27  C   UNL     1      -6.999  14.521  68.716  1.00  0.00    -0.104 C  
HETATM   28  C   UNL     1      -5.976  14.258  69.814  1.00  0.00    -0.120 C  
HETATM   29  C   UNL     1      -5.288  15.551  70.210  1.00  0.00    -0.133 C  
HETATM   30  C   UNL     1      -6.273  16.667  70.530  1.00  0.00     0.493 C  
ENDBRANCH  20  25
ENDBRANCH  18  19
BRANCH  18  31
HETATM   31  C   UNL     1     -10.118  17.339  66.211  1.00  0.00    -0.323 C  
HETATM   32  C   UNL     1      -9.729  17.117  63.670  1.00  0.00    11.264 C  
HETATM   33  C   UNL     1     -10.475  16.603  64.903  1.00  0.00     0.168 C  
HETATM   34  C   UNL     1     -11.978  16.759  64.648  1.00  0.00     1.437 C  
ENDBRANCH  18  31
ENDBRANCH  16  18
ENDBRANCH  13  14
ENDBRANCH  11  13
ENDBRANCH   3   4
ENDBRANCH   2   3
TORSDOF 8
ENDMDL
MODEL      342
REMARK 921   NORMALIZED FREE ENERGY PREDICTED BY IDOCK:   25.83 KCAL/MOL
REMARK 922        TOTAL FREE ENERGY PREDICTED BY IDOCK:   35.52 KCAL/MOL
REMARK 923 INTER-LIGAND FREE ENERGY PREDICTED BY IDOCK:   18.70 KCAL/MOL
REMARK 924 INTRA-LIGAND FREE ENERGY PREDICTED BY IDOCK:   16.81 KCAL/MOL
REMARK 927      BINDING AFFINITY PREDICTED BY RF-SCORE:    0.00 PKD
ROOT
HETATM    1  C   UNL     1     -13.441   8.224  69.287  1.00  0.00     7.166 C  
HETATM    2  C   UNL     1     -13.390   9.678  68.873  1.00  0.00     5.882 C  
ENDROOT
BRANCH   2   3
HETATM    3  O   UNL     1     -12.221   9.897  68.057  1.00  0.00     1.226 OA 
BRANCH   3   4
HETATM    4  C   UNL     1     -11.650  11.137  68.198  1.00  0.00    -0.280 A  
HETATM    5  C   UNL     1     -11.488  11.670  69.486  1.00  0.00    -0.371 A  
HETATM    6  C   UNL     1     -10.966  12.969  69.627  1.00  0.00     0.140 A  
HETATM    7  C   UNL     1     -11.861  10.964  70.757  1.00  0.00    -0.319 C  
HETATM    8  C   UNL     1     -10.608  13.723  68.511  1.00  0.00    -0.261 A  
HETATM    9  O   UNL     1     -11.790  11.502  71.855  1.00  0.00     1.026 OA 
HETATM   10  O   UNL     1     -12.254   9.688  70.609  1.00  0.00    -0.252 OA 
HETATM   11  C   UNL     1     -10.742  13.186  67.227  1.00  0.00    -0.262 A  
HETATM   12  C   UNL     1     -11.224  11.882  67.086  1.00  0.00    -0.377 A  
BRANCH  11  13
HETATM   13  C   UNL     1     -10.375  13.988  66.005  1.00  0.00    -0.312 C  
BRANCH  13  14
HETATM   14  C   UNL     1      -9.272  14.998  66.259  1.00  0.00    -0.289 C  
HETATM   15  O   UNL     1      -8.234  14.959  65.600  1.00  0.00     1.663 OA 
HETATM   16  N   UNL     1      -9.530  15.941  67.239  1.00  0.00    -0.211 N  
HETATM   17  H   UNL     1     -10.392  15.876  67.780  1.00  0.00     0.000 HD 
BRANCH  16  18
HETATM   18  C   UNL     1      -8.583  17.036  67.518  1.00  0.00    -0.205 C  
BRANCH  18  19
HETATM   19  C   UNL     1      -9.192  18.342  68.058  1.00  0.00    -0.300 A  
HETATM   20  C   UNL     1     -10.339  18.392  68.922  1.00  0.00    -0.136 A  
HETATM   21  C   UNL     1     -10.674  19.675  69.438  1.00  0.00     0.770 A  
HETATM   22  C   UNL     1      -8.470  19.544  67.810  1.00  0.00    -0.352 A  
HETATM   23  C   UNL     1      -9.941  20.835  69.186  1.00  0.00     0.648 A  
HETATM   24  C   UNL     1      -8.835  20.771  68.366  1.00  0.00     0.628 A  
BRANCH  20  25
HETATM   25  N   UNL     1     -11.165  17.329  69.302  1.00  0.00     0.405 NA 
HETATM   26  C   UNL     1     -12.040  16.665  68.309  1.00  0.00     1.007 C  
HETATM   27  C   UNL     1     -11.904  15.145  68.448  1.00  0.00    -0.293 C  
HETATM   28  C   UNL     1     -12.277  14.696  69.857  1.00  0.00    -0.365 C  
HETATM   29  C   UNL     1     -11.449  15.446  70.883  1.00  0.00    -0.396 C  
HETATM   30  C   UNL     1     -11.487  16.955  70.679  1.00  0.00     0.708 C  
ENDBRANCH  20  25
ENDBRANCH  18  19
BRANCH  18  31
HETATM   31  C   UNL     1      -7.704  17.370  66.296  1.00  0.00    -0.340 C  
HETATM   32  C   UNL     1      -5.398  17.077  67.417  1.00  0.00    -0.161 C  
HETATM   33  C   UNL     1      -6.315  16.701  66.251  1.00  0.00     0.462 C  
HETATM   34  C   UNL     1      -5.617  17.109  64.948  1.00  0.00     2.454 C  
ENDBRANCH  18  31
ENDBRANCH  16  18
ENDBRANCH  13  14
ENDBRANCH  11  13
ENDBRANCH   3   4
ENDBRANCH   2   3
TORSDOF 8
ENDMDL
MODEL      343
REMARK 921   NORMALIZED FREE ENERGY PREDICTED BY IDOCK:   29.62 KCAL/MOL
REMARK 922        TOTAL FREE ENERGY PREDICTED BY IDOCK:   41.08 KCAL/MOL
REMARK 923 INTER-LIGAND FREE ENERGY PREDICTED BY IDOCK:   36.54 KCAL/MOL
REMARK 924 INTRA-LIGAND FREE ENERGY PREDICTED BY IDOCK:    4.54 KCAL/MOL
REMARK 927      BINDING AFFINITY PREDICTED BY RF-SCORE:    0.00 PKD
ROOT
HETATM    1  C   UNL     1      -8.385  16.068  67.267  1.00  0.00    -0.205 C  
HETATM    2  C   UNL     1      -8.700  14.594  67.381  1.00  0.00    -0.197 C  
ENDROOT
BRANCH   2   3
HETATM    3  O   UNL     1     -10.051  14.364  66.931  1.00  0.00    -0.252 OA 
BRANCH   3   4
HETATM    4  C   UNL     1     -10.504  13.080  67.111  1.00  0.00    -0.243 A  
HETATM    5  C   UNL     1     -11.817  12.879  67.562  1.00  0.00    -0.407 A  
HETATM    6  C   UNL     1     -12.259  11.566  67.813  1.00  0.00     0.435 A  
HETATM    7  C   UNL     1     -12.806  13.975  67.833  1.00  0.00     1.399 C  
HETATM    8  C   UNL     1     -11.415  10.475  67.617  1.00  0.00    -0.078 A  
HETATM    9  O   UNL     1     -13.912  13.760  68.315  1.00  0.00     6.505 OA 
HETATM   10  O   UNL     1     -12.404  15.208  67.485  1.00  0.00     0.184 OA 
HETATM   11  C   UNL     1     -10.114  10.669  67.141  1.00  0.00    -0.248 A  
HETATM   12  C   UNL     1      -9.685  11.968  66.855  1.00  0.00    -0.213 A  
BRANCH  11  13
HETATM   13  C   UNL     1      -9.179   9.506  66.935  1.00  0.00    -0.174 C  
BRANCH  13  14
HETATM   14  C   UNL     1      -8.983   8.665  68.182  1.00  0.00    -0.141 C  
HETATM   15  O   UNL     1      -9.540   8.978  69.233  1.00  0.00    -0.158 OA 
HETATM   16  N   UNL     1      -8.177   7.548  68.037  1.00  0.00    -0.123 N  
HETATM   17  H   UNL     1      -7.707   7.383  67.147  1.00  0.00     0.000 HD 
BRANCH  16  18
HETATM   18  C   UNL     1      -7.983   6.594  69.144  1.00  0.00    -0.112 C  
BRANCH  18  19
HETATM   19  C   UNL     1      -9.087   6.561  70.216  1.00  0.00    -0.155 A  
HETATM   20  C   UNL     1     -10.436   6.137  69.963  1.00  0.00    -0.234 A  
HETATM   21  C   UNL     1     -11.282   6.036  71.102  1.00  0.00    -0.328 A  
HETATM   22  C   UNL     1      -8.691   6.812  71.561  1.00  0.00    -0.127 A  
HETATM   23  C   UNL     1     -10.862   6.278  72.410  1.00  0.00    -0.277 A  
HETATM   24  C   UNL     1      -9.561   6.670  72.642  1.00  0.00    -0.156 A  
BRANCH  20  25
HETATM   25  N   UNL     1     -11.012   5.827  68.725  1.00  0.00    -0.234 NA 
HETATM   26  C   UNL     1     -10.161   5.601  67.535  1.00  0.00    -0.202 C  
HETATM   27  C   UNL     1     -10.629   4.333  66.812  1.00  0.00     0.612 C  
HETATM   28  C   UNL     1     -12.090   4.456  66.394  1.00  0.00     7.203 C  
HETATM   29  C   UNL     1     -12.953   4.785  67.598  1.00  0.00    18.535 C  
HETATM   30  C   UNL     1     -12.428   5.976  68.389  1.00  0.00     6.158 C  
ENDBRANCH  20  25
ENDBRANCH  18  19
BRANCH  18  31
HETATM   31  C   UNL     1      -6.622   6.781  69.842  1.00  0.00    -0.048 C  
HETATM   32  C   UNL     1      -7.128   9.010  71.037  1.00  0.00    -0.103 C  
HETATM   33  C   UNL     1      -6.636   7.568  71.169  1.00  0.00    -0.039 C  
HETATM   34  C   UNL     1      -5.211   7.602  71.733  1.00  0.00    -0.035 C  
ENDBRANCH  18  31
ENDBRANCH  16  18
ENDBRANCH  13  14
ENDBRANCH  11  13
ENDBRANCH   3   4
ENDBRANCH   2   3
TORSDOF 8
ENDMDL
MODEL      344
REMARK 921   NORMALIZED FREE ENERGY PREDICTED BY IDOCK:   45.88 KCAL/MOL
REMARK 922        TOTAL FREE ENERGY PREDICTED BY IDOCK:   64.94 KCAL/MOL
REMARK 923 INTER-LIGAND FREE ENERGY PREDICTED BY IDOCK:   56.21 KCAL/MOL
REMARK 924 INTRA-LIGAND FREE ENERGY PREDICTED BY IDOCK:    8.73 KCAL/MOL
REMARK 927      BINDING AFFINITY PREDICTED BY RF-SCORE:    0.00 PKD
ROOT
HETATM    1  C   UNL     1     -12.377  17.405  71.905  1.00  0.00     4.205 C  
HETATM    2  C   UNL     1     -11.455  17.220  70.720  1.00  0.00     1.702 C  
ENDROOT
BRANCH   2   3
HETATM    3  O   UNL     1     -12.043  17.846  69.562  1.00  0.00     4.001 OA 
BRANCH   3   4
HETATM    4  C   UNL     1     -11.251  17.835  68.441  1.00  0.00     0.521 A  
HETATM    5  C   UNL     1     -11.647  18.580  67.319  1.00  0.00     1.312 A  
HETATM    6  C   UNL     1     -10.871  18.514  66.148  1.00  0.00    -0.068 A  
HETATM    7  C   UNL     1     -12.875  19.441  67.255  1.00  0.00     5.692 C  
HETATM    8  C   UNL     1      -9.723  17.727  66.091  1.00  0.00    -0.230 A  
HETATM    9  O   UNL     1     -13.233  20.001  66.226  1.00  0.00     5.712 OA 
HETATM   10  O   UNL     1     -13.541  19.577  68.414  1.00  0.00     7.094 OA 
HETATM   11  C   UNL     1      -9.309  17.004  67.214  1.00  0.00    -0.238 A  
HETATM   12  C   UNL     1     -10.057  17.098  68.392  1.00  0.00    -0.314 A  
BRANCH  11  13
HETATM   13  C   UNL     1      -8.079  16.135  67.171  1.00  0.00    -0.223 C  
BRANCH  13  14
HETATM   14  C   UNL     1      -7.687  15.583  68.528  1.00  0.00    -0.132 C  
HETATM   15  O   UNL     1      -8.115  16.106  69.556  1.00  0.00    -0.172 OA 
HETATM   16  N   UNL     1      -6.858  14.474  68.513  1.00  0.00    -0.090 N  
HETATM   17  H   UNL     1      -6.502  14.129  67.622  1.00  0.00     0.000 HD 
BRANCH  16  18
HETATM   18  C   UNL     1      -6.481  13.781  69.759  1.00  0.00    -0.079 C  
BRANCH  18  19
HETATM   19  C   UNL     1      -6.707  12.259  69.787  1.00  0.00     0.118 A  
HETATM   20  C   UNL     1      -7.611  11.568  68.911  1.00  0.00    -0.102 A  
HETATM   21  C   UNL     1      -7.584  10.148  68.982  1.00  0.00    -0.096 A  
HETATM   22  C   UNL     1      -5.845  11.493  70.623  1.00  0.00    -0.087 A  
HETATM   23  C   UNL     1      -6.720   9.423  69.804  1.00  0.00    -0.053 A  
HETATM   24  C   UNL     1      -5.848  10.098  70.631  1.00  0.00    -0.096 A  
BRANCH  20  25
HETATM   25  N   UNL     1      -8.519  12.133  68.008  1.00  0.00    -0.162 NA 
HETATM   26  C   UNL     1      -8.248  13.454  67.396  1.00  0.00    -0.183 C  
HETATM   27  C   UNL     1      -8.511  13.377  65.888  1.00  0.00     1.427 C  
HETATM   28  C   UNL     1      -9.950  12.957  65.611  1.00  0.00    -0.245 C  
HETATM   29  C   UNL     1     -10.261  11.651  66.317  1.00  0.00    -0.262 C  
HETATM   30  C   UNL     1      -9.894  11.681  67.795  1.00  0.00    -0.179 C  
ENDBRANCH  20  25
ENDBRANCH  18  19
BRANCH  18  31
HETATM   31  C   UNL     1      -7.154  14.404  70.998  1.00  0.00     1.277 C  
HETATM   32  C   UNL     1      -7.700  12.217  72.253  1.00  0.00    14.250 C  
HETATM   33  C   UNL     1      -7.049  13.601  72.310  1.00  0.00     5.040 C  
HETATM   34  C   UNL     1      -7.726  14.399  73.429  1.00  0.00     6.872 C  
ENDBRANCH  18  31
ENDBRANCH  16  18
ENDBRANCH  13  14
ENDBRANCH  11  13
ENDBRANCH   3   4
ENDBRANCH   2   3
TORSDOF 8
ENDMDL
MODEL      345
REMARK 921   NORMALIZED FREE ENERGY PREDICTED BY IDOCK:   48.85 KCAL/MOL
REMARK 922        TOTAL FREE ENERGY PREDICTED BY IDOCK:   69.30 KCAL/MOL
REMARK 923 INTER-LIGAND FREE ENERGY PREDICTED BY IDOCK:   31.39 KCAL/MOL
REMARK 924 INTRA-LIGAND FREE ENERGY PREDICTED BY IDOCK:   37.91 KCAL/MOL
REMARK 927      BINDING AFFINITY PREDICTED BY RF-SCORE:    0.00 PKD
ROOT
HETATM    1  C   UNL     1      -9.925   5.053  67.754  1.00  0.00    -0.198 C  
HETATM    2  C   UNL     1     -11.211   5.564  68.365  1.00  0.00     0.692 C  
ENDROOT
BRANCH   2   3
HETATM    3  O   UNL     1     -11.039   6.946  68.740  1.00  0.00    -0.185 OA 
BRANCH   3   4
HETATM    4  C   UNL     1      -9.775   7.441  68.537  1.00  0.00    -0.151 A  
HETATM    5  C   UNL     1      -8.965   6.856  67.551  1.00  0.00    -0.116 A  
HETATM    6  C   UNL     1      -7.646   7.319  67.390  1.00  0.00    -0.105 A  
HETATM    7  C   UNL     1      -9.389   5.732  66.652  1.00  0.00    -0.146 C  
HETATM    8  C   UNL     1      -7.142   8.343  68.188  1.00  0.00    -0.085 A  
HETATM    9  O   UNL     1      -8.620   5.189  65.869  1.00  0.00    -0.120 OA 
HETATM   10  O   UNL     1     -10.683   5.380  66.746  1.00  0.00    -0.284 OA 
HETATM   11  C   UNL     1      -7.954   8.947  69.153  1.00  0.00    -0.105 A  
HETATM   12  C   UNL     1      -9.277   8.517  69.289  1.00  0.00    -0.153 A  
BRANCH  11  13
HETATM   13  C   UNL     1      -7.426  10.047  70.037  1.00  0.00    -0.181 C  
BRANCH  13  14
HETATM   14  C   UNL     1      -8.426  11.163  70.269  1.00  0.00     2.362 C  
HETATM   15  O   UNL     1      -9.465  10.944  70.890  1.00  0.00     2.291 OA 
HETATM   16  N   UNL     1      -8.075  12.403  69.762  1.00  0.00     0.960 N  
HETATM   17  H   UNL     1      -7.221  12.495  69.213  1.00  0.00     0.000 HD 
BRANCH  16  18
HETATM   18  C   UNL     1      -8.911  13.593  70.002  1.00  0.00     2.630 C  
BRANCH  18  19
HETATM   19  C   UNL     1      -8.165  14.930  70.156  1.00  0.00     0.632 A  
HETATM   20  C   UNL     1      -8.819  16.206  70.244  1.00  0.00     1.521 A  
HETATM   21  C   UNL     1      -7.979  17.319  70.527  1.00  0.00     3.846 A  
HETATM   22  C   UNL     1      -6.760  14.865  70.384  1.00  0.00     0.040 A  
HETATM   23  C   UNL     1      -6.605  17.222  70.757  1.00  0.00     1.889 A  
HETATM   24  C   UNL     1      -5.992  15.990  70.683  1.00  0.00     0.174 A  
BRANCH  20  25
HETATM   25  N   UNL     1     -10.181  16.478  70.071  1.00  0.00     0.019 NA 
HETATM   26  C   UNL     1     -10.902  15.977  68.880  1.00  0.00    -0.286 C  
HETATM   27  C   UNL     1     -12.227  15.344  69.318  1.00  0.00    -0.219 C  
HETATM   28  C   UNL     1     -13.089  16.356  70.064  1.00  0.00     2.682 C  
HETATM   29  C   UNL     1     -12.317  16.944  71.230  1.00  0.00     2.394 C  
HETATM   30  C   UNL     1     -10.948  17.472  70.821  1.00  0.00     1.629 C  
ENDBRANCH  20  25
ENDBRANCH  18  19
BRANCH  18  31
HETATM   31  C   UNL     1      -9.852  13.411  71.210  1.00  0.00     8.402 C  
HETATM   32  C   UNL     1     -11.614  15.183  70.571  1.00  0.00    -0.340 C  
HETATM   33  C   UNL     1     -11.341  13.732  70.972  1.00  0.00     0.905 C  
HETATM   34  C   UNL     1     -12.117  13.442  72.261  1.00  0.00     0.996 C  
ENDBRANCH  18  31
ENDBRANCH  16  18
ENDBRANCH  13  14
ENDBRANCH  11  13
ENDBRANCH   3   4
ENDBRANCH   2   3
TORSDOF 8
ENDMDL
MODEL      346
REMARK 921   NORMALIZED FREE ENERGY PREDICTED BY IDOCK:   69.69 KCAL/MOL
REMARK 922        TOTAL FREE ENERGY PREDICTED BY IDOCK:   99.89 KCAL/MOL
REMARK 923 INTER-LIGAND FREE ENERGY PREDICTED BY IDOCK:   89.07 KCAL/MOL
REMARK 924 INTRA-LIGAND FREE ENERGY PREDICTED BY IDOCK:   10.82 KCAL/MOL
REMARK 927      BINDING AFFINITY PREDICTED BY RF-SCORE:    0.00 PKD
ROOT
HETATM    1  C   UNL     1     -12.436  17.409  71.923  1.00  0.00     4.822 C  
HETATM    2  C   UNL     1     -11.656  16.945  70.713  1.00  0.00     0.861 C  
ENDROOT
BRANCH   2   3
HETATM    3  O   UNL     1     -12.281  17.461  69.520  1.00  0.00     2.576 OA 
BRANCH   3   4
HETATM    4  C   UNL     1     -11.706  17.044  68.346  1.00  0.00     0.725 A  
HETATM    5  C   UNL     1     -12.069  17.677  67.147  1.00  0.00     3.185 A  
HETATM    6  C   UNL     1     -11.531  17.204  65.936  1.00  0.00     1.233 A  
HETATM    7  C   UNL     1     -13.030  18.825  67.044  1.00  0.00     7.630 C  
HETATM    8  C   UNL     1     -10.647  16.128  65.915  1.00  0.00    -0.322 A  
HETATM    9  O   UNL     1     -13.390  19.288  65.968  1.00  0.00     9.952 OA 
HETATM   10  O   UNL     1     -13.447  19.331  68.217  1.00  0.00     6.922 OA 
HETATM   11  C   UNL     1     -10.261  15.512  67.109  1.00  0.00    -0.260 A  
HETATM   12  C   UNL     1     -10.763  16.003  68.318  1.00  0.00    -0.298 A  
BRANCH  11  13
HETATM   13  C   UNL     1      -9.317  14.336  67.110  1.00  0.00    -0.233 C  
BRANCH  13  14
HETATM   14  C   UNL     1      -8.925  13.883  68.503  1.00  0.00    -0.141 C  
HETATM   15  O   UNL     1      -8.567  12.722  68.697  1.00  0.00    -0.082 OA 
HETATM   16  N   UNL     1      -8.981  14.850  69.492  1.00  0.00    -0.440 N  
HETATM   17  H   UNL     1      -9.339  15.778  69.264  1.00  0.00     0.000 HD 
BRANCH  16  18
HETATM   18  C   UNL     1      -8.534  14.567  70.868  1.00  0.00     3.157 C  
BRANCH  18  19
HETATM   19  C   UNL     1      -7.535  15.566  71.478  1.00  0.00     3.671 A  
HETATM   20  C   UNL     1      -6.713  16.451  70.701  1.00  0.00     1.389 A  
HETATM   21  C   UNL     1      -5.954  17.404  71.437  1.00  0.00     1.397 A  
HETATM   22  C   UNL     1      -7.557  15.720  72.894  1.00  0.00    10.225 A  
HETATM   23  C   UNL     1      -6.005  17.538  72.825  1.00  0.00     3.410 A  
HETATM   24  C   UNL     1      -6.808  16.692  73.558  1.00  0.00     8.679 A  
BRANCH  20  25
HETATM   25  N   UNL     1      -6.566  16.474  69.310  1.00  0.00    -0.197 NA 
HETATM   26  C   UNL     1      -7.666  16.018  68.430  1.00  0.00    -0.147 C  
HETATM   27  C   UNL     1      -7.873  17.039  67.306  1.00  0.00    -0.198 C  
HETATM   28  C   UNL     1      -6.594  17.217  66.495  1.00  0.00    -0.283 C  
HETATM   29  C   UNL     1      -5.442  17.590  67.408  1.00  0.00    -0.153 C  
HETATM   30  C   UNL     1      -5.302  16.644  68.594  1.00  0.00    -0.118 C  
ENDBRANCH  20  25
ENDBRANCH  18  19
BRANCH  18  31
HETATM   31  C   UNL     1      -7.961  13.144  71.012  1.00  0.00     7.085 C  
HETATM   32  C   UNL     1      -5.968  13.708  72.550  1.00  0.00     0.701 C  
HETATM   33  C   UNL     1      -7.207  12.840  72.323  1.00  0.00     8.893 C  
HETATM   34  C   UNL     1      -6.762  11.373  72.304  1.00  0.00     5.426 C  
ENDBRANCH  18  31
ENDBRANCH  16  18
ENDBRANCH  13  14
ENDBRANCH  11  13
ENDBRANCH   3   4
ENDBRANCH   2   3
TORSDOF 8
ENDMDL
