MODEL        1
REMARK 921   NORMALIZED FREE ENERGY PREDICTED BY IDOCK:   -6.54 KCAL/MOL
REMARK 922        TOTAL FREE ENERGY PREDICTED BY IDOCK:  -12.79 KCAL/MOL
REMARK 923 INTER-LIGAND FREE ENERGY PREDICTED BY IDOCK:  -10.75 KCAL/MOL
REMARK 924 INTRA-LIGAND FREE ENERGY PREDICTED BY IDOCK:   -2.04 KCAL/MOL
REMARK 927      BINDING AFFINITY PREDICTED BY RF-SCORE:    0.00 PKD
ROOT
HETATM    1  C   UNL     1      -9.912  10.411  64.507  1.00  0.00    -0.401 C  
HETATM    2  C   UNL     1      -8.606  10.383  63.781  1.00  0.00    -0.178 C  
HETATM    3  C   UNL     1      -7.409  10.167  64.807  1.00  0.00    -0.134 C  
HETATM    4  C   UNL     1     -12.622  13.180  71.476  1.00  0.00    -0.292 A  
HETATM    5  C   UNL     1      -7.257   8.686  64.552  1.00  0.00    -0.093 C  
HETATM    6  C   UNL     1     -13.122  14.452  71.841  1.00  0.00    -0.355 A  
HETATM    7  C   UNL     1     -13.045  15.538  70.976  1.00  0.00    -0.551 A  
HETATM    8  C   UNL     1      -8.621   8.103  65.235  1.00  0.00    -0.132 C  
HETATM    9  C   UNL     1      -9.905   9.291  65.587  1.00  0.00    -0.237 C  
HETATM   10  C   UNL     1     -12.459  15.395  69.724  1.00  0.00    -0.219 A  
HETATM   11  C   UNL     1     -11.965  14.133  69.347  1.00  0.00    -0.382 A  
HETATM   12  H   UNL     1     -11.440  10.994  69.931  1.00  0.00     0.000 HD 
HETATM   13  C   UNL     1     -12.055  13.038  70.199  1.00  0.00    -0.307 A  
HETATM   14  C   UNL     1     -10.481   9.959  66.963  1.00  0.00    -0.296 C  
HETATM   15  N   UNL     1     -11.504  11.934  69.542  1.00  0.00    -0.291 NA 
HETATM   16  C   UNL     1     -11.061  12.303  68.295  1.00  0.00    -0.240 A  
HETATM   17  C   UNL     1     -11.294  13.683  68.208  1.00  0.00    -0.322 A  
HETATM   18  C   UNL     1     -10.850  14.524  67.069  1.00  0.00    -0.297 C  
HETATM   19  C   UNL     1     -10.266  11.522  67.222  1.00  0.00    -0.202 C  
HETATM   20  C   UNL     1      -9.870  13.720  66.250  1.00  0.00    -0.303 C  
HETATM   21  C   UNL     1      -9.930  11.891  64.815  1.00  0.00    -0.235 C  
HETATM   22  N   UNL     1     -10.464  12.362  66.032  1.00  0.00    -0.248 NA 
ENDROOT
BRANCH   3  23
HETATM   23  O   UNL     1      -7.662  10.096  66.323  1.00  0.00    -0.103 OA 
BRANCH  23  24
HETATM   24  C   UNL     1      -7.140  10.540  67.502  1.00  0.00    -0.089 C  
HETATM   25  O   UNL     1      -6.410  11.498  67.651  1.00  0.00    -0.056 OA 
BRANCH  24  26
HETATM   26  C   UNL     1      -7.712   9.654  68.640  1.00  0.00    -0.080 C  
HETATM   27  C   UNL     1      -8.212   9.947  69.875  1.00  0.00    -0.199 C  
BRANCH  27  28
HETATM   28  C   UNL     1      -8.860   8.971  70.865  1.00  0.00    -0.294 A  
HETATM   29  C   UNL     1     -10.170   9.146  71.325  1.00  0.00    -0.400 A  
HETATM   30  C   UNL     1      -8.174   7.854  71.413  1.00  0.00    -0.115 A  
HETATM   31  C   UNL     1      -8.778   6.953  72.351  1.00  0.00    -0.126 A  
HETATM   32  C   UNL     1     -10.812   8.231  72.194  1.00  0.00    -0.320 A  
HETATM   33  C   UNL     1     -10.120   7.133  72.734  1.00  0.00    -0.196 A  
BRANCH  32  34
HETATM   34  O   UNL     1     -12.128   8.394  72.573  1.00  0.00    -0.393 OA 
HETATM   35  C   UNL     1     -12.850   9.337  71.784  1.00  0.00    -0.382 C  
ENDBRANCH  32  34
BRANCH  33  36
HETATM   36  O   UNL     1     -10.838   6.386  73.644  1.00  0.00    -0.247 OA 
HETATM   37  C   UNL     1     -11.356   5.113  73.278  1.00  0.00    -0.290 C  
ENDBRANCH  33  36
BRANCH  31  38
HETATM   38  O   UNL     1      -8.125   5.911  72.954  1.00  0.00    -0.113 OA 
HETATM   39  C   UNL     1      -7.823   4.738  72.227  1.00  0.00    -0.098 C  
ENDBRANCH  31  38
ENDBRANCH  27  28
ENDBRANCH  24  26
ENDBRANCH  23  24
ENDBRANCH   3  23
BRANCH   5  40
HETATM   40  O   UNL     1      -7.090   8.439  63.141  1.00  0.00    -0.089 OA 
HETATM   41  C   UNL     1      -7.224   7.116  62.666  1.00  0.00    -0.075 C  
ENDBRANCH   5  40
BRANCH   8  42
HETATM   42  C   UNL     1      -8.105   7.126  66.300  1.00  0.00    -0.118 C  
HETATM   43  O   UNL     1      -6.953   7.027  66.659  1.00  0.00    -0.068 OA 
BRANCH  42  44
HETATM   44  O   UNL     1      -9.150   6.390  66.817  1.00  0.00    -0.130 OA 
HETATM   45  C   UNL     1      -9.571   6.507  68.183  1.00  0.00    -0.123 C  
ENDBRANCH  42  44
ENDBRANCH   8  42
BRANCH   6  46
HETATM   46  O   UNL     1     -13.720  14.758  73.037  1.00  0.00    -0.524 OA 
HETATM   47  C   UNL     1     -13.012  15.620  73.901  1.00  0.00    -0.406 C  
ENDBRANCH   6  46
TORSDOF 11
ENDMDL
MODEL        2
REMARK 921   NORMALIZED FREE ENERGY PREDICTED BY IDOCK:   -6.54 KCAL/MOL
REMARK 922        TOTAL FREE ENERGY PREDICTED BY IDOCK:  -12.78 KCAL/MOL
REMARK 923 INTER-LIGAND FREE ENERGY PREDICTED BY IDOCK:  -10.84 KCAL/MOL
REMARK 924 INTRA-LIGAND FREE ENERGY PREDICTED BY IDOCK:   -1.93 KCAL/MOL
REMARK 927      BINDING AFFINITY PREDICTED BY RF-SCORE:    0.00 PKD
ROOT
HETATM    1  C   UNL     1      -9.888  10.348  64.521  1.00  0.00    -0.405 C  
HETATM    2  C   UNL     1      -8.572  10.303  63.815  1.00  0.00    -0.190 C  
HETATM    3  C   UNL     1      -7.391  10.088  64.859  1.00  0.00    -0.140 C  
HETATM    4  C   UNL     1     -12.675  13.204  71.425  1.00  0.00    -0.390 A  
HETATM    5  C   UNL     1      -7.246   8.604  64.621  1.00  0.00    -0.089 C  
HETATM    6  C   UNL     1     -13.170  14.483  71.771  1.00  0.00    -0.351 A  
HETATM    7  C   UNL     1     -13.073  15.560  70.896  1.00  0.00    -0.508 A  
HETATM    8  C   UNL     1      -8.624   8.037  65.290  1.00  0.00    -0.112 C  
HETATM    9  C   UNL     1      -9.905   9.238  65.612  1.00  0.00    -0.237 C  
HETATM   10  C   UNL     1     -12.471  15.400  69.654  1.00  0.00    -0.171 A  
HETATM   11  C   UNL     1     -11.981  14.131  69.296  1.00  0.00    -0.382 A  
HETATM   12  H   UNL     1     -11.487  10.994  69.918  1.00  0.00     0.000 HD 
HETATM   13  C   UNL     1     -12.091  13.045  70.157  1.00  0.00    -0.307 A  
HETATM   14  C   UNL     1     -10.494   9.924  66.973  1.00  0.00    -0.296 C  
HETATM   15  N   UNL     1     -11.539  11.931  69.519  1.00  0.00    -0.312 NA 
HETATM   16  C   UNL     1     -11.076  12.285  68.275  1.00  0.00    -0.240 A  
HETATM   17  C   UNL     1     -11.297  13.665  68.171  1.00  0.00    -0.321 A  
HETATM   18  C   UNL     1     -10.832  14.492  67.030  1.00  0.00    -0.297 C  
HETATM   19  C   UNL     1     -10.271  11.487  67.221  1.00  0.00    -0.202 C  
HETATM   20  C   UNL     1      -9.846  13.673  66.233  1.00  0.00    -0.301 C  
HETATM   21  C   UNL     1      -9.899  11.830  64.815  1.00  0.00    -0.211 C  
HETATM   22  N   UNL     1     -10.447  12.317  66.020  1.00  0.00    -0.247 NA 
ENDROOT
BRANCH   3  23
HETATM   23  O   UNL     1      -7.666  10.034  66.372  1.00  0.00    -0.100 OA 
BRANCH  23  24
HETATM   24  C   UNL     1      -7.129  10.442  67.557  1.00  0.00    -0.086 C  
HETATM   25  O   UNL     1      -6.340  11.351  67.716  1.00  0.00    -0.053 OA 
BRANCH  24  26
HETATM   26  C   UNL     1      -7.770   9.594  68.688  1.00  0.00    -0.080 C  
HETATM   27  C   UNL     1      -8.238   9.913  69.929  1.00  0.00    -0.199 C  
BRANCH  27  28
HETATM   28  C   UNL     1      -8.963   8.982  70.910  1.00  0.00    -0.300 A  
HETATM   29  C   UNL     1      -8.338   7.858  71.460  1.00  0.00    -0.130 A  
HETATM   30  C   UNL     1     -10.318   9.167  71.294  1.00  0.00    -0.405 A  
HETATM   31  C   UNL     1     -10.997   8.285  72.197  1.00  0.00    -0.326 A  
HETATM   32  C   UNL     1      -8.964   7.015  72.410  1.00  0.00    -0.128 A  
HETATM   33  C   UNL     1     -10.308   7.204  72.777  1.00  0.00    -0.227 A  
BRANCH  32  34
HETATM   34  O   UNL     1      -8.297   5.955  72.989  1.00  0.00    -0.117 OA 
HETATM   35  C   UNL     1      -7.726   5.043  72.054  1.00  0.00    -0.104 C  
ENDBRANCH  32  34
BRANCH  33  36
HETATM   36  O   UNL     1     -10.816   6.248  73.631  1.00  0.00    -0.242 OA 
HETATM   37  C   UNL     1     -11.314   5.019  73.118  1.00  0.00    -0.321 C  
ENDBRANCH  33  36
BRANCH  31  38
HETATM   38  O   UNL     1     -12.322   8.390  72.532  1.00  0.00    -0.376 OA 
HETATM   39  C   UNL     1     -13.094   9.478  72.068  1.00  0.00    -0.438 C  
ENDBRANCH  31  38
ENDBRANCH  27  28
ENDBRANCH  24  26
ENDBRANCH  23  24
ENDBRANCH   3  23
BRANCH   5  40
HETATM   40  O   UNL     1      -7.062   8.342  63.214  1.00  0.00    -0.087 OA 
HETATM   41  C   UNL     1      -7.111   7.004  62.764  1.00  0.00    -0.060 C  
ENDBRANCH   5  40
BRANCH   8  42
HETATM   42  C   UNL     1      -8.130   7.067  66.372  1.00  0.00    -0.112 C  
HETATM   43  O   UNL     1      -6.986   6.971  66.756  1.00  0.00    -0.068 OA 
BRANCH  42  44
HETATM   44  O   UNL     1      -9.186   6.334  66.871  1.00  0.00    -0.123 OA 
HETATM   45  C   UNL     1      -9.634   6.457  68.227  1.00  0.00    -0.123 C  
ENDBRANCH  42  44
ENDBRANCH   8  42
BRANCH   6  46
HETATM   46  O   UNL     1     -13.783  14.805  72.955  1.00  0.00    -0.524 OA 
HETATM   47  C   UNL     1     -13.281  15.927  73.648  1.00  0.00    -0.408 C  
ENDBRANCH   6  46
TORSDOF 11
ENDMDL
MODEL        3
REMARK 921   NORMALIZED FREE ENERGY PREDICTED BY IDOCK:   -6.22 KCAL/MOL
REMARK 922        TOTAL FREE ENERGY PREDICTED BY IDOCK:  -12.25 KCAL/MOL
REMARK 923 INTER-LIGAND FREE ENERGY PREDICTED BY IDOCK:  -10.06 KCAL/MOL
REMARK 924 INTRA-LIGAND FREE ENERGY PREDICTED BY IDOCK:   -2.20 KCAL/MOL
REMARK 927      BINDING AFFINITY PREDICTED BY RF-SCORE:    0.00 PKD
ROOT
HETATM    1  C   UNL     1     -10.268  10.272  64.623  1.00  0.00    -0.204 C  
HETATM    2  C   UNL     1      -9.079  10.366  63.722  1.00  0.00    -0.273 C  
HETATM    3  C   UNL     1      -7.740  10.437  64.578  1.00  0.00    -0.051 C  
HETATM    4  C   UNL     1     -12.462  13.300  71.667  1.00  0.00    -0.155 A  
HETATM    5  C   UNL     1      -7.384   8.978  64.424  1.00  0.00    -0.099 C  
HETATM    6  C   UNL     1     -13.110  14.513  71.997  1.00  0.00    -0.344 A  
HETATM    7  C   UNL     1     -13.323  15.505  71.045  1.00  0.00    -0.495 A  
HETATM    8  C   UNL     1      -8.536   8.269  65.340  1.00  0.00    -0.176 C  
HETATM    9  C   UNL     1      -9.939   9.282  65.777  1.00  0.00    -0.215 C  
HETATM   10  C   UNL     1     -12.889  15.324  69.737  1.00  0.00     0.052 A  
HETATM   11  C   UNL     1     -12.251  14.118  69.395  1.00  0.00    -0.329 A  
HETATM   12  H   UNL     1     -11.152  11.169  70.148  1.00  0.00     0.000 HD 
HETATM   13  C   UNL     1     -12.051  13.114  70.336  1.00  0.00    -0.317 A  
HETATM   14  C   UNL     1     -10.432   9.993  67.164  1.00  0.00    -0.305 C  
HETATM   15  N   UNL     1     -11.418  12.044  69.698  1.00  0.00    -0.276 NA 
HETATM   16  C   UNL     1     -11.206  12.347  68.374  1.00  0.00    -0.273 A  
HETATM   17  C   UNL     1     -11.669  13.660  68.211  1.00  0.00    -0.398 A  
HETATM   18  C   UNL     1     -11.519  14.438  66.956  1.00  0.00    -0.376 C  
HETATM   19  C   UNL     1     -10.441  11.588  67.264  1.00  0.00    -0.212 C  
HETATM   20  C   UNL     1     -10.537  13.711  66.072  1.00  0.00    -0.290 C  
HETATM   21  C   UNL     1     -10.485  11.756  64.812  1.00  0.00    -0.293 C  
HETATM   22  N   UNL     1     -10.926  12.264  66.051  1.00  0.00    -0.281 NA 
ENDROOT
BRANCH   3  23
HETATM   23  O   UNL     1      -7.780  10.483  66.116  1.00  0.00    -0.130 OA 
BRANCH  23  24
HETATM   24  C   UNL     1      -7.088  10.996  67.174  1.00  0.00    -0.104 C  
HETATM   25  O   UNL     1      -6.468  10.364  68.004  1.00  0.00    -0.059 OA 
BRANCH  24  26
HETATM   26  C   UNL     1      -7.161  12.543  67.084  1.00  0.00    -0.058 C  
HETATM   27  C   UNL     1      -7.377  13.513  68.019  1.00  0.00    -0.133 C  
BRANCH  27  28
HETATM   28  C   UNL     1      -7.305  15.031  67.810  1.00  0.00    -0.183 A  
HETATM   29  C   UNL     1      -6.496  15.849  68.605  1.00  0.00    -0.113 A  
HETATM   30  C   UNL     1      -8.078  15.715  66.833  1.00  0.00    -0.290 A  
HETATM   31  C   UNL     1      -8.021  17.136  66.652  1.00  0.00    -0.265 A  
HETATM   32  C   UNL     1      -6.368  17.244  68.398  1.00  0.00    -0.162 A  
HETATM   33  C   UNL     1      -7.142  17.910  67.432  1.00  0.00    -0.187 A  
BRANCH  32  34
HETATM   34  O   UNL     1      -5.506  18.012  69.152  1.00  0.00    -0.185 OA 
HETATM   35  C   UNL     1      -5.282  17.515  70.470  1.00  0.00    -0.264 C  
ENDBRANCH  32  34
BRANCH  33  36
HETATM   36  O   UNL     1      -6.989  19.280  67.410  1.00  0.00    -0.204 OA 
HETATM   37  C   UNL     1      -6.279  19.907  66.349  1.00  0.00    -0.176 C  
ENDBRANCH  33  36
BRANCH  31  38
HETATM   38  O   UNL     1      -8.804  17.836  65.772  1.00  0.00    -0.501 OA 
HETATM   39  C   UNL     1     -10.163  18.086  66.066  1.00  0.00    -0.303 C  
ENDBRANCH  31  38
ENDBRANCH  27  28
ENDBRANCH  24  26
ENDBRANCH  23  24
ENDBRANCH   3  23
BRANCH   5  40
HETATM   40  O   UNL     1      -7.365   8.615  63.027  1.00  0.00    -0.094 OA 
HETATM   41  C   UNL     1      -6.921   7.323  62.670  1.00  0.00    -0.073 C  
ENDBRANCH   5  40
BRANCH   8  42
HETATM   42  C   UNL     1      -7.734   7.494  66.395  1.00  0.00    -0.089 C  
HETATM   43  O   UNL     1      -8.208   6.908  67.343  1.00  0.00    -0.117 OA 
BRANCH  42  44
HETATM   44  O   UNL     1      -6.389   7.534  66.094  1.00  0.00    -0.041 OA 
HETATM   45  C   UNL     1      -5.373   7.293  67.076  1.00  0.00    -0.022 C  
ENDBRANCH  42  44
ENDBRANCH   8  42
BRANCH   6  46
HETATM   46  O   UNL     1     -13.589  14.846  73.238  1.00  0.00    -0.513 OA 
HETATM   47  C   UNL     1     -12.865  15.817  73.961  1.00  0.00    -0.480 C  
ENDBRANCH   6  46
TORSDOF 11
ENDMDL
MODEL        4
REMARK 921   NORMALIZED FREE ENERGY PREDICTED BY IDOCK:   -6.08 KCAL/MOL
REMARK 922        TOTAL FREE ENERGY PREDICTED BY IDOCK:  -12.03 KCAL/MOL
REMARK 923 INTER-LIGAND FREE ENERGY PREDICTED BY IDOCK:  -10.26 KCAL/MOL
REMARK 924 INTRA-LIGAND FREE ENERGY PREDICTED BY IDOCK:   -1.77 KCAL/MOL
REMARK 927      BINDING AFFINITY PREDICTED BY RF-SCORE:    0.00 PKD
ROOT
HETATM    1  C   UNL     1      -6.895   7.316  69.295  1.00  0.00    -0.054 C  
HETATM    2  C   UNL     1      -7.069   6.488  70.526  1.00  0.00    -0.065 C  
HETATM    3  C   UNL     1      -8.405   6.901  71.286  1.00  0.00    -0.119 C  
HETATM    4  C   UNL     1      -8.261  14.871  67.139  1.00  0.00    -0.244 A  
HETATM    5  C   UNL     1      -9.241   5.764  70.749  1.00  0.00    -0.152 C  
HETATM    6  C   UNL     1      -7.462  16.031  67.257  1.00  0.00    -0.201 A  
HETATM    7  C   UNL     1      -6.277  16.025  67.987  1.00  0.00    -0.138 A  
HETATM    8  C   UNL     1      -9.396   6.194  69.181  1.00  0.00    -0.132 C  
HETATM    9  C   UNL     1      -8.274   7.448  68.585  1.00  0.00    -0.125 C  
HETATM   10  C   UNL     1      -5.857  14.867  68.630  1.00  0.00    -0.090 A  
HETATM   11  C   UNL     1      -6.640  13.705  68.513  1.00  0.00    -0.088 A  
HETATM   12  H   UNL     1      -9.212  12.112  67.364  1.00  0.00     0.000 HD 
HETATM   13  C   UNL     1      -7.815  13.697  67.770  1.00  0.00    -0.171 A  
HETATM   14  C   UNL     1      -8.449   9.022  68.184  1.00  0.00    -0.129 C  
HETATM   15  N   UNL     1      -8.352  12.407  67.823  1.00  0.00    -0.153 NA 
HETATM   16  C   UNL     1      -7.547  11.596  68.588  1.00  0.00    -0.133 A  
HETATM   17  C   UNL     1      -6.522  12.427  69.063  1.00  0.00    -0.097 A  
HETATM   18  C   UNL     1      -5.491  11.989  70.036  1.00  0.00    -0.109 C  
HETATM   19  C   UNL     1      -7.735  10.140  69.075  1.00  0.00    -0.100 C  
HETATM   20  C   UNL     1      -5.938  10.676  70.630  1.00  0.00    -0.097 C  
HETATM   21  C   UNL     1      -6.156   8.466  69.938  1.00  0.00    -0.031 C  
HETATM   22  N   UNL     1      -6.373   9.790  69.503  1.00  0.00    -0.044 NA 
ENDROOT
BRANCH   3  23
HETATM   23  O   UNL     1      -9.280   8.062  70.783  1.00  0.00    -0.153 OA 
BRANCH  23  24
HETATM   24  C   UNL     1     -10.308   8.861  71.190  1.00  0.00    -0.268 C  
HETATM   25  O   UNL     1     -10.843   8.848  72.280  1.00  0.00    -0.332 OA 
BRANCH  24  26
HETATM   26  C   UNL     1     -10.624   9.853  70.040  1.00  0.00    -0.335 C  
HETATM   27  C   UNL     1     -11.486  10.905  69.939  1.00  0.00    -0.402 C  
BRANCH  27  28
HETATM   28  C   UNL     1     -11.613  11.886  68.766  1.00  0.00    -0.366 A  
HETATM   29  C   UNL     1     -11.740  13.265  68.967  1.00  0.00    -0.368 A  
HETATM   30  C   UNL     1     -11.653  11.470  67.409  1.00  0.00    -0.307 A  
HETATM   31  C   UNL     1     -11.790  12.388  66.317  1.00  0.00    -0.364 A  
HETATM   32  C   UNL     1     -11.803  14.197  67.904  1.00  0.00    -0.370 A  
HETATM   33  C   UNL     1     -11.848  13.772  66.564  1.00  0.00    -0.407 A  
BRANCH  32  34
HETATM   34  O   UNL     1     -11.856  15.557  68.134  1.00  0.00    -0.301 OA 
HETATM   35  C   UNL     1     -11.238  15.967  69.352  1.00  0.00    -0.336 C  
ENDBRANCH  32  34
BRANCH  33  36
HETATM   36  O   UNL     1     -12.012  14.782  65.640  1.00  0.00    -0.284 OA 
HETATM   37  C   UNL     1     -10.902  15.253  64.887  1.00  0.00    -0.425 C  
ENDBRANCH  33  36
BRANCH  31  38
HETATM   38  O   UNL     1     -11.906  12.018  65.003  1.00  0.00    -0.318 OA 
HETATM   39  C   UNL     1     -10.795  11.489  64.307  1.00  0.00    -0.359 C  
ENDBRANCH  31  38
ENDBRANCH  27  28
ENDBRANCH  24  26
ENDBRANCH  23  24
ENDBRANCH   3  23
BRANCH   5  40
HETATM   40  O   UNL     1      -8.590   4.502  71.006  1.00  0.00    -0.101 OA 
HETATM   41  C   UNL     1      -9.318   3.311  70.796  1.00  0.00    -0.153 C  
ENDBRANCH   5  40
BRANCH   8  42
HETATM   42  C   UNL     1     -10.914   6.302  68.982  1.00  0.00    -0.372 C  
HETATM   43  O   UNL     1     -11.739   6.280  69.868  1.00  0.00    -0.408 OA 
BRANCH  42  44
HETATM   44  O   UNL     1     -11.208   6.459  67.644  1.00  0.00    -0.337 OA 
HETATM   45  C   UNL     1     -10.696   5.577  66.636  1.00  0.00    -0.261 C  
ENDBRANCH  42  44
ENDBRANCH   8  42
BRANCH   6  46
HETATM   46  O   UNL     1      -7.740  17.249  66.692  1.00  0.00    -0.212 OA 
HETATM   47  C   UNL     1      -9.005  17.808  66.971  1.00  0.00    -0.252 C  
ENDBRANCH   6  46
TORSDOF 11
ENDMDL
MODEL        5
REMARK 921   NORMALIZED FREE ENERGY PREDICTED BY IDOCK:   -6.04 KCAL/MOL
REMARK 922        TOTAL FREE ENERGY PREDICTED BY IDOCK:  -11.96 KCAL/MOL
REMARK 923 INTER-LIGAND FREE ENERGY PREDICTED BY IDOCK:   -9.14 KCAL/MOL
REMARK 924 INTRA-LIGAND FREE ENERGY PREDICTED BY IDOCK:   -2.83 KCAL/MOL
REMARK 927      BINDING AFFINITY PREDICTED BY RF-SCORE:    0.00 PKD
ROOT
HETATM    1  C   UNL     1     -12.148  13.210  68.771  1.00  0.00    -0.226 C  
HETATM    2  C   UNL     1     -11.525  14.335  69.533  1.00  0.00    -0.336 C  
HETATM    3  C   UNL     1      -9.996  14.499  69.123  1.00  0.00    -0.106 C  
HETATM    4  C   UNL     1      -9.904   6.010  66.181  1.00  0.00    -0.032 A  
HETATM    5  C   UNL     1     -10.218  15.647  68.168  1.00  0.00    -0.228 C  
HETATM    6  C   UNL     1      -9.925   4.745  66.813  1.00  0.00    -0.228 A  
HETATM    7  C   UNL     1     -10.223   4.615  68.166  1.00  0.00    -0.003 A  
HETATM    8  C   UNL     1     -10.994  14.897  66.942  1.00  0.00    -0.327 C  
HETATM    9  C   UNL     1     -11.663  13.280  67.294  1.00  0.00    -0.424 C  
HETATM   10  C   UNL     1     -10.499   5.740  68.933  1.00  0.00    -0.326 A  
HETATM   11  C   UNL     1     -10.489   7.003  68.313  1.00  0.00    -0.237 A  
HETATM   12  H   UNL     1     -10.143   8.888  65.705  1.00  0.00     0.000 HD 
HETATM   13  C   UNL     1     -10.211   7.140  66.957  1.00  0.00    -0.269 A  
HETATM   14  C   UNL     1     -11.236  11.762  66.865  1.00  0.00    -0.387 C  
HETATM   15  N   UNL     1     -10.296   8.497  66.634  1.00  0.00    -0.284 NA 
HETATM   16  C   UNL     1     -10.617   9.226  67.754  1.00  0.00    -0.246 A  
HETATM   17  C   UNL     1     -10.672   8.297  68.802  1.00  0.00    -0.076 A  
HETATM   18  C   UNL     1     -10.867   8.671  70.226  1.00  0.00    -0.250 C  
HETATM   19  C   UNL     1     -10.706  10.753  67.986  1.00  0.00    -0.228 C  
HETATM   20  C   UNL     1     -10.663  10.161  70.349  1.00  0.00    -0.266 C  
HETATM   21  C   UNL     1     -11.787  12.102  69.733  1.00  0.00    -0.327 C  
HETATM   22  N   UNL     1     -11.446  10.820  69.255  1.00  0.00    -0.275 NA 
ENDROOT
BRANCH   3  23
HETATM   23  O   UNL     1      -9.328  13.528  68.135  1.00  0.00    -0.203 OA 
BRANCH  23  24
HETATM   24  C   UNL     1      -8.106  12.999  67.839  1.00  0.00    -0.158 C  
HETATM   25  O   UNL     1      -7.221  13.537  67.206  1.00  0.00    -0.137 OA 
BRANCH  24  26
HETATM   26  C   UNL     1      -8.008  11.613  68.531  1.00  0.00    -0.144 C  
HETATM   27  C   UNL     1      -7.201  10.532  68.322  1.00  0.00    -0.083 C  
BRANCH  27  28
HETATM   28  C   UNL     1      -7.133   9.254  69.167  1.00  0.00    -0.062 A  
HETATM   29  C   UNL     1      -7.051   7.986  68.583  1.00  0.00    -0.072 A  
HETATM   30  C   UNL     1      -7.189   9.260  70.587  1.00  0.00    -0.120 A  
HETATM   31  C   UNL     1      -7.143   8.062  71.373  1.00  0.00    -0.063 A  
HETATM   32  C   UNL     1      -6.931   6.794  69.338  1.00  0.00    -0.067 A  
HETATM   33  C   UNL     1      -6.994   6.813  70.743  1.00  0.00    -0.067 A  
BRANCH  32  34
HETATM   34  O   UNL     1      -6.779   5.564  68.732  1.00  0.00    -0.049 OA 
HETATM   35  C   UNL     1      -6.347   5.631  67.375  1.00  0.00    -0.042 C  
ENDBRANCH  32  34
BRANCH  33  36
HETATM   36  O   UNL     1      -6.967   5.571  71.341  1.00  0.00    -0.062 OA 
HETATM   37  C   UNL     1      -8.179   4.896  71.650  1.00  0.00    -0.114 C  
ENDBRANCH  33  36
BRANCH  31  38
HETATM   38  O   UNL     1      -7.268   8.025  72.736  1.00  0.00    -0.084 OA 
HETATM   39  C   UNL     1      -8.545   8.074  73.340  1.00  0.00    -0.246 C  
ENDBRANCH  31  38
ENDBRANCH  27  28
ENDBRANCH  24  26
ENDBRANCH  23  24
ENDBRANCH   3  23
BRANCH   5  40
HETATM   40  O   UNL     1     -10.938  16.710  68.826  1.00  0.00    -0.328 OA 
HETATM   41  C   UNL     1     -10.494  18.039  68.648  1.00  0.00    -0.226 C  
ENDBRANCH   5  40
BRANCH   8  42
HETATM   42  C   UNL     1     -10.089  15.154  65.728  1.00  0.00    -0.346 C  
HETATM   43  O   UNL     1      -9.052  15.778  65.749  1.00  0.00    -0.308 OA 
BRANCH  42  44
HETATM   44  O   UNL     1     -10.613  14.545  64.608  1.00  0.00    -0.405 OA 
HETATM   45  C   UNL     1     -11.980  14.714  64.208  1.00  0.00    -0.386 C  
ENDBRANCH  42  44
ENDBRANCH   8  42
BRANCH   6  46
HETATM   46  O   UNL     1      -9.669   3.545  66.200  1.00  0.00    -0.140 OA 
HETATM   47  C   UNL     1      -8.925   2.599  66.936  1.00  0.00    -0.145 C  
ENDBRANCH   6  46
TORSDOF 11
ENDMDL
MODEL        6
REMARK 921   NORMALIZED FREE ENERGY PREDICTED BY IDOCK:   -6.03 KCAL/MOL
REMARK 922        TOTAL FREE ENERGY PREDICTED BY IDOCK:  -11.95 KCAL/MOL
REMARK 923 INTER-LIGAND FREE ENERGY PREDICTED BY IDOCK:  -10.19 KCAL/MOL
REMARK 924 INTRA-LIGAND FREE ENERGY PREDICTED BY IDOCK:   -1.77 KCAL/MOL
REMARK 927      BINDING AFFINITY PREDICTED BY RF-SCORE:    0.00 PKD
ROOT
HETATM    1  C   UNL     1      -6.877   7.257  69.268  1.00  0.00    -0.054 C  
HETATM    2  C   UNL     1      -7.080   6.362  70.447  1.00  0.00    -0.068 C  
HETATM    3  C   UNL     1      -8.422   6.749  71.210  1.00  0.00    -0.124 C  
HETATM    4  C   UNL     1      -8.105  14.944  67.537  1.00  0.00    -0.200 A  
HETATM    5  C   UNL     1      -9.266   5.658  70.596  1.00  0.00    -0.151 C  
HETATM    6  C   UNL     1      -7.292  16.083  67.735  1.00  0.00    -0.139 A  
HETATM    7  C   UNL     1      -6.119  16.018  68.480  1.00  0.00    -0.111 A  
HETATM    8  C   UNL     1      -9.391   6.180  69.054  1.00  0.00    -0.133 C  
HETATM    9  C   UNL     1      -8.243   7.450  68.548  1.00  0.00    -0.125 C  
HETATM   10  C   UNL     1      -5.724  14.818  69.059  1.00  0.00    -0.092 A  
HETATM   11  C   UNL     1      -6.522  13.676  68.863  1.00  0.00    -0.101 A  
HETATM   12  H   UNL     1      -9.098  12.191  67.587  1.00  0.00     0.000 HD 
HETATM   13  C   UNL     1      -7.685  13.728  68.105  1.00  0.00    -0.140 A  
HETATM   14  C   UNL     1      -8.390   9.047  68.237  1.00  0.00    -0.121 C  
HETATM   15  N   UNL     1      -8.240  12.446  68.076  1.00  0.00    -0.158 NA 
HETATM   16  C   UNL     1      -7.459  11.581  68.803  1.00  0.00    -0.119 A  
HETATM   17  C   UNL     1      -6.430  12.366  69.340  1.00  0.00    -0.103 A  
HETATM   18  C   UNL     1      -5.419  11.858  70.300  1.00  0.00    -0.131 C  
HETATM   19  C   UNL     1      -7.674  10.101  69.202  1.00  0.00    -0.112 C  
HETATM   20  C   UNL     1      -5.893  10.520  70.810  1.00  0.00    -0.093 C  
HETATM   21  C   UNL     1      -6.131   8.357  69.987  1.00  0.00    -0.031 C  
HETATM   22  N   UNL     1      -6.324   9.707  69.628  1.00  0.00    -0.043 NA 
ENDROOT
BRANCH   3  23
HETATM   23  O   UNL     1      -9.273   7.951  70.764  1.00  0.00    -0.154 OA 
BRANCH  23  24
HETATM   24  C   UNL     1     -10.264   8.769  71.221  1.00  0.00    -0.262 C  
HETATM   25  O   UNL     1     -10.767   8.744  72.325  1.00  0.00    -0.344 OA 
BRANCH  24  26
HETATM   26  C   UNL     1     -10.581   9.800  70.106  1.00  0.00    -0.337 C  
HETATM   27  C   UNL     1     -11.459  10.843  70.035  1.00  0.00    -0.411 C  
BRANCH  27  28
HETATM   28  C   UNL     1     -11.587  11.867  68.901  1.00  0.00    -0.370 A  
HETATM   29  C   UNL     1     -11.588  11.482  67.555  1.00  0.00    -0.322 A  
HETATM   30  C   UNL     1     -11.671  13.267  69.127  1.00  0.00    -0.379 A  
HETATM   31  C   UNL     1     -11.773  14.222  68.063  1.00  0.00    -0.351 A  
HETATM   32  C   UNL     1     -11.760  12.400  66.491  1.00  0.00    -0.379 A  
HETATM   33  C   UNL     1     -11.836  13.784  66.728  1.00  0.00    -0.420 A  
BRANCH  32  34
HETATM   34  O   UNL     1     -11.829  11.981  65.178  1.00  0.00    -0.318 OA 
HETATM   35  C   UNL     1     -10.640  11.356  64.701  1.00  0.00    -0.318 C  
ENDBRANCH  32  34
BRANCH  33  36
HETATM   36  O   UNL     1     -11.900  14.564  65.592  1.00  0.00    -0.356 OA 
HETATM   37  C   UNL     1     -10.716  15.121  65.037  1.00  0.00    -0.430 C  
ENDBRANCH  33  36
BRANCH  31  38
HETATM   38  O   UNL     1     -11.781  15.580  68.240  1.00  0.00    -0.360 OA 
HETATM   39  C   UNL     1     -11.148  16.160  69.363  1.00  0.00    -0.335 C  
ENDBRANCH  31  38
ENDBRANCH  27  28
ENDBRANCH  24  26
ENDBRANCH  23  24
ENDBRANCH   3  23
BRANCH   5  40
HETATM   40  O   UNL     1      -8.636   4.374  70.788  1.00  0.00    -0.087 OA 
HETATM   41  C   UNL     1      -9.428   3.210  70.682  1.00  0.00    -0.163 C  
ENDBRANCH   5  40
BRANCH   8  42
HETATM   42  C   UNL     1     -10.905   6.322  68.840  1.00  0.00    -0.333 C  
HETATM   43  O   UNL     1     -11.736   6.337  69.719  1.00  0.00    -0.403 OA 
BRANCH  42  44
HETATM   44  O   UNL     1     -11.184   6.462  67.497  1.00  0.00    -0.347 OA 
HETATM   45  C   UNL     1     -10.693   5.544  66.511  1.00  0.00    -0.240 C  
ENDBRANCH  42  44
ENDBRANCH   8  42
BRANCH   6  46
HETATM   46  O   UNL     1      -7.545  17.336  67.237  1.00  0.00    -0.171 OA 
HETATM   47  C   UNL     1      -8.878  17.622  66.876  1.00  0.00    -0.246 C  
ENDBRANCH   6  46
TORSDOF 11
ENDMDL
MODEL        7
REMARK 921   NORMALIZED FREE ENERGY PREDICTED BY IDOCK:   -5.93 KCAL/MOL
REMARK 922        TOTAL FREE ENERGY PREDICTED BY IDOCK:  -11.78 KCAL/MOL
REMARK 923 INTER-LIGAND FREE ENERGY PREDICTED BY IDOCK:   -9.11 KCAL/MOL
REMARK 924 INTRA-LIGAND FREE ENERGY PREDICTED BY IDOCK:   -2.67 KCAL/MOL
REMARK 927      BINDING AFFINITY PREDICTED BY RF-SCORE:    0.00 PKD
ROOT
HETATM    1  C   UNL     1     -12.280  13.251  68.733  1.00  0.00    -0.124 C  
HETATM    2  C   UNL     1     -11.685  14.448  69.401  1.00  0.00    -0.362 C  
HETATM    3  C   UNL     1     -10.160  14.615  68.979  1.00  0.00    -0.209 C  
HETATM    4  C   UNL     1      -9.862   5.921  66.730  1.00  0.00    -0.191 A  
HETATM    5  C   UNL     1     -10.407  15.677  67.934  1.00  0.00    -0.259 C  
HETATM    6  C   UNL     1      -9.854   4.712  67.463  1.00  0.00    -0.153 A  
HETATM    7  C   UNL     1     -10.151   4.684  68.822  1.00  0.00    -0.085 A  
HETATM    8  C   UNL     1     -11.163  14.812  66.773  1.00  0.00    -0.344 C  
HETATM    9  C   UNL     1     -11.794  13.214  67.255  1.00  0.00    -0.420 C  
HETATM   10  C   UNL     1     -10.455   5.860  69.495  1.00  0.00    -0.346 A  
HETATM   11  C   UNL     1     -10.473   7.068  68.776  1.00  0.00    -0.222 A  
HETATM   12  H   UNL     1     -10.168   8.745  66.024  1.00  0.00     0.000 HD 
HETATM   13  C   UNL     1     -10.197   7.102  67.413  1.00  0.00    -0.226 A  
HETATM   14  C   UNL     1     -11.331  11.677  66.949  1.00  0.00    -0.364 C  
HETATM   15  N   UNL     1     -10.314   8.426  66.982  1.00  0.00    -0.304 NA 
HETATM   16  C   UNL     1     -10.654   9.236  68.039  1.00  0.00    -0.208 A  
HETATM   17  C   UNL     1     -10.688   8.394  69.159  1.00  0.00    -0.123 A  
HETATM   18  C   UNL     1     -10.894   8.876  70.548  1.00  0.00    -0.276 C  
HETATM   19  C   UNL     1     -10.779  10.774  68.147  1.00  0.00    -0.214 C  
HETATM   20  C   UNL     1     -10.726  10.375  70.550  1.00  0.00    -0.027 C  
HETATM   21  C   UNL     1     -11.894  12.233  69.781  1.00  0.00    -0.318 C  
HETATM   22  N   UNL     1     -11.522  10.926  69.407  1.00  0.00    -0.275 NA 
ENDROOT
BRANCH   3  23
HETATM   23  O   UNL     1      -9.467  13.584  68.072  1.00  0.00    -0.206 OA 
BRANCH  23  24
HETATM   24  C   UNL     1      -8.224  13.107  67.774  1.00  0.00    -0.168 C  
HETATM   25  O   UNL     1      -7.372  13.675  67.122  1.00  0.00    -0.075 OA 
BRANCH  24  26
HETATM   26  C   UNL     1      -8.055  11.741  68.489  1.00  0.00    -0.140 C  
HETATM   27  C   UNL     1      -7.218  10.684  68.275  1.00  0.00    -0.083 C  
BRANCH  27  28
HETATM   28  C   UNL     1      -7.077   9.427  69.143  1.00  0.00    -0.062 A  
HETATM   29  C   UNL     1      -7.140   9.483  70.539  1.00  0.00    -0.130 A  
HETATM   30  C   UNL     1      -6.833   8.136  68.602  1.00  0.00    -0.067 A  
HETATM   31  C   UNL     1      -6.684   6.967  69.417  1.00  0.00    -0.050 A  
HETATM   32  C   UNL     1      -7.069   8.332  71.361  1.00  0.00    -0.067 A  
HETATM   33  C   UNL     1      -6.821   7.061  70.814  1.00  0.00    -0.054 A  
BRANCH  32  34
HETATM   34  O   UNL     1      -7.207   8.411  72.732  1.00  0.00    -0.155 OA 
HETATM   35  C   UNL     1      -8.556   8.332  73.188  1.00  0.00    -0.209 C  
ENDBRANCH  32  34
BRANCH  33  36
HETATM   36  O   UNL     1      -6.675   6.050  71.740  1.00  0.00    -0.059 OA 
HETATM   37  C   UNL     1      -7.642   5.011  71.827  1.00  0.00    -0.104 C  
ENDBRANCH  33  36
BRANCH  31  38
HETATM   38  O   UNL     1      -6.375   5.722  68.936  1.00  0.00    -0.034 OA 
HETATM   39  C   UNL     1      -6.360   5.475  67.545  1.00  0.00    -0.042 C  
ENDBRANCH  31  38
ENDBRANCH  27  28
ENDBRANCH  24  26
ENDBRANCH  23  24
ENDBRANCH   3  23
BRANCH   5  40
HETATM   40  O   UNL     1     -11.154  16.772  68.504  1.00  0.00    -0.342 OA 
HETATM   41  C   UNL     1     -10.598  18.069  68.451  1.00  0.00    -0.236 C  
ENDBRANCH   5  40
BRANCH   8  42
HETATM   42  C   UNL     1     -10.263  14.992  65.542  1.00  0.00    -0.378 C  
HETATM   43  O   UNL     1      -9.364  15.797  65.445  1.00  0.00    -0.290 OA 
BRANCH  42  44
HETATM   44  O   UNL     1     -10.605  14.081  64.566  1.00  0.00    -0.416 OA 
HETATM   45  C   UNL     1     -11.916  14.029  63.988  1.00  0.00    -0.354 C  
ENDBRANCH  42  44
ENDBRANCH   8  42
BRANCH   6  46
HETATM   46  O   UNL     1      -9.569   3.472  66.948  1.00  0.00    -0.197 OA 
HETATM   47  C   UNL     1      -9.017   3.433  65.650  1.00  0.00    -0.142 C  
ENDBRANCH   6  46
TORSDOF 11
ENDMDL
MODEL        8
REMARK 921   NORMALIZED FREE ENERGY PREDICTED BY IDOCK:   -5.81 KCAL/MOL
REMARK 922        TOTAL FREE ENERGY PREDICTED BY IDOCK:  -11.59 KCAL/MOL
REMARK 923 INTER-LIGAND FREE ENERGY PREDICTED BY IDOCK:  -10.15 KCAL/MOL
REMARK 924 INTRA-LIGAND FREE ENERGY PREDICTED BY IDOCK:   -1.45 KCAL/MOL
REMARK 927      BINDING AFFINITY PREDICTED BY RF-SCORE:    0.00 PKD
ROOT
HETATM    1  C   UNL     1     -10.167  10.291  64.533  1.00  0.00    -0.161 C  
HETATM    2  C   UNL     1      -8.946  10.393  63.678  1.00  0.00    -0.247 C  
HETATM    3  C   UNL     1      -7.638  10.425  64.584  1.00  0.00    -0.047 C  
HETATM    4  C   UNL     1     -12.581  13.165  71.569  1.00  0.00    -0.292 A  
HETATM    5  C   UNL     1      -7.293   8.966  64.404  1.00  0.00    -0.099 C  
HETATM    6  C   UNL     1     -13.226  14.376  71.907  1.00  0.00    -0.365 A  
HETATM    7  C   UNL     1     -13.393  15.395  70.974  1.00  0.00    -0.545 A  
HETATM    8  C   UNL     1      -8.485   8.249  65.260  1.00  0.00    -0.179 C  
HETATM    9  C   UNL     1      -9.892   9.267  65.672  1.00  0.00    -0.237 C  
HETATM   10  C   UNL     1     -12.914  15.242  69.679  1.00  0.00     0.304 A  
HETATM   11  C   UNL     1     -12.277  14.038  69.329  1.00  0.00    -0.319 A  
HETATM   12  H   UNL     1     -11.241  11.057  70.044  1.00  0.00     0.000 HD 
HETATM   13  C   UNL     1     -12.123  13.008  70.250  1.00  0.00    -0.314 A  
HETATM   14  C   UNL     1     -10.426   9.948  67.058  1.00  0.00    -0.296 C  
HETATM   15  N   UNL     1     -11.480  11.947  69.607  1.00  0.00    -0.284 NA 
HETATM   16  C   UNL     1     -11.217  12.280  68.300  1.00  0.00    -0.267 A  
HETATM   17  C   UNL     1     -11.659  13.603  68.155  1.00  0.00    -0.367 A  
HETATM   18  C   UNL     1     -11.455  14.411  66.927  1.00  0.00    -0.379 C  
HETATM   19  C   UNL     1     -10.421  11.541  67.199  1.00  0.00    -0.224 C  
HETATM   20  C   UNL     1     -10.449  13.694  66.060  1.00  0.00    -0.300 C  
HETATM   21  C   UNL     1     -10.374  11.772  64.752  1.00  0.00    -0.288 C  
HETATM   22  N   UNL     1     -10.853  12.253  65.988  1.00  0.00    -0.265 NA 
ENDROOT
BRANCH   3  23
HETATM   23  O   UNL     1      -7.732  10.433  66.119  1.00  0.00    -0.118 OA 
BRANCH  23  24
HETATM   24  C   UNL     1      -7.051  10.873  67.216  1.00  0.00    -0.097 C  
HETATM   25  O   UNL     1      -6.309  10.214  67.915  1.00  0.00    -0.060 OA 
BRANCH  24  26
HETATM   26  C   UNL     1      -7.324  12.393  67.367  1.00  0.00    -0.149 C  
HETATM   27  C   UNL     1      -6.654  13.391  68.013  1.00  0.00    -0.133 C  
BRANCH  27  28
HETATM   28  C   UNL     1      -6.977  14.890  67.982  1.00  0.00    -0.150 A  
HETATM   29  C   UNL     1      -7.766  15.455  66.974  1.00  0.00    -0.220 A  
HETATM   30  C   UNL     1      -6.471  15.811  68.938  1.00  0.00    -0.116 A  
HETATM   31  C   UNL     1      -6.761  17.214  68.895  1.00  0.00    -0.209 A  
HETATM   32  C   UNL     1      -8.126  16.824  66.952  1.00  0.00    -0.211 A  
HETATM   33  C   UNL     1      -7.613  17.727  67.900  1.00  0.00    -0.212 A  
BRANCH  32  34
HETATM   34  O   UNL     1      -8.965  17.337  65.984  1.00  0.00    -0.486 OA 
HETATM   35  C   UNL     1     -10.268  17.671  66.459  1.00  0.00    -0.355 C  
ENDBRANCH  32  34
BRANCH  33  36
HETATM   36  O   UNL     1      -7.965  19.044  67.696  1.00  0.00    -0.254 OA 
HETATM   37  C   UNL     1      -7.045  19.949  67.098  1.00  0.00    -0.224 C  
ENDBRANCH  33  36
BRANCH  31  38
HETATM   38  O   UNL     1      -6.232  18.141  69.754  1.00  0.00    -0.240 OA 
HETATM   39  C   UNL     1      -5.334  17.744  70.772  1.00  0.00    -0.240 C  
ENDBRANCH  31  38
ENDBRANCH  27  28
ENDBRANCH  24  26
ENDBRANCH  23  24
ENDBRANCH   3  23
BRANCH   5  40
HETATM   40  O   UNL     1      -7.227   8.639  63.000  1.00  0.00    -0.093 OA 
HETATM   41  C   UNL     1      -7.120   7.282  62.626  1.00  0.00    -0.076 C  
ENDBRANCH   5  40
BRANCH   8  42
HETATM   42  C   UNL     1      -7.731   7.437  66.323  1.00  0.00    -0.093 C  
HETATM   43  O   UNL     1      -6.527   7.355  66.416  1.00  0.00    -0.046 OA 
BRANCH  42  44
HETATM   44  O   UNL     1      -8.624   6.833  67.182  1.00  0.00    -0.119 OA 
HETATM   45  C   UNL     1      -9.463   5.742  66.777  1.00  0.00    -0.143 C  
ENDBRANCH  42  44
ENDBRANCH   8  42
BRANCH   6  46
HETATM   46  O   UNL     1     -13.747  14.684  73.139  1.00  0.00    -0.530 OA 
HETATM   47  C   UNL     1     -13.028  15.613  73.920  1.00  0.00    -0.406 C  
ENDBRANCH   6  46
TORSDOF 11
ENDMDL
MODEL        9
REMARK 921   NORMALIZED FREE ENERGY PREDICTED BY IDOCK:   -5.80 KCAL/MOL
REMARK 922        TOTAL FREE ENERGY PREDICTED BY IDOCK:  -11.57 KCAL/MOL
REMARK 923 INTER-LIGAND FREE ENERGY PREDICTED BY IDOCK:   -9.44 KCAL/MOL
REMARK 924 INTRA-LIGAND FREE ENERGY PREDICTED BY IDOCK:   -2.13 KCAL/MOL
REMARK 927      BINDING AFFINITY PREDICTED BY RF-SCORE:    0.00 PKD
ROOT
HETATM    1  C   UNL     1      -6.648   7.185  70.748  1.00  0.00    -0.048 C  
HETATM    2  C   UNL     1      -6.733   7.125  72.239  1.00  0.00    -0.056 C  
HETATM    3  C   UNL     1      -8.254   7.082  72.704  1.00  0.00    -0.108 C  
HETATM    4  C   UNL     1     -10.726  10.650  64.837  1.00  0.00    -0.072 A  
HETATM    5  C   UNL     1      -8.303   5.589  72.927  1.00  0.00    -0.116 C  
HETATM    6  C   UNL     1     -10.611  11.934  64.255  1.00  0.00    -0.334 A  
HETATM    7  C   UNL     1      -9.792  12.912  64.810  1.00  0.00    -0.045 A  
HETATM    8  C   UNL     1      -8.226   5.035  71.392  1.00  0.00    -0.113 C  
HETATM    9  C   UNL     1      -7.696   6.203  70.150  1.00  0.00    -0.097 C  
HETATM   10  C   UNL     1      -9.068  12.645  65.966  1.00  0.00     0.099 A  
HETATM   11  C   UNL     1      -9.168  11.369  66.549  1.00  0.00    -0.200 A  
HETATM   12  H   UNL     1     -10.323   8.346  66.595  1.00  0.00     0.000 HD 
HETATM   13  C   UNL     1      -9.970  10.380  65.990  1.00  0.00    -0.241 A  
HETATM   14  C   UNL     1      -8.465   7.006  68.953  1.00  0.00    -0.125 C  
HETATM   15  N   UNL     1      -9.847   9.229  66.774  1.00  0.00    -0.206 NA 
HETATM   16  C   UNL     1      -8.988   9.465  67.821  1.00  0.00    -0.122 A  
HETATM   17  C   UNL     1      -8.622  10.814  67.708  1.00  0.00    -0.127 A  
HETATM   18  C   UNL     1      -7.797  11.531  68.712  1.00  0.00    -0.117 C  
HETATM   19  C   UNL     1      -8.604   8.595  69.041  1.00  0.00    -0.129 C  
HETATM   20  C   UNL     1      -7.727  10.677  69.953  1.00  0.00     0.100 C  
HETATM   21  C   UNL     1      -6.715   8.688  70.612  1.00  0.00    -0.043 C  
HETATM   22  N   UNL     1      -7.397   9.279  69.527  1.00  0.00    -0.067 NA 
ENDROOT
BRANCH   3  23
HETATM   23  O   UNL     1      -9.402   7.182  71.684  1.00  0.00    -0.152 OA 
BRANCH  23  24
HETATM   24  C   UNL     1     -10.748   7.396  71.628  1.00  0.00    -0.214 C  
HETATM   25  O   UNL     1     -11.618   6.579  71.851  1.00  0.00    -0.281 OA 
BRANCH  24  26
HETATM   26  C   UNL     1     -10.977   8.898  71.312  1.00  0.00    -0.363 C  
HETATM   27  C   UNL     1     -12.058   9.588  70.845  1.00  0.00    -0.357 C  
BRANCH  27  28
HETATM   28  C   UNL     1     -12.184  11.109  70.688  1.00  0.00    -0.492 A  
HETATM   29  C   UNL     1     -11.649  11.784  69.586  1.00  0.00    -0.393 A  
HETATM   30  C   UNL     1     -12.809  11.938  71.657  1.00  0.00    -0.417 A  
HETATM   31  C   UNL     1     -12.910  13.361  71.514  1.00  0.00    -0.337 A  
HETATM   32  C   UNL     1     -11.800  13.178  69.387  1.00  0.00    -0.326 A  
HETATM   33  C   UNL     1     -12.415  13.989  70.357  1.00  0.00    -0.350 A  
BRANCH  32  34
HETATM   34  O   UNL     1     -11.323  13.804  68.254  1.00  0.00    -0.255 OA 
HETATM   35  C   UNL     1     -12.177  13.686  67.119  1.00  0.00    -0.297 C  
ENDBRANCH  32  34
BRANCH  33  36
HETATM   36  O   UNL     1     -12.400  15.339  70.078  1.00  0.00    -0.344 OA 
HETATM   37  C   UNL     1     -11.289  16.140  70.462  1.00  0.00    -0.373 C  
ENDBRANCH  33  36
BRANCH  31  38
HETATM   38  O   UNL     1     -13.439  14.198  72.461  1.00  0.00    -0.456 OA 
HETATM   39  C   UNL     1     -12.625  14.717  73.494  1.00  0.00    -0.425 C  
ENDBRANCH  31  38
ENDBRANCH  27  28
ENDBRANCH  24  26
ENDBRANCH  23  24
ENDBRANCH   3  23
BRANCH   5  40
HETATM   40  O   UNL     1      -7.236   5.182  73.808  1.00  0.00    -0.080 OA 
HETATM   41  C   UNL     1      -7.202   3.843  74.255  1.00  0.00    -0.061 C  
ENDBRANCH   5  40
BRANCH   8  42
HETATM   42  C   UNL     1      -9.515   4.214  71.237  1.00  0.00    -0.160 C  
HETATM   43  O   UNL     1     -10.030   3.914  70.184  1.00  0.00    -0.162 OA 
BRANCH  42  44
HETATM   44  O   UNL     1      -9.989   3.839  72.476  1.00  0.00    -0.149 OA 
HETATM   45  C   UNL     1     -10.390   2.494  72.770  1.00  0.00    -0.157 C  
ENDBRANCH  42  44
ENDBRANCH   8  42
BRANCH   6  46
HETATM   46  O   UNL     1     -11.262  12.355  63.124  1.00  0.00    -0.387 OA 
HETATM   47  C   UNL     1     -12.364  13.217  63.305  1.00  0.00    -0.283 C  
ENDBRANCH   6  46
TORSDOF 11
ENDMDL
MODEL       10
REMARK 921   NORMALIZED FREE ENERGY PREDICTED BY IDOCK:   -5.77 KCAL/MOL
REMARK 922        TOTAL FREE ENERGY PREDICTED BY IDOCK:  -11.53 KCAL/MOL
REMARK 923 INTER-LIGAND FREE ENERGY PREDICTED BY IDOCK:   -9.39 KCAL/MOL
REMARK 924 INTRA-LIGAND FREE ENERGY PREDICTED BY IDOCK:   -2.13 KCAL/MOL
REMARK 927      BINDING AFFINITY PREDICTED BY RF-SCORE:    0.00 PKD
ROOT
HETATM    1  C   UNL     1     -10.535   6.447  68.170  1.00  0.00    -0.267 C  
HETATM    2  C   UNL     1      -9.201   5.830  67.899  1.00  0.00    -0.108 C  
HETATM    3  C   UNL     1      -8.267   5.950  69.181  1.00  0.00    -0.106 C  
HETATM    4  C   UNL     1     -13.303  12.761  72.178  1.00  0.00    -0.593 A  
HETATM    5  C   UNL     1      -8.500   4.540  69.670  1.00  0.00    -0.069 C  
HETATM    6  C   UNL     1     -13.473  14.109  71.788  1.00  0.00    -0.390 A  
HETATM    7  C   UNL     1     -12.976  14.583  70.578  1.00  0.00    -0.303 A  
HETATM    8  C   UNL     1     -10.054   4.628  70.166  1.00  0.00    -0.283 C  
HETATM    9  C   UNL     1     -10.991   6.037  69.599  1.00  0.00    -0.470 C  
HETATM   10  C   UNL     1     -12.286  13.732  69.724  1.00  0.00    -0.368 A  
HETATM   11  C   UNL     1     -12.117  12.386  70.098  1.00  0.00    -0.366 A  
HETATM   12  H   UNL     1     -12.577   9.926  72.149  1.00  0.00     0.000 HD 
HETATM   13  C   UNL     1     -12.627  11.900  71.296  1.00  0.00    -0.277 A  
HETATM   14  C   UNL     1     -11.542   7.394  70.326  1.00  0.00    -0.155 C  
HETATM   15  N   UNL     1     -12.321  10.539  71.376  1.00  0.00    -0.376 NA 
HETATM   16  C   UNL     1     -11.623  10.149  70.257  1.00  0.00    -0.302 A  
HETATM   17  C   UNL     1     -11.447  11.316  69.501  1.00  0.00    -0.376 A  
HETATM   18  C   UNL     1     -10.632  11.381  68.262  1.00  0.00    -0.224 C  
HETATM   19  C   UNL     1     -10.937   8.810  69.898  1.00  0.00    -0.179 C  
HETATM   20  C   UNL     1      -9.812  10.117  68.177  1.00  0.00    -0.144 C  
HETATM   21  C   UNL     1     -10.181   7.859  67.761  1.00  0.00    -0.216 C  
HETATM   22  N   UNL     1     -10.726   8.962  68.451  1.00  0.00    -0.133 NA 
ENDROOT
BRANCH   3  23
HETATM   23  O   UNL     1      -8.738   6.693  70.443  1.00  0.00    -0.147 OA 
BRANCH  23  24
HETATM   24  C   UNL     1      -8.242   7.417  71.487  1.00  0.00    -0.104 C  
HETATM   25  O   UNL     1      -8.207   7.073  72.651  1.00  0.00    -0.107 OA 
BRANCH  24  26
HETATM   26  C   UNL     1      -7.649   8.732  70.915  1.00  0.00    -0.109 C  
HETATM   27  C   UNL     1      -6.780   8.984  69.893  1.00  0.00    -0.046 C  
BRANCH  27  28
HETATM   28  C   UNL     1      -6.363  10.358  69.353  1.00  0.00    -0.053 A  
HETATM   29  C   UNL     1      -5.964  10.539  68.025  1.00  0.00    -0.047 A  
HETATM   30  C   UNL     1      -6.313  11.525  70.162  1.00  0.00    -0.078 A  
HETATM   31  C   UNL     1      -5.907  12.804  69.657  1.00  0.00    -0.113 A  
HETATM   32  C   UNL     1      -5.628  11.805  67.486  1.00  0.00    -0.079 A  
HETATM   33  C   UNL     1      -5.576  12.951  68.298  1.00  0.00    -0.074 A  
BRANCH  32  34
HETATM   34  O   UNL     1      -5.307  11.962  66.153  1.00  0.00    -0.259 OA 
HETATM   35  C   UNL     1      -5.216  10.740  65.426  1.00  0.00    -0.142 C  
ENDBRANCH  32  34
BRANCH  33  36
HETATM   36  O   UNL     1      -5.135  14.093  67.662  1.00  0.00    -0.304 OA 
HETATM   37  C   UNL     1      -5.996  15.216  67.525  1.00  0.00     0.014 C  
ENDBRANCH  33  36
BRANCH  31  38
HETATM   38  O   UNL     1      -5.776  13.932  70.423  1.00  0.00    -0.123 OA 
HETATM   39  C   UNL     1      -5.530  13.831  71.811  1.00  0.00    -0.208 C  
ENDBRANCH  31  38
ENDBRANCH  27  28
ENDBRANCH  24  26
ENDBRANCH  23  24
ENDBRANCH   3  23
BRANCH   5  40
HETATM   40  O   UNL     1      -8.216   3.595  68.619  1.00  0.00    -0.072 OA 
HETATM   41  C   UNL     1      -7.113   2.725  68.771  1.00  0.00    -0.048 C  
ENDBRANCH   5  40
BRANCH   8  42
HETATM   42  C   UNL     1      -9.985   4.242  71.650  1.00  0.00    -0.180 C  
HETATM   43  O   UNL     1     -10.763   4.604  72.504  1.00  0.00    -0.200 OA 
BRANCH  42  44
HETATM   44  O   UNL     1      -8.920   3.395  71.871  1.00  0.00    -0.094 OA 
HETATM   45  C   UNL     1      -8.423   3.111  73.186  1.00  0.00    -0.081 C  
ENDBRANCH  42  44
ENDBRANCH   8  42
BRANCH   6  46
HETATM   46  O   UNL     1     -14.122  15.072  72.518  1.00  0.00    -0.470 OA 
HETATM   47  C   UNL     1     -13.320  15.911  73.321  1.00  0.00    -0.564 C  
ENDBRANCH   6  46
TORSDOF 11
ENDMDL
MODEL       11
REMARK 921   NORMALIZED FREE ENERGY PREDICTED BY IDOCK:   -5.65 KCAL/MOL
REMARK 922        TOTAL FREE ENERGY PREDICTED BY IDOCK:  -11.32 KCAL/MOL
REMARK 923 INTER-LIGAND FREE ENERGY PREDICTED BY IDOCK:   -8.94 KCAL/MOL
REMARK 924 INTRA-LIGAND FREE ENERGY PREDICTED BY IDOCK:   -2.38 KCAL/MOL
REMARK 927      BINDING AFFINITY PREDICTED BY RF-SCORE:    0.00 PKD
ROOT
HETATM    1  C   UNL     1      -9.090   4.750  69.045  1.00  0.00    -0.157 C  
HETATM    2  C   UNL     1      -8.125   4.423  70.138  1.00  0.00    -0.059 C  
HETATM    3  C   UNL     1      -8.092   5.594  71.215  1.00  0.00    -0.114 C  
HETATM    4  C   UNL     1     -11.369  11.282  65.079  1.00  0.00    -0.003 A  
HETATM    5  C   UNL     1      -9.006   4.914  72.206  1.00  0.00    -0.130 C  
HETATM    6  C   UNL     1     -10.838  11.902  63.925  1.00  0.00    -0.395 A  
HETATM    7  C   UNL     1      -9.627  11.495  63.374  1.00  0.00    -0.330 A  
HETATM    8  C   UNL     1     -10.437   4.986  71.423  1.00  0.00    -0.213 C  
HETATM    9  C   UNL     1     -10.371   5.363  69.679  1.00  0.00    -0.361 C  
HETATM   10  C   UNL     1      -8.903  10.464  63.960  1.00  0.00    -0.225 A  
HETATM   11  C   UNL     1      -9.425   9.835  65.105  1.00  0.00    -0.338 A  
HETATM   12  H   UNL     1     -11.729   9.467  67.347  1.00  0.00     0.000 HD 
HETATM   13  C   UNL     1     -10.643  10.223  65.651  1.00  0.00     0.026 A  
HETATM   14  C   UNL     1     -10.752   6.682  68.793  1.00  0.00    -0.302 C  
HETATM   15  N   UNL     1     -10.901   9.407  66.756  1.00  0.00    -0.046 NA 
HETATM   16  C   UNL     1      -9.872   8.512  66.928  1.00  0.00    -0.242 A  
HETATM   17  C   UNL     1      -8.932   8.828  65.937  1.00  0.00    -0.240 A  
HETATM   18  C   UNL     1      -7.598   8.187  65.832  1.00  0.00    -0.082 C  
HETATM   19  C   UNL     1      -9.588   7.488  68.052  1.00  0.00    -0.143 C  
HETATM   20  C   UNL     1      -7.340   7.434  67.114  1.00  0.00    -0.097 C  
HETATM   21  C   UNL     1      -8.129   5.513  68.162  1.00  0.00    -0.096 C  
HETATM   22  N   UNL     1      -8.568   6.634  67.427  1.00  0.00    -0.119 NA 
ENDROOT
BRANCH   3  23
HETATM   23  O   UNL     1      -8.913   6.880  71.018  1.00  0.00    -0.150 OA 
BRANCH  23  24
HETATM   24  C   UNL     1      -9.143   8.086  71.612  1.00  0.00    -0.150 C  
HETATM   25  O   UNL     1      -9.298   8.286  72.799  1.00  0.00    -0.249 OA 
BRANCH  24  26
HETATM   26  C   UNL     1      -9.088   9.178  70.511  1.00  0.00    -0.284 C  
HETATM   27  C   UNL     1      -9.911  10.221  70.204  1.00  0.00    -0.050 C  
BRANCH  27  28
HETATM   28  C   UNL     1      -9.671  11.307  69.146  1.00  0.00     0.008 A  
HETATM   29  C   UNL     1     -10.675  12.204  68.767  1.00  0.00    -0.252 A  
HETATM   30  C   UNL     1      -8.440  11.453  68.453  1.00  0.00    -0.155 A  
HETATM   31  C   UNL     1      -8.225  12.458  67.453  1.00  0.00    -0.180 A  
HETATM   32  C   UNL     1     -10.465  13.249  67.836  1.00  0.00    -0.240 A  
HETATM   33  C   UNL     1      -9.244  13.380  67.151  1.00  0.00    -0.240 A  
BRANCH  32  34
HETATM   34  O   UNL     1     -11.455  14.162  67.536  1.00  0.00    -0.305 OA 
HETATM   35  C   UNL     1     -11.732  15.088  68.584  1.00  0.00    -0.337 C  
ENDBRANCH  32  34
BRANCH  33  36
HETATM   36  O   UNL     1      -9.216  14.378  66.201  1.00  0.00    -0.231 OA 
HETATM   37  C   UNL     1      -8.617  15.634  66.496  1.00  0.00    -0.300 C  
ENDBRANCH  33  36
BRANCH  31  38
HETATM   38  O   UNL     1      -7.078  12.581  66.713  1.00  0.00     0.067 OA 
HETATM   39  C   UNL     1      -6.110  11.551  66.715  1.00  0.00    -0.147 C  
ENDBRANCH  31  38
ENDBRANCH  27  28
ENDBRANCH  24  26
ENDBRANCH  23  24
ENDBRANCH   3  23
BRANCH   5  40
HETATM   40  O   UNL     1      -8.511   3.595  72.516  1.00  0.00    -0.084 OA 
HETATM   41  C   UNL     1      -8.260   3.266  73.866  1.00  0.00    -0.074 C  
ENDBRANCH   5  40
BRANCH   8  42
HETATM   42  C   UNL     1     -11.341   5.766  72.389  1.00  0.00    -0.294 C  
HETATM   43  O   UNL     1     -11.150   5.892  73.577  1.00  0.00    -0.209 OA 
BRANCH  42  44
HETATM   44  O   UNL     1     -12.394   6.331  71.701  1.00  0.00    -0.241 OA 
HETATM   45  C   UNL     1     -12.700   7.730  71.780  1.00  0.00    -0.329 C  
ENDBRANCH  42  44
ENDBRANCH   8  42
BRANCH   6  46
HETATM   46  O   UNL     1     -11.424  12.933  63.235  1.00  0.00    -0.448 OA 
HETATM   47  C   UNL     1     -12.057  13.934  64.001  1.00  0.00    -0.396 C  
ENDBRANCH   6  46
TORSDOF 11
ENDMDL
MODEL       12
REMARK 921   NORMALIZED FREE ENERGY PREDICTED BY IDOCK:   -5.63 KCAL/MOL
REMARK 922        TOTAL FREE ENERGY PREDICTED BY IDOCK:  -11.29 KCAL/MOL
REMARK 923 INTER-LIGAND FREE ENERGY PREDICTED BY IDOCK:   -9.55 KCAL/MOL
REMARK 924 INTRA-LIGAND FREE ENERGY PREDICTED BY IDOCK:   -1.74 KCAL/MOL
REMARK 927      BINDING AFFINITY PREDICTED BY RF-SCORE:    0.00 PKD
ROOT
HETATM    1  C   UNL     1      -6.806   7.049  70.643  1.00  0.00    -0.054 C  
HETATM    2  C   UNL     1      -6.879   6.950  72.133  1.00  0.00    -0.058 C  
HETATM    3  C   UNL     1      -8.396   6.917  72.611  1.00  0.00    -0.109 C  
HETATM    4  C   UNL     1     -10.886  10.730  64.865  1.00  0.00    -0.055 A  
HETATM    5  C   UNL     1      -8.465   5.420  72.794  1.00  0.00    -0.116 C  
HETATM    6  C   UNL     1     -10.758  12.027  64.317  1.00  0.00    -0.336 A  
HETATM    7  C   UNL     1      -9.918  12.978  64.890  1.00  0.00    -0.151 A  
HETATM    8  C   UNL     1      -8.410   4.906  71.244  1.00  0.00    -0.115 C  
HETATM    9  C   UNL     1      -7.874   6.098  70.029  1.00  0.00    -0.106 C  
HETATM   10  C   UNL     1      -9.189  12.669  66.031  1.00  0.00     0.011 A  
HETATM   11  C   UNL     1      -9.302  11.380  66.581  1.00  0.00    -0.198 A  
HETATM   12  H   UNL     1     -10.501   8.374  66.557  1.00  0.00     0.000 HD 
HETATM   13  C   UNL     1     -10.124  10.418  66.003  1.00  0.00    -0.243 A  
HETATM   14  C   UNL     1      -8.642   6.944  68.861  1.00  0.00    -0.131 C  
HETATM   15  N   UNL     1     -10.010   9.245  66.755  1.00  0.00    -0.224 NA 
HETATM   16  C   UNL     1      -9.139   9.440  67.800  1.00  0.00    -0.125 A  
HETATM   17  C   UNL     1      -8.754  10.786  67.720  1.00  0.00    -0.130 A  
HETATM   18  C   UNL     1      -7.909  11.465  68.734  1.00  0.00    -0.128 C  
HETATM   19  C   UNL     1      -8.757   8.533  68.993  1.00  0.00    -0.134 C  
HETATM   20  C   UNL     1      -7.840  10.576  69.952  1.00  0.00     0.051 C  
HETATM   21  C   UNL     1      -6.853   8.556  70.547  1.00  0.00    -0.039 C  
HETATM   22  N   UNL     1      -7.535   9.186  69.486  1.00  0.00    -0.074 NA 
ENDROOT
BRANCH   3  23
HETATM   23  O   UNL     1      -9.552   7.060  71.605  1.00  0.00    -0.158 OA 
BRANCH  23  24
HETATM   24  C   UNL     1     -10.896   7.287  71.567  1.00  0.00    -0.224 C  
HETATM   25  O   UNL     1     -11.770   6.480  71.812  1.00  0.00    -0.296 OA 
BRANCH  24  26
HETATM   26  C   UNL     1     -11.117   8.787  71.240  1.00  0.00    -0.348 C  
HETATM   27  C   UNL     1     -12.241   9.553  71.137  1.00  0.00    -0.421 C  
BRANCH  27  28
HETATM   28  C   UNL     1     -12.308  11.070  70.919  1.00  0.00    -0.503 A  
HETATM   29  C   UNL     1     -12.957  11.918  71.824  1.00  0.00    -0.455 A  
HETATM   30  C   UNL     1     -11.761  11.714  69.777  1.00  0.00    -0.425 A  
HETATM   31  C   UNL     1     -11.841  13.130  69.569  1.00  0.00    -0.322 A  
HETATM   32  C   UNL     1     -12.986  13.326  71.677  1.00  0.00    -0.349 A  
HETATM   33  C   UNL     1     -12.446  13.951  70.539  1.00  0.00    -0.352 A  
BRANCH  32  34
HETATM   34  O   UNL     1     -13.571  14.142  72.624  1.00  0.00    -0.506 OA 
HETATM   35  C   UNL     1     -12.666  14.635  73.609  1.00  0.00    -0.228 C  
ENDBRANCH  32  34
BRANCH  33  36
HETATM   36  O   UNL     1     -12.636  15.315  70.481  1.00  0.00    -0.365 OA 
HETATM   37  C   UNL     1     -11.529  16.200  70.599  1.00  0.00    -0.361 C  
ENDBRANCH  33  36
BRANCH  31  38
HETATM   38  O   UNL     1     -11.390  13.774  68.447  1.00  0.00    -0.260 OA 
HETATM   39  C   UNL     1     -12.245  13.963  67.337  1.00  0.00    -0.256 C  
ENDBRANCH  31  38
ENDBRANCH  27  28
ENDBRANCH  24  26
ENDBRANCH  23  24
ENDBRANCH   3  23
BRANCH   5  40
HETATM   40  O   UNL     1      -7.397   4.974  73.654  1.00  0.00    -0.084 OA 
HETATM   41  C   UNL     1      -7.420   3.644  74.128  1.00  0.00    -0.054 C  
ENDBRANCH   5  40
BRANCH   8  42
HETATM   42  C   UNL     1      -9.712   4.108  71.080  1.00  0.00    -0.190 C  
HETATM   43  O   UNL     1     -10.370   3.649  71.986  1.00  0.00    -0.123 OA 
BRANCH  42  44
HETATM   44  O   UNL     1     -10.045   4.012  69.746  1.00  0.00    -0.083 OA 
HETATM   45  C   UNL     1      -9.344   3.152  68.838  1.00  0.00    -0.162 C  
ENDBRANCH  42  44
ENDBRANCH   8  42
BRANCH   6  46
HETATM   46  O   UNL     1     -11.412  12.488  63.203  1.00  0.00    -0.414 OA 
HETATM   47  C   UNL     1     -12.429  13.444  63.410  1.00  0.00    -0.151 C  
ENDBRANCH   6  46
TORSDOF 11
ENDMDL
MODEL       13
REMARK 921   NORMALIZED FREE ENERGY PREDICTED BY IDOCK:   -5.59 KCAL/MOL
REMARK 922        TOTAL FREE ENERGY PREDICTED BY IDOCK:  -11.22 KCAL/MOL
REMARK 923 INTER-LIGAND FREE ENERGY PREDICTED BY IDOCK:   -9.10 KCAL/MOL
REMARK 924 INTRA-LIGAND FREE ENERGY PREDICTED BY IDOCK:   -2.13 KCAL/MOL
REMARK 927      BINDING AFFINITY PREDICTED BY RF-SCORE:    0.00 PKD
ROOT
HETATM    1  C   UNL     1      -9.020   4.688  68.949  1.00  0.00    -0.145 C  
HETATM    2  C   UNL     1      -8.046   4.360  70.033  1.00  0.00    -0.060 C  
HETATM    3  C   UNL     1      -8.021   5.518  71.124  1.00  0.00    -0.111 C  
HETATM    4  C   UNL     1     -11.403  11.240  65.078  1.00  0.00    -0.003 A  
HETATM    5  C   UNL     1      -8.921   4.814  72.112  1.00  0.00    -0.127 C  
HETATM    6  C   UNL     1     -10.886  11.881  63.928  1.00  0.00    -0.395 A  
HETATM    7  C   UNL     1      -9.674  11.496  63.365  1.00  0.00    -0.379 A  
HETATM    8  C   UNL     1     -10.358   4.878  71.336  1.00  0.00    -0.221 C  
HETATM    9  C   UNL     1     -10.306   5.277  69.598  1.00  0.00    -0.348 C  
HETATM   10  C   UNL     1      -8.933  10.468  63.935  1.00  0.00    -0.232 A  
HETATM   11  C   UNL     1      -9.441   9.817  65.074  1.00  0.00    -0.337 A  
HETATM   12  H   UNL     1     -11.728   9.393  67.324  1.00  0.00     0.000 HD 
HETATM   13  C   UNL     1     -10.661  10.183  65.632  1.00  0.00     0.089 A  
HETATM   14  C   UNL     1     -10.708   6.602  68.730  1.00  0.00    -0.302 C  
HETATM   15  N   UNL     1     -10.902   9.351  66.728  1.00  0.00    -0.046 NA 
HETATM   16  C   UNL     1      -9.862   8.467  66.883  1.00  0.00    -0.245 A  
HETATM   17  C   UNL     1      -8.931   8.806  65.891  1.00  0.00    -0.240 A  
HETATM   18  C   UNL     1      -7.589   8.184  65.771  1.00  0.00    -0.082 C  
HETATM   19  C   UNL     1      -9.558   7.432  67.993  1.00  0.00    -0.141 C  
HETATM   20  C   UNL     1      -7.315   7.418  67.042  1.00  0.00    -0.097 C  
HETATM   21  C   UNL     1      -8.074   5.474  68.070  1.00  0.00    -0.096 C  
HETATM   22  N   UNL     1      -8.531   6.598  67.352  1.00  0.00    -0.120 NA 
ENDROOT
BRANCH   3  23
HETATM   23  O   UNL     1      -8.860   6.796  70.947  1.00  0.00    -0.144 OA 
BRANCH  23  24
HETATM   24  C   UNL     1      -9.145   7.967  71.586  1.00  0.00    -0.138 C  
HETATM   25  O   UNL     1      -9.315   8.114  72.778  1.00  0.00    -0.225 OA 
BRANCH  24  26
HETATM   26  C   UNL     1      -9.128   9.102  70.528  1.00  0.00    -0.284 C  
HETATM   27  C   UNL     1     -10.045  10.049  70.176  1.00  0.00    -0.266 C  
BRANCH  27  28
HETATM   28  C   UNL     1      -9.850  11.198  69.179  1.00  0.00    -0.074 A  
HETATM   29  C   UNL     1      -8.635  11.402  68.515  1.00  0.00    -0.150 A  
HETATM   30  C   UNL     1     -10.861  12.154  68.891  1.00  0.00    -0.241 A  
HETATM   31  C   UNL     1     -10.668  13.237  67.971  1.00  0.00    -0.240 A  
HETATM   32  C   UNL     1      -8.444  12.420  67.550  1.00  0.00    -0.175 A  
HETATM   33  C   UNL     1      -9.451  13.363  67.278  1.00  0.00    -0.234 A  
BRANCH  32  34
HETATM   34  O   UNL     1      -7.257  12.550  66.860  1.00  0.00    -0.032 OA 
HETATM   35  C   UNL     1      -6.362  11.453  67.025  1.00  0.00    -0.122 C  
ENDBRANCH  32  34
BRANCH  33  36
HETATM   36  O   UNL     1      -9.091  14.357  66.392  1.00  0.00    -0.243 OA 
HETATM   37  C   UNL     1      -8.587  15.597  66.871  1.00  0.00    -0.248 C  
ENDBRANCH  33  36
BRANCH  31  38
HETATM   38  O   UNL     1     -11.593  14.217  67.725  1.00  0.00    -0.308 OA 
HETATM   39  C   UNL     1     -11.830  15.234  68.678  1.00  0.00    -0.305 C  
ENDBRANCH  31  38
ENDBRANCH  27  28
ENDBRANCH  24  26
ENDBRANCH  23  24
ENDBRANCH   3  23
BRANCH   5  40
HETATM   40  O   UNL     1      -8.408   3.497  72.402  1.00  0.00    -0.081 OA 
HETATM   41  C   UNL     1      -8.963   2.779  73.484  1.00  0.00    -0.081 C  
ENDBRANCH   5  40
BRANCH   8  42
HETATM   42  C   UNL     1     -11.266   5.634  72.317  1.00  0.00    -0.259 C  
HETATM   43  O   UNL     1     -11.088   5.719  73.511  1.00  0.00    -0.233 OA 
BRANCH  42  44
HETATM   44  O   UNL     1     -12.305   6.232  71.636  1.00  0.00    -0.241 OA 
HETATM   45  C   UNL     1     -12.708   7.585  71.885  1.00  0.00    -0.289 C  
ENDBRANCH  42  44
ENDBRANCH   8  42
BRANCH   6  46
HETATM   46  O   UNL     1     -11.489  12.913  63.255  1.00  0.00    -0.448 OA 
HETATM   47  C   UNL     1     -12.113  13.908  64.038  1.00  0.00    -0.396 C  
ENDBRANCH   6  46
TORSDOF 11
ENDMDL
MODEL       14
REMARK 921   NORMALIZED FREE ENERGY PREDICTED BY IDOCK:   -5.55 KCAL/MOL
REMARK 922        TOTAL FREE ENERGY PREDICTED BY IDOCK:  -11.15 KCAL/MOL
REMARK 923 INTER-LIGAND FREE ENERGY PREDICTED BY IDOCK:   -9.16 KCAL/MOL
REMARK 924 INTRA-LIGAND FREE ENERGY PREDICTED BY IDOCK:   -1.99 KCAL/MOL
REMARK 927      BINDING AFFINITY PREDICTED BY RF-SCORE:    0.00 PKD
ROOT
HETATM    1  C   UNL     1      -8.933  11.965  65.736  1.00  0.00     0.044 C  
HETATM    2  C   UNL     1     -10.245  12.188  65.057  1.00  0.00    -0.312 C  
HETATM    3  C   UNL     1     -11.376  12.507  66.130  1.00  0.00    -0.343 C  
HETATM    4  C   UNL     1      -6.399   8.573  72.494  1.00  0.00    -0.090 A  
HETATM    5  C   UNL     1     -11.347  14.004  65.940  1.00  0.00    -0.317 C  
HETATM    6  C   UNL     1      -6.054   7.235  72.790  1.00  0.00    -0.054 A  
HETATM    7  C   UNL     1      -6.292   6.206  71.885  1.00  0.00    -0.046 A  
HETATM    8  C   UNL     1      -9.901  14.382  66.599  1.00  0.00    -0.287 C  
HETATM    9  C   UNL     1      -8.767  13.028  66.860  1.00  0.00    -0.158 C  
HETATM   10  C   UNL     1      -6.890   6.476  70.660  1.00  0.00    -0.063 A  
HETATM   11  C   UNL     1      -7.231   7.805  70.351  1.00  0.00    -0.058 A  
HETATM   12  H   UNL     1      -7.338  10.957  71.079  1.00  0.00     0.000 HD 
HETATM   13  C   UNL     1      -6.979   8.842  71.242  1.00  0.00    -0.088 A  
HETATM   14  C   UNL     1      -8.243  12.233  68.188  1.00  0.00    -0.168 C  
HETATM   15  N   UNL     1      -7.405  10.034  70.650  1.00  0.00    -0.306 NA 
HETATM   16  C   UNL     1      -7.926   9.779  69.404  1.00  0.00    -0.125 A  
HETATM   17  C   UNL     1      -7.872   8.386  69.254  1.00  0.00    -0.104 A  
HETATM   18  C   UNL     1      -8.450   7.657  68.098  1.00  0.00    -0.124 C  
HETATM   19  C   UNL     1      -8.646  10.700  68.391  1.00  0.00    -0.134 C  
HETATM   20  C   UNL     1      -9.343   8.613  67.345  1.00  0.00    -0.144 C  
HETATM   21  C   UNL     1      -9.093  10.482  65.984  1.00  0.00    -0.168 C  
HETATM   22  N   UNL     1      -8.589   9.895  67.162  1.00  0.00    -0.125 NA 
ENDROOT
BRANCH   3  23
HETATM   23  O   UNL     1     -11.073  12.479  67.638  1.00  0.00    -0.235 OA 
BRANCH  23  24
HETATM   24  C   UNL     1     -11.709  12.372  68.840  1.00  0.00    -0.324 C  
HETATM   25  O   UNL     1     -12.407  13.216  69.363  1.00  0.00    -0.187 OA 
BRANCH  24  26
HETATM   26  C   UNL     1     -11.454  10.943  69.388  1.00  0.00    -0.373 C  
HETATM   27  C   UNL     1     -11.349  10.445  70.654  1.00  0.00    -0.411 C  
BRANCH  27  28
HETATM   28  C   UNL     1     -11.210   8.972  71.058  1.00  0.00    -0.361 A  
HETATM   29  C   UNL     1     -10.906   8.591  72.369  1.00  0.00    -0.378 A  
HETATM   30  C   UNL     1     -11.337   7.900  70.134  1.00  0.00    -0.099 A  
HETATM   31  C   UNL     1     -11.189   6.525  70.513  1.00  0.00    -0.344 A  
HETATM   32  C   UNL     1     -10.826   7.239  72.782  1.00  0.00    -0.314 A  
HETATM   33  C   UNL     1     -10.948   6.187  71.857  1.00  0.00    -0.263 A  
BRANCH  32  34
HETATM   34  O   UNL     1     -10.595   6.896  74.098  1.00  0.00    -0.299 OA 
HETATM   35  C   UNL     1      -9.218   6.892  74.468  1.00  0.00    -0.191 C  
ENDBRANCH  32  34
BRANCH  33  36
HETATM   36  O   UNL     1     -10.747   4.928  72.381  1.00  0.00    -0.211 OA 
HETATM   37  C   UNL     1      -9.516   4.249  72.168  1.00  0.00    -0.132 C  
ENDBRANCH  33  36
BRANCH  31  38
HETATM   38  O   UNL     1     -11.232   5.472  69.637  1.00  0.00    -0.138 OA 
HETATM   39  C   UNL     1     -10.091   5.125  68.878  1.00  0.00    -0.167 C  
ENDBRANCH  31  38
ENDBRANCH  27  28
ENDBRANCH  24  26
ENDBRANCH  23  24
ENDBRANCH   3  23
BRANCH   5  40
HETATM   40  O   UNL     1     -11.520  14.333  64.546  1.00  0.00    -0.374 OA 
HETATM   41  C   UNL     1     -12.204  15.522  64.211  1.00  0.00    -0.066 C  
ENDBRANCH   5  40
BRANCH   8  42
HETATM   42  C   UNL     1     -10.259  15.368  67.720  1.00  0.00    -0.241 C  
HETATM   43  O   UNL     1     -11.371  15.784  67.956  1.00  0.00    -0.348 OA 
BRANCH  42  44
HETATM   44  O   UNL     1      -9.133  15.693  68.445  1.00  0.00    -0.183 OA 
HETATM   45  C   UNL     1      -8.687  17.047  68.608  1.00  0.00    -0.261 C  
ENDBRANCH  42  44
ENDBRANCH   8  42
BRANCH   6  46
HETATM   46  O   UNL     1      -5.466   6.804  73.952  1.00  0.00    -0.045 OA 
HETATM   47  C   UNL     1      -5.875   5.547  74.446  1.00  0.00    -0.053 C  
ENDBRANCH   6  46
TORSDOF 11
ENDMDL
MODEL       15
REMARK 921   NORMALIZED FREE ENERGY PREDICTED BY IDOCK:   -5.49 KCAL/MOL
REMARK 922        TOTAL FREE ENERGY PREDICTED BY IDOCK:  -11.06 KCAL/MOL
REMARK 923 INTER-LIGAND FREE ENERGY PREDICTED BY IDOCK:   -9.76 KCAL/MOL
REMARK 924 INTRA-LIGAND FREE ENERGY PREDICTED BY IDOCK:   -1.30 KCAL/MOL
REMARK 927      BINDING AFFINITY PREDICTED BY RF-SCORE:    0.00 PKD
ROOT
HETATM    1  C   UNL     1     -11.851  10.896  69.392  1.00  0.00    -0.400 C  
HETATM    2  C   UNL     1     -11.684  12.271  69.951  1.00  0.00    -0.346 C  
HETATM    3  C   UNL     1     -10.515  13.038  69.192  1.00  0.00     0.111 C  
HETATM    4  C   UNL     1      -7.085   5.155  66.579  1.00  0.00    -0.069 A  
HETATM    5  C   UNL     1     -11.420  13.829  68.279  1.00  0.00    -0.312 C  
HETATM    6  C   UNL     1      -6.398   4.110  67.239  1.00  0.00    -0.040 A  
HETATM    7  C   UNL     1      -6.335   4.045  68.627  1.00  0.00    -0.033 A  
HETATM    8  C   UNL     1     -11.982  12.656  67.291  1.00  0.00    -0.321 C  
HETATM    9  C   UNL     1     -11.748  10.974  67.841  1.00  0.00    -0.216 C  
HETATM   10  C   UNL     1      -6.946   5.024  69.402  1.00  0.00    -0.055 A  
HETATM   11  C   UNL     1      -7.639   6.064  68.756  1.00  0.00    -0.091 A  
HETATM   12  H   UNL     1      -8.711   7.537  66.082  1.00  0.00     0.000 HD 
HETATM   13  C   UNL     1      -7.722   6.126  67.370  1.00  0.00    -0.094 A  
HETATM   14  C   UNL     1     -10.760   9.759  67.373  1.00  0.00    -0.314 C  
HETATM   15  N   UNL     1      -8.484   7.248  67.033  1.00  0.00    -0.117 NA 
HETATM   16  C   UNL     1      -8.883   7.904  68.173  1.00  0.00    -0.125 A  
HETATM   17  C   UNL     1      -8.301   7.197  69.234  1.00  0.00    -0.133 A  
HETATM   18  C   UNL     1      -8.368   7.634  70.651  1.00  0.00    -0.125 C  
HETATM   19  C   UNL     1      -9.620   9.250  68.371  1.00  0.00    -0.147 C  
HETATM   20  C   UNL     1      -8.855   9.062  70.676  1.00  0.00    -0.219 C  
HETATM   21  C   UNL     1     -10.843  10.203  70.278  1.00  0.00    -0.310 C  
HETATM   22  N   UNL     1     -10.048   9.153  69.774  1.00  0.00    -0.191 NA 
ENDROOT
BRANCH   3  23
HETATM   23  O   UNL     1      -9.678  12.340  68.107  1.00  0.00    -0.202 OA 
BRANCH  23  24
HETATM   24  C   UNL     1      -8.549  12.524  67.363  1.00  0.00    -0.187 C  
HETATM   25  O   UNL     1      -8.022  11.705  66.638  1.00  0.00    -0.155 OA 
BRANCH  24  26
HETATM   26  C   UNL     1      -8.099  13.999  67.539  1.00  0.00    -0.197 C  
HETATM   27  C   UNL     1      -8.384  15.139  66.846  1.00  0.00    -0.267 C  
BRANCH  27  28
HETATM   28  C   UNL     1      -7.957  16.568  67.205  1.00  0.00    -0.211 A  
HETATM   29  C   UNL     1      -8.670  17.686  66.758  1.00  0.00    -0.277 A  
HETATM   30  C   UNL     1      -6.797  16.861  67.971  1.00  0.00    -0.155 A  
HETATM   31  C   UNL     1      -6.392  18.199  68.290  1.00  0.00    -0.193 A  
HETATM   32  C   UNL     1      -8.332  19.012  67.120  1.00  0.00    -0.278 A  
HETATM   33  C   UNL     1      -7.178  19.289  67.874  1.00  0.00    -0.253 A  
BRANCH  32  34
HETATM   34  O   UNL     1      -9.097  20.089  66.723  1.00  0.00    -0.335 OA 
HETATM   35  C   UNL     1     -10.475  19.783  66.519  1.00  0.00    -0.500 C  
ENDBRANCH  32  34
BRANCH  33  36
HETATM   36  O   UNL     1      -6.917  20.630  68.064  1.00  0.00    -0.293 OA 
HETATM   37  C   UNL     1      -6.034  21.320  67.189  1.00  0.00    -0.345 C  
ENDBRANCH  33  36
BRANCH  31  38
HETATM   38  O   UNL     1      -5.243  18.520  68.962  1.00  0.00    -0.184 OA 
HETATM   39  C   UNL     1      -5.213  18.509  70.375  1.00  0.00    -0.241 C  
ENDBRANCH  31  38
ENDBRANCH  27  28
ENDBRANCH  24  26
ENDBRANCH  23  24
ENDBRANCH   3  23
BRANCH   5  40
HETATM   40  O   UNL     1     -12.408  14.542  69.052  1.00  0.00    -0.225 OA 
HETATM   41  C   UNL     1     -12.012  15.706  69.747  1.00  0.00    -0.354 C  
ENDBRANCH   5  40
BRANCH   8  42
HETATM   42  C   UNL     1     -11.550  13.120  65.893  1.00  0.00    -0.354 C  
HETATM   43  O   UNL     1     -11.163  12.396  65.004  1.00  0.00    -0.296 OA 
BRANCH  42  44
HETATM   44  O   UNL     1     -11.694  14.487  65.781  1.00  0.00    -0.358 OA 
HETATM   45  C   UNL     1     -11.418  15.192  64.564  1.00  0.00    -0.316 C  
ENDBRANCH  42  44
ENDBRANCH   8  42
BRANCH   6  46
HETATM   46  O   UNL     1      -5.740   3.076  66.622  1.00  0.00    -0.021 OA 
HETATM   47  C   UNL     1      -5.590   3.163  65.221  1.00  0.00    -0.017 C  
ENDBRANCH   6  46
TORSDOF 11
ENDMDL
MODEL       16
REMARK 921   NORMALIZED FREE ENERGY PREDICTED BY IDOCK:   -5.29 KCAL/MOL
REMARK 922        TOTAL FREE ENERGY PREDICTED BY IDOCK:  -10.73 KCAL/MOL
REMARK 923 INTER-LIGAND FREE ENERGY PREDICTED BY IDOCK:   -8.90 KCAL/MOL
REMARK 924 INTRA-LIGAND FREE ENERGY PREDICTED BY IDOCK:   -1.83 KCAL/MOL
REMARK 927      BINDING AFFINITY PREDICTED BY RF-SCORE:    0.00 PKD
ROOT
HETATM    1  C   UNL     1      -9.425   3.702  68.233  1.00  0.00    -0.214 C  
HETATM    2  C   UNL     1      -8.366   2.960  68.981  1.00  0.00    -0.085 C  
HETATM    3  C   UNL     1      -7.649   3.924  70.025  1.00  0.00    -0.048 C  
HETATM    4  C   UNL     1     -10.382  11.046  65.277  1.00  0.00    -0.338 A  
HETATM    5  C   UNL     1      -8.428   3.451  71.228  1.00  0.00    -0.068 C  
HETATM    6  C   UNL     1     -10.013  11.603  64.031  1.00  0.00    -0.296 A  
HETATM    7  C   UNL     1      -9.209  10.906  63.134  1.00  0.00    -0.314 A  
HETATM    8  C   UNL     1      -9.910   4.060  70.909  1.00  0.00    -0.229 C  
HETATM    9  C   UNL     1     -10.202   4.604  69.235  1.00  0.00    -0.059 C  
HETATM   10  C   UNL     1      -8.740   9.638  63.455  1.00  0.00    -0.237 A  
HETATM   11  C   UNL     1      -9.107   9.071  64.688  1.00  0.00    -0.032 A  
HETATM   12  H   UNL     1     -10.693   9.176  67.507  1.00  0.00     0.000 HD 
HETATM   13  C   UNL     1      -9.926   9.752  65.582  1.00  0.00    -0.282 A  
HETATM   14  C   UNL     1     -10.347   6.072  68.533  1.00  0.00    -0.254 C  
HETATM   15  N   UNL     1     -10.128   8.932  66.694  1.00  0.00    -0.279 NA 
HETATM   16  C   UNL     1      -9.453   7.746  66.531  1.00  0.00    -0.201 A  
HETATM   17  C   UNL     1      -8.771   7.868  65.312  1.00  0.00    -0.032 A  
HETATM   18  C   UNL     1      -7.811   6.859  64.799  1.00  0.00    -0.119 C  
HETATM   19  C   UNL     1      -9.231   6.557  67.496  1.00  0.00    -0.113 C  
HETATM   20  C   UNL     1      -7.480   5.915  65.929  1.00  0.00    -0.085 C  
HETATM   21  C   UNL     1      -8.546   4.226  67.121  1.00  0.00    -0.104 C  
HETATM   22  N   UNL     1      -8.768   5.508  66.576  1.00  0.00    -0.117 NA 
ENDROOT
BRANCH   3  23
HETATM   23  O   UNL     1      -8.013   5.416  70.111  1.00  0.00    -0.082 OA 
BRANCH  23  24
HETATM   24  C   UNL     1      -7.432   6.634  70.310  1.00  0.00    -0.094 C  
HETATM   25  O   UNL     1      -6.248   6.891  70.226  1.00  0.00    -0.030 OA 
BRANCH  24  26
HETATM   26  C   UNL     1      -8.562   7.662  70.581  1.00  0.00    -0.135 C  
HETATM   27  C   UNL     1      -8.825   8.900  70.072  1.00  0.00    -0.165 C  
BRANCH  27  28
HETATM   28  C   UNL     1     -10.059   9.769  70.348  1.00  0.00    -0.313 A  
HETATM   29  C   UNL     1     -11.067   9.363  71.229  1.00  0.00    -0.446 A  
HETATM   30  C   UNL     1     -10.288  11.015  69.705  1.00  0.00     0.001 A  
HETATM   31  C   UNL     1     -11.452  11.816  69.952  1.00  0.00    -0.206 A  
HETATM   32  C   UNL     1     -12.188  10.168  71.544  1.00  0.00    -0.380 A  
HETATM   33  C   UNL     1     -12.407  11.397  70.896  1.00  0.00    -0.381 A  
BRANCH  32  34
HETATM   34  O   UNL     1     -13.128   9.770  72.472  1.00  0.00    -0.322 OA 
HETATM   35  C   UNL     1     -13.960   8.697  72.037  1.00  0.00    -0.446 C  
ENDBRANCH  32  34
BRANCH  33  36
HETATM   36  O   UNL     1     -13.589  12.024  71.226  1.00  0.00     0.241 OA 
HETATM   37  C   UNL     1     -13.600  13.079  72.179  1.00  0.00    -0.526 C  
ENDBRANCH  33  36
BRANCH  31  38
HETATM   38  O   UNL     1     -11.741  12.984  69.297  1.00  0.00    -0.286 OA 
HETATM   39  C   UNL     1     -11.496  13.108  67.911  1.00  0.00    -0.308 C  
ENDBRANCH  31  38
ENDBRANCH  27  28
ENDBRANCH  24  26
ENDBRANCH  23  24
ENDBRANCH   3  23
BRANCH   5  40
HETATM   40  O   UNL     1      -8.339   2.015  71.347  1.00  0.00    -0.050 OA 
HETATM   41  C   UNL     1      -7.525   1.470  72.364  1.00  0.00    -0.035 C  
ENDBRANCH   5  40
BRANCH   8  42
HETATM   42  C   UNL     1     -10.199   4.962  72.118  1.00  0.00    -0.196 C  
HETATM   43  O   UNL     1     -11.178   5.661  72.250  1.00  0.00    -0.266 OA 
BRANCH  42  44
HETATM   44  O   UNL     1      -9.194   4.839  73.054  1.00  0.00    -0.120 OA 
HETATM   45  C   UNL     1      -9.267   5.456  74.346  1.00  0.00    -0.123 C  
ENDBRANCH  42  44
ENDBRANCH   8  42
BRANCH   6  46
HETATM   46  O   UNL     1     -10.386  12.840  63.571  1.00  0.00    -0.347 OA 
HETATM   47  C   UNL     1     -11.529  13.421  64.160  1.00  0.00    -0.383 C  
ENDBRANCH   6  46
TORSDOF 11
ENDMDL
MODEL       17
REMARK 921   NORMALIZED FREE ENERGY PREDICTED BY IDOCK:   -5.24 KCAL/MOL
REMARK 922        TOTAL FREE ENERGY PREDICTED BY IDOCK:  -10.65 KCAL/MOL
REMARK 923 INTER-LIGAND FREE ENERGY PREDICTED BY IDOCK:   -7.61 KCAL/MOL
REMARK 924 INTRA-LIGAND FREE ENERGY PREDICTED BY IDOCK:   -3.04 KCAL/MOL
REMARK 927      BINDING AFFINITY PREDICTED BY RF-SCORE:    0.00 PKD
ROOT
HETATM    1  C   UNL     1      -6.705  15.555  68.283  1.00  0.00    -0.122 C  
HETATM    2  C   UNL     1      -6.689  16.430  67.072  1.00  0.00    -0.239 C  
HETATM    3  C   UNL     1      -8.034  16.248  66.241  1.00  0.00    -0.173 C  
HETATM    4  C   UNL     1      -9.316   8.251  70.133  1.00  0.00    -0.159 A  
HETATM    5  C   UNL     1      -8.712  17.487  66.776  1.00  0.00    -0.257 C  
HETATM    6  C   UNL     1      -8.699   6.985  70.013  1.00  0.00    -0.142 A  
HETATM    7  C   UNL     1      -7.494   6.825  69.337  1.00  0.00    -0.094 A  
HETATM    8  C   UNL     1      -9.006  17.047  68.322  1.00  0.00    -0.242 C  
HETATM    9  C   UNL     1      -8.120  15.621  68.926  1.00  0.00    -0.197 C  
HETATM   10  C   UNL     1      -6.870   7.920  68.751  1.00  0.00    -0.062 A  
HETATM   11  C   UNL     1      -7.471   9.186  68.871  1.00  0.00    -0.075 A  
HETATM   12  H   UNL     1      -9.821  11.128  69.955  1.00  0.00     0.000 HD 
HETATM   13  C   UNL     1      -8.665   9.357  69.561  1.00  0.00    -0.161 A  
HETATM   14  C   UNL     1      -8.554  14.083  69.269  1.00  0.00     0.420 C  
HETATM   15  N   UNL     1      -8.994  10.715  69.525  1.00  0.00    -0.042 NA 
HETATM   16  C   UNL     1      -8.039  11.411  68.823  1.00  0.00    -0.112 A  
HETATM   17  C   UNL     1      -7.132  10.444  68.367  1.00  0.00    -0.078 A  
HETATM   18  C   UNL     1      -5.999  10.740  67.455  1.00  0.00    -0.044 C  
HETATM   19  C   UNL     1      -7.978  12.890  68.374  1.00  0.00    -0.137 C  
HETATM   20  C   UNL     1      -6.210  12.121  66.884  1.00  0.00    -0.007 C  
HETATM   21  C   UNL     1      -6.120  14.320  67.637  1.00  0.00    -0.053 C  
HETATM   22  N   UNL     1      -6.559  13.036  68.019  1.00  0.00    -0.099 NA 
ENDROOT
BRANCH   3  23
HETATM   23  O   UNL     1      -9.100  15.223  66.667  1.00  0.00    -0.241 OA 
BRANCH  23  24
HETATM   24  C   UNL     1     -10.106  14.467  66.141  1.00  0.00    -0.309 C  
HETATM   25  O   UNL     1     -11.184  14.869  65.754  1.00  0.00    -0.335 OA 
BRANCH  24  26
HETATM   26  C   UNL     1      -9.598  13.004  66.041  1.00  0.00    -0.175 C  
HETATM   27  C   UNL     1     -10.213  11.835  65.699  1.00  0.00    -0.284 C  
BRANCH  27  28
HETATM   28  C   UNL     1      -9.553  10.460  65.528  1.00  0.00    -0.290 A  
HETATM   29  C   UNL     1      -8.493  10.256  64.639  1.00  0.00    -0.179 A  
HETATM   30  C   UNL     1      -9.993   9.299  66.219  1.00  0.00    -0.357 A  
HETATM   31  C   UNL     1      -9.385   8.013  66.042  1.00  0.00    -0.091 A  
HETATM   32  C   UNL     1      -7.830   9.012  64.501  1.00  0.00    -0.123 A  
HETATM   33  C   UNL     1      -8.278   7.869  65.186  1.00  0.00    -0.141 A  
BRANCH  32  34
HETATM   34  O   UNL     1      -6.740   8.860  63.669  1.00  0.00    -0.088 OA 
HETATM   35  C   UNL     1      -5.830   9.957  63.692  1.00  0.00    -0.117 C  
ENDBRANCH  32  34
BRANCH  33  36
HETATM   36  O   UNL     1      -7.602   6.707  64.879  1.00  0.00    -0.087 OA 
HETATM   37  C   UNL     1      -8.132   5.801  63.920  1.00  0.00    -0.113 C  
ENDBRANCH  33  36
BRANCH  31  38
HETATM   38  O   UNL     1      -9.828   6.860  66.635  1.00  0.00    -0.181 OA 
HETATM   39  C   UNL     1     -11.160   6.758  67.097  1.00  0.00    -0.333 C  
ENDBRANCH  31  38
ENDBRANCH  27  28
ENDBRANCH  24  26
ENDBRANCH  23  24
ENDBRANCH   3  23
BRANCH   5  40
HETATM   40  O   UNL     1      -7.863  18.638  66.589  1.00  0.00    -0.237 OA 
HETATM   41  C   UNL     1      -8.277  19.877  67.126  1.00  0.00    -0.312 C  
ENDBRANCH   5  40
BRANCH   8  42
HETATM   42  C   UNL     1     -10.531  17.170  68.450  1.00  0.00    -0.376 C  
HETATM   43  O   UNL     1     -11.254  17.750  67.671  1.00  0.00    -0.068 OA 
BRANCH  42  44
HETATM   44  O   UNL     1     -10.970  16.497  69.570  1.00  0.00    -0.318 OA 
HETATM   45  C   UNL     1     -11.902  15.409  69.499  1.00  0.00    -0.349 C  
ENDBRANCH  42  44
ENDBRANCH   8  42
BRANCH   6  46
HETATM   46  O   UNL     1      -9.188   5.810  70.527  1.00  0.00    -0.144 OA 
HETATM   47  C   UNL     1     -10.591   5.663  70.556  1.00  0.00    -0.284 C  
ENDBRANCH   6  46
TORSDOF 11
ENDMDL
MODEL       18
REMARK 921   NORMALIZED FREE ENERGY PREDICTED BY IDOCK:   -5.18 KCAL/MOL
REMARK 922        TOTAL FREE ENERGY PREDICTED BY IDOCK:  -10.54 KCAL/MOL
REMARK 923 INTER-LIGAND FREE ENERGY PREDICTED BY IDOCK:   -8.64 KCAL/MOL
REMARK 924 INTRA-LIGAND FREE ENERGY PREDICTED BY IDOCK:   -1.90 KCAL/MOL
REMARK 927      BINDING AFFINITY PREDICTED BY RF-SCORE:    0.00 PKD
ROOT
HETATM    1  C   UNL     1      -5.718   9.149  67.235  1.00  0.00    -0.042 C  
HETATM    2  C   UNL     1      -5.840   7.955  68.126  1.00  0.00    -0.040 C  
HETATM    3  C   UNL     1      -7.342   7.430  68.144  1.00  0.00    -0.100 C  
HETATM    4  C   UNL     1     -10.166  15.515  65.424  1.00  0.00    -0.409 A  
HETATM    5  C   UNL     1      -7.124   6.312  67.153  1.00  0.00    -0.073 C  
HETATM    6  C   UNL     1     -10.270  16.783  66.040  1.00  0.00    -0.346 A  
HETATM    7  C   UNL     1      -9.661  17.048  67.263  1.00  0.00    -0.244 A  
HETATM    8  C   UNL     1      -6.897   7.152  65.770  1.00  0.00    -0.056 C  
HETATM    9  C   UNL     1      -6.549   8.893  65.945  1.00  0.00    -0.057 C  
HETATM   10  C   UNL     1      -8.939  16.056  67.914  1.00  0.00    -0.186 A  
HETATM   11  C   UNL     1      -8.823  14.793  67.307  1.00  0.00    -0.218 A  
HETATM   12  H   UNL     1      -9.407  12.743  64.872  1.00  0.00     0.000 HD 
HETATM   13  C   UNL     1      -9.412  14.525  66.077  1.00  0.00    -0.229 A  
HETATM   14  C   UNL     1      -7.413  10.252  65.663  1.00  0.00    -0.149 C  
HETATM   15  N   UNL     1      -9.106  13.207  65.729  1.00  0.00     0.300 NA 
HETATM   16  C   UNL     1      -8.339  12.628  66.712  1.00  0.00    -0.005 A  
HETATM   17  C   UNL     1      -8.223  13.600  67.716  1.00  0.00    -0.179 A  
HETATM   18  C   UNL     1      -7.575  13.356  69.029  1.00  0.00     0.101 C  
HETATM   19  C   UNL     1      -7.843  11.174  66.896  1.00  0.00    -0.152 C  
HETATM   20  C   UNL     1      -7.390  11.866  69.187  1.00  0.00     0.022 C  
HETATM   21  C   UNL     1      -6.055  10.197  68.270  1.00  0.00    -0.045 C  
HETATM   22  N   UNL     1      -6.797  11.342  67.915  1.00  0.00    -0.070 NA 
ENDROOT
BRANCH   3  23
HETATM   23  O   UNL     1      -8.454   8.173  67.385  1.00  0.00    -0.123 OA 
BRANCH  23  24
HETATM   24  C   UNL     1      -9.811   8.179  67.241  1.00  0.00    -0.197 C  
HETATM   25  O   UNL     1     -10.461   7.459  66.512  1.00  0.00    -0.186 OA 
BRANCH  24  26
HETATM   26  C   UNL     1     -10.390   9.214  68.241  1.00  0.00    -0.256 C  
HETATM   27  C   UNL     1     -10.874  10.480  68.083  1.00  0.00    -0.300 C  
BRANCH  27  28
HETATM   28  C   UNL     1     -11.533  11.358  69.154  1.00  0.00    -0.365 A  
HETATM   29  C   UNL     1     -12.238  10.807  70.230  1.00  0.00    -0.431 A  
HETATM   30  C   UNL     1     -11.512  12.778  69.112  1.00  0.00    -0.361 A  
HETATM   31  C   UNL     1     -12.144  13.595  70.107  1.00  0.00    -0.361 A  
HETATM   32  C   UNL     1     -12.807  11.591  71.262  1.00  0.00    -0.360 A  
HETATM   33  C   UNL     1     -12.786  12.996  71.206  1.00  0.00    -0.293 A  
BRANCH  32  34
HETATM   34  O   UNL     1     -13.434  11.014  72.348  1.00  0.00    -0.216 OA 
HETATM   35  C   UNL     1     -13.493   9.590  72.299  1.00  0.00    -0.440 C  
ENDBRANCH  32  34
BRANCH  33  36
HETATM   36  O   UNL     1     -13.467  13.627  72.225  1.00  0.00    -0.459 OA 
HETATM   37  C   UNL     1     -12.760  14.380  73.202  1.00  0.00    -0.334 C  
ENDBRANCH  33  36
BRANCH  31  38
HETATM   38  O   UNL     1     -12.208  14.963  70.059  1.00  0.00    -0.313 OA 
HETATM   39  C   UNL     1     -11.094  15.745  70.440  1.00  0.00    -0.366 C  
ENDBRANCH  31  38
ENDBRANCH  27  28
ENDBRANCH  24  26
ENDBRANCH  23  24
ENDBRANCH   3  23
BRANCH   5  40
HETATM   40  O   UNL     1      -6.030   5.474  67.580  1.00  0.00    -0.020 OA 
HETATM   41  C   UNL     1      -6.258   4.089  67.731  1.00  0.00    -0.036 C  
ENDBRANCH   5  40
BRANCH   8  42
HETATM   42  C   UNL     1      -8.008   6.634  64.845  1.00  0.00    -0.121 C  
HETATM   43  O   UNL     1      -8.354   7.155  63.809  1.00  0.00     0.029 OA 
BRANCH  42  44
HETATM   44  O   UNL     1      -8.541   5.467  65.350  1.00  0.00    -0.142 OA 
HETATM   45  C   UNL     1      -9.089   4.444  64.507  1.00  0.00    -0.152 C  
ENDBRANCH  42  44
ENDBRANCH   8  42
BRANCH   6  46
HETATM   46  O   UNL     1     -10.949  17.861  65.532  1.00  0.00    -0.310 OA 
HETATM   47  C   UNL     1     -10.686  19.116  66.121  1.00  0.00    -0.354 C  
ENDBRANCH   6  46
TORSDOF 11
ENDMDL
MODEL       19
REMARK 921   NORMALIZED FREE ENERGY PREDICTED BY IDOCK:   -5.16 KCAL/MOL
REMARK 922        TOTAL FREE ENERGY PREDICTED BY IDOCK:  -10.52 KCAL/MOL
REMARK 923 INTER-LIGAND FREE ENERGY PREDICTED BY IDOCK:   -8.76 KCAL/MOL
REMARK 924 INTRA-LIGAND FREE ENERGY PREDICTED BY IDOCK:   -1.76 KCAL/MOL
REMARK 927      BINDING AFFINITY PREDICTED BY RF-SCORE:    0.00 PKD
ROOT
HETATM    1  C   UNL     1      -9.588   3.701  69.871  1.00  0.00    -0.238 C  
HETATM    2  C   UNL     1      -8.620   3.066  70.816  1.00  0.00    -0.116 C  
HETATM    3  C   UNL     1      -7.792   4.182  71.591  1.00  0.00    -0.071 C  
HETATM    4  C   UNL     1      -9.689  10.071  65.075  1.00  0.00    -0.386 A  
HETATM    5  C   UNL     1      -8.617   4.133  72.854  1.00  0.00    -0.100 C  
HETATM    6  C   UNL     1      -9.261  10.235  63.737  1.00  0.00    -0.275 A  
HETATM    7  C   UNL     1      -8.547   9.241  63.076  1.00  0.00    -0.217 A  
HETATM    8  C   UNL     1     -10.018   4.802  72.347  1.00  0.00    -0.226 C  
HETATM    9  C   UNL     1     -10.251   4.917  70.581  1.00  0.00    -0.282 C  
HETATM   10  C   UNL     1      -8.228   8.056  63.729  1.00  0.00    -0.039 A  
HETATM   11  C   UNL     1      -8.655   7.878  65.057  1.00  0.00    -0.010 A  
HETATM   12  H   UNL     1     -10.209   8.900  67.706  1.00  0.00     0.000 HD 
HETATM   13  C   UNL     1      -9.386   8.859  65.719  1.00  0.00    -0.219 A  
HETATM   14  C   UNL     1     -10.225   6.156  69.516  1.00  0.00    -0.250 C  
HETATM   15  N   UNL     1      -9.679   8.388  67.002  1.00  0.00    -0.186 NA 
HETATM   16  C   UNL     1      -9.148   7.132  67.173  1.00  0.00    -0.129 A  
HETATM   17  C   UNL     1      -8.461   6.851  65.983  1.00  0.00    -0.140 A  
HETATM   18  C   UNL     1      -7.627   5.640  65.778  1.00  0.00    -0.086 C  
HETATM   19  C   UNL     1      -9.063   6.221  68.420  1.00  0.00    -0.114 C  
HETATM   20  C   UNL     1      -7.405   4.995  67.123  1.00  0.00    -0.082 C  
HETATM   21  C   UNL     1      -8.658   3.811  68.686  1.00  0.00    -0.094 C  
HETATM   22  N   UNL     1      -8.730   4.921  67.819  1.00  0.00    -0.103 NA 
ENDROOT
BRANCH   3  23
HETATM   23  O   UNL     1      -7.978   5.676  71.274  1.00  0.00    -0.108 OA 
BRANCH  23  24
HETATM   24  C   UNL     1      -7.311   6.862  71.355  1.00  0.00    -0.081 C  
HETATM   25  O   UNL     1      -6.171   7.023  71.739  1.00  0.00    -0.038 OA 
BRANCH  24  26
HETATM   26  C   UNL     1      -8.237   7.969  70.784  1.00  0.00    -0.113 C  
HETATM   27  C   UNL     1      -8.000   9.246  70.366  1.00  0.00    -0.171 C  
BRANCH  27  28
HETATM   28  C   UNL     1      -9.002  10.202  69.706  1.00  0.00    -0.159 A  
HETATM   29  C   UNL     1     -10.362  10.188  70.034  1.00  0.00    -0.301 A  
HETATM   30  C   UNL     1      -8.635  11.133  68.697  1.00  0.00    -0.151 A  
HETATM   31  C   UNL     1      -9.578  12.013  68.071  1.00  0.00    -0.199 A  
HETATM   32  C   UNL     1     -11.298  11.096  69.482  1.00  0.00    -0.290 A  
HETATM   33  C   UNL     1     -10.924  12.008  68.480  1.00  0.00    -0.240 A  
BRANCH  32  34
HETATM   34  O   UNL     1     -12.620  11.104  69.879  1.00  0.00    -0.224 OA 
HETATM   35  C   UNL     1     -12.814  11.428  71.254  1.00  0.00    -0.379 C  
ENDBRANCH  32  34
BRANCH  33  36
HETATM   36  O   UNL     1     -11.959  12.758  67.963  1.00  0.00    -0.346 OA 
HETATM   37  C   UNL     1     -12.036  14.153  68.228  1.00  0.00    -0.332 C  
ENDBRANCH  33  36
BRANCH  31  38
HETATM   38  O   UNL     1      -9.274  12.869  67.046  1.00  0.00    -0.212 OA 
HETATM   39  C   UNL     1      -8.537  14.049  67.292  1.00  0.00    -0.216 C  
ENDBRANCH  31  38
ENDBRANCH  27  28
ENDBRANCH  24  26
ENDBRANCH  23  24
ENDBRANCH   3  23
BRANCH   5  40
HETATM   40  O   UNL     1      -8.696   2.778  73.345  1.00  0.00    -0.077 OA 
HETATM   41  C   UNL     1      -9.639   2.478  74.352  1.00  0.00    -0.090 C  
ENDBRANCH   5  40
BRANCH   8  42
HETATM   42  C   UNL     1     -10.196   6.016  73.270  1.00  0.00    -0.206 C  
HETATM   43  O   UNL     1      -9.385   6.402  74.081  1.00  0.00    -0.149 OA 
BRANCH  42  44
HETATM   44  O   UNL     1     -11.407   6.627  73.023  1.00  0.00    -0.189 OA 
HETATM   45  C   UNL     1     -11.505   7.985  72.573  1.00  0.00    -0.409 C  
ENDBRANCH  42  44
ENDBRANCH   8  42
BRANCH   6  46
HETATM   46  O   UNL     1      -9.488  11.342  62.960  1.00  0.00    -0.348 OA 
HETATM   47  C   UNL     1     -10.488  12.235  63.399  1.00  0.00    -0.368 C  
ENDBRANCH   6  46
TORSDOF 11
ENDMDL
MODEL       20
REMARK 921   NORMALIZED FREE ENERGY PREDICTED BY IDOCK:   -5.12 KCAL/MOL
REMARK 922        TOTAL FREE ENERGY PREDICTED BY IDOCK:  -10.44 KCAL/MOL
REMARK 923 INTER-LIGAND FREE ENERGY PREDICTED BY IDOCK:   -8.15 KCAL/MOL
REMARK 924 INTRA-LIGAND FREE ENERGY PREDICTED BY IDOCK:   -2.29 KCAL/MOL
REMARK 927      BINDING AFFINITY PREDICTED BY RF-SCORE:    0.00 PKD
ROOT
HETATM    1  C   UNL     1      -9.680  11.130  65.190  1.00  0.00    -0.296 C  
HETATM    2  C   UNL     1     -11.061  11.575  64.834  1.00  0.00    -0.282 C  
HETATM    3  C   UNL     1     -11.802  12.155  66.117  1.00  0.00    -0.254 C  
HETATM    4  C   UNL     1      -6.135   7.611  71.405  1.00  0.00    -0.035 A  
HETATM    5  C   UNL     1     -11.558  13.608  65.789  1.00  0.00    -0.333 C  
HETATM    6  C   UNL     1      -5.968   6.245  71.730  1.00  0.00    -0.036 A  
HETATM    7  C   UNL     1      -6.610   5.243  71.009  1.00  0.00    -0.042 A  
HETATM    8  C   UNL     1      -9.948  13.725  66.037  1.00  0.00    -0.319 C  
HETATM    9  C   UNL     1      -9.045  12.189  66.136  1.00  0.00    -0.101 C  
HETATM   10  C   UNL     1      -7.445   5.571  69.948  1.00  0.00    -0.070 A  
HETATM   11  C   UNL     1      -7.613   6.926  69.611  1.00  0.00    -0.101 A  
HETATM   12  H   UNL     1      -6.968  10.067  70.050  1.00  0.00     0.000 HD 
HETATM   13  C   UNL     1      -6.960   7.932  70.315  1.00  0.00    -0.049 A  
HETATM   14  C   UNL     1      -8.345  11.367  67.363  1.00  0.00    -0.144 C  
HETATM   15  N   UNL     1      -7.305   9.157  69.737  1.00  0.00    -0.060 NA 
HETATM   16  C   UNL     1      -8.166   8.954  68.686  1.00  0.00    -0.116 A  
HETATM   17  C   UNL     1      -8.401   7.572  68.656  1.00  0.00    -0.129 A  
HETATM   18  C   UNL     1      -9.377   6.920  67.748  1.00  0.00    -0.120 C  
HETATM   19  C   UNL     1      -8.948   9.952  67.799  1.00  0.00    -0.131 C  
HETATM   20  C   UNL     1     -10.250   7.997  67.152  1.00  0.00    -0.292 C  
HETATM   21  C   UNL     1     -10.031   9.720  65.605  1.00  0.00    -0.282 C  
HETATM   22  N   UNL     1      -9.353   9.098  66.673  1.00  0.00    -0.165 NA 
ENDROOT
BRANCH   3  23
HETATM   23  O   UNL     1     -11.131  12.135  67.501  1.00  0.00    -0.245 OA 
BRANCH  23  24
HETATM   24  C   UNL     1     -11.416  12.364  68.815  1.00  0.00    -0.304 C  
HETATM   25  O   UNL     1     -11.703  13.433  69.315  1.00  0.00    -0.289 OA 
BRANCH  24  26
HETATM   26  C   UNL     1     -11.396  10.998  69.552  1.00  0.00    -0.356 C  
HETATM   27  C   UNL     1     -10.662  10.526  70.601  1.00  0.00     0.192 C  
BRANCH  27  28
HETATM   28  C   UNL     1     -10.828   9.177  71.312  1.00  0.00    -0.402 A  
HETATM   29  C   UNL     1     -11.919   8.338  71.058  1.00  0.00    -0.260 A  
HETATM   30  C   UNL     1      -9.922   8.705  72.299  1.00  0.00    -0.361 A  
HETATM   31  C   UNL     1     -10.091   7.451  72.973  1.00  0.00    -0.273 A  
HETATM   32  C   UNL     1     -12.068   7.065  71.658  1.00  0.00    -0.347 A  
HETATM   33  C   UNL     1     -11.168   6.611  72.638  1.00  0.00    -0.249 A  
BRANCH  32  34
HETATM   34  O   UNL     1     -13.118   6.229  71.333  1.00  0.00     0.269 OA 
HETATM   35  C   UNL     1     -14.400   6.848  71.407  1.00  0.00    -0.069 C  
ENDBRANCH  32  34
BRANCH  33  36
HETATM   36  O   UNL     1     -11.494   5.399  73.209  1.00  0.00    -0.268 OA 
HETATM   37  C   UNL     1     -10.819   4.213  72.810  1.00  0.00    -0.069 C  
ENDBRANCH  33  36
BRANCH  31  38
HETATM   38  O   UNL     1      -9.280   6.999  73.980  1.00  0.00    -0.190 OA 
HETATM   39  C   UNL     1      -8.071   7.667  74.281  1.00  0.00    -0.206 C  
ENDBRANCH  31  38
ENDBRANCH  27  28
ENDBRANCH  24  26
ENDBRANCH  23  24
ENDBRANCH   3  23
BRANCH   5  40
HETATM   40  O   UNL     1     -12.023  13.903  64.455  1.00  0.00    -0.397 OA 
HETATM   41  C   UNL     1     -11.881  15.219  63.965  1.00  0.00     0.022 C  
ENDBRANCH   5  40
BRANCH   8  42
HETATM   42  C   UNL     1      -9.825  14.811  67.116  1.00  0.00    -0.232 C  
HETATM   43  O   UNL     1      -9.009  14.819  68.010  1.00  0.00    -0.166 OA 
BRANCH  42  44
HETATM   44  O   UNL     1     -10.763  15.798  66.905  1.00  0.00    -0.315 OA 
HETATM   45  C   UNL     1     -10.817  16.991  67.700  1.00  0.00    -0.244 C  
ENDBRANCH  42  44
ENDBRANCH   8  42
BRANCH   6  46
HETATM   46  O   UNL     1      -5.187   5.759  72.748  1.00  0.00    -0.017 OA 
HETATM   47  C   UNL     1      -5.687   4.650  73.462  1.00  0.00    -0.016 C  
ENDBRANCH   6  46
TORSDOF 11
ENDMDL
MODEL       21
REMARK 921   NORMALIZED FREE ENERGY PREDICTED BY IDOCK:   -5.09 KCAL/MOL
REMARK 922        TOTAL FREE ENERGY PREDICTED BY IDOCK:  -10.41 KCAL/MOL
REMARK 923 INTER-LIGAND FREE ENERGY PREDICTED BY IDOCK:   -8.60 KCAL/MOL
REMARK 924 INTRA-LIGAND FREE ENERGY PREDICTED BY IDOCK:   -1.81 KCAL/MOL
REMARK 927      BINDING AFFINITY PREDICTED BY RF-SCORE:    0.00 PKD
ROOT
HETATM    1  C   UNL     1      -9.208   5.098  66.923  1.00  0.00    -0.118 C  
HETATM    2  C   UNL     1      -7.988   4.524  67.567  1.00  0.00    -0.100 C  
HETATM    3  C   UNL     1      -7.595   5.370  68.857  1.00  0.00    -0.079 C  
HETATM    4  C   UNL     1     -12.218  12.369  65.637  1.00  0.00    -0.322 A  
HETATM    5  C   UNL     1      -8.218   4.423  69.854  1.00  0.00    -0.062 C  
HETATM    6  C   UNL     1     -12.011  13.289  64.584  1.00  0.00    -0.394 A  
HETATM    7  C   UNL     1     -11.028  13.081  63.621  1.00  0.00    -0.225 A  
HETATM    8  C   UNL     1      -9.808   4.654  69.563  1.00  0.00    -0.286 C  
HETATM    9  C   UNL     1     -10.226   5.479  68.037  1.00  0.00    -0.233 C  
HETATM   10  C   UNL     1     -10.215  11.956  63.683  1.00  0.00    -0.466 A  
HETATM   11  C   UNL     1     -10.418  11.030  64.723  1.00  0.00    -0.384 A  
HETATM   12  H   UNL     1     -12.001  10.009  67.354  1.00  0.00     0.000 HD 
HETATM   13  C   UNL     1     -11.410  11.221  65.678  1.00  0.00     0.093 A  
HETATM   14  C   UNL     1     -10.782   6.973  67.675  1.00  0.00    -0.331 C  
HETATM   15  N   UNL     1     -11.379  10.134  66.556  1.00  0.00     0.328 NA 
HETATM   16  C   UNL     1     -10.387   9.259  66.184  1.00  0.00    -0.048 A  
HETATM   17  C   UNL     1      -9.755   9.855  65.084  1.00  0.00    -0.376 A  
HETATM   18  C   UNL     1      -8.537   9.308  64.435  1.00  0.00    -0.216 C  
HETATM   19  C   UNL     1      -9.841   7.984  66.870  1.00  0.00    -0.248 C  
HETATM   20  C   UNL     1      -7.960   8.251  65.345  1.00  0.00    -0.127 C  
HETATM   21  C   UNL     1      -8.505   6.097  66.034  1.00  0.00    -0.141 C  
HETATM   22  N   UNL     1      -9.083   7.358  65.777  1.00  0.00    -0.033 NA 
ENDROOT
BRANCH   3  23
HETATM   23  O   UNL     1      -8.377   6.635  69.248  1.00  0.00    -0.122 OA 
BRANCH  23  24
HETATM   24  C   UNL     1      -8.444   7.570  70.240  1.00  0.00    -0.138 C  
HETATM   25  O   UNL     1      -8.184   7.396  71.413  1.00  0.00    -0.103 OA 
BRANCH  24  26
HETATM   26  C   UNL     1      -8.829   8.925  69.590  1.00  0.00    -0.142 C  
HETATM   27  C   UNL     1      -9.723   9.895  69.940  1.00  0.00    -0.274 C  
BRANCH  27  28
HETATM   28  C   UNL     1      -9.921  11.256  69.261  1.00  0.00     0.022 A  
HETATM   29  C   UNL     1      -8.945  11.816  68.429  1.00  0.00    -0.168 A  
HETATM   30  C   UNL     1     -11.076  12.059  69.459  1.00  0.00    -0.140 A  
HETATM   31  C   UNL     1     -11.249  13.339  68.837  1.00  0.00    -0.277 A  
HETATM   32  C   UNL     1      -9.124  13.043  67.747  1.00  0.00    -0.200 A  
HETATM   33  C   UNL     1     -10.270  13.832  67.956  1.00  0.00    -0.248 A  
BRANCH  32  34
HETATM   34  O   UNL     1      -8.173  13.534  66.876  1.00  0.00    -0.090 OA 
HETATM   35  C   UNL     1      -6.929  13.859  67.493  1.00  0.00    -0.144 C  
ENDBRANCH  32  34
BRANCH  33  36
HETATM   36  O   UNL     1     -10.263  15.048  67.306  1.00  0.00    -0.239 OA 
HETATM   37  C   UNL     1      -9.879  16.229  67.997  1.00  0.00    -0.236 C  
ENDBRANCH  33  36
BRANCH  31  38
HETATM   38  O   UNL     1     -12.314  14.171  69.061  1.00  0.00    -0.294 OA 
HETATM   39  C   UNL     1     -12.508  14.760  70.332  1.00  0.00    -0.349 C  
ENDBRANCH  31  38
ENDBRANCH  27  28
ENDBRANCH  24  26
ENDBRANCH  23  24
ENDBRANCH   3  23
BRANCH   5  40
HETATM   40  O   UNL     1      -7.717   3.085  69.652  1.00  0.00    -0.044 OA 
HETATM   41  C   UNL     1      -7.084   2.430  70.730  1.00  0.00    -0.033 C  
ENDBRANCH   5  40
BRANCH   8  42
HETATM   42  C   UNL     1     -10.362   5.121  70.917  1.00  0.00    -0.212 C  
HETATM   43  O   UNL     1     -11.276   5.899  71.067  1.00  0.00    -0.279 OA 
BRANCH  42  44
HETATM   44  O   UNL     1      -9.685   4.501  71.945  1.00  0.00    -0.152 OA 
HETATM   45  C   UNL     1     -10.357   3.754  72.968  1.00  0.00    -0.167 C  
ENDBRANCH  42  44
ENDBRANCH   8  42
BRANCH   6  46
HETATM   46  O   UNL     1     -12.721  14.446  64.387  1.00  0.00    -0.665 OA 
HETATM   47  C   UNL     1     -11.989  15.653  64.397  1.00  0.00    -0.136 C  
ENDBRANCH   6  46
TORSDOF 11
ENDMDL
MODEL       22
REMARK 921   NORMALIZED FREE ENERGY PREDICTED BY IDOCK:   -5.06 KCAL/MOL
REMARK 922        TOTAL FREE ENERGY PREDICTED BY IDOCK:  -10.35 KCAL/MOL
REMARK 923 INTER-LIGAND FREE ENERGY PREDICTED BY IDOCK:   -8.46 KCAL/MOL
REMARK 924 INTRA-LIGAND FREE ENERGY PREDICTED BY IDOCK:   -1.89 KCAL/MOL
REMARK 927      BINDING AFFINITY PREDICTED BY RF-SCORE:    0.00 PKD
ROOT
HETATM    1  C   UNL     1      -8.982   5.395  67.319  1.00  0.00    -0.111 C  
HETATM    2  C   UNL     1      -7.862   4.894  68.172  1.00  0.00    -0.083 C  
HETATM    3  C   UNL     1      -7.766   5.744  69.514  1.00  0.00    -0.092 C  
HETATM    4  C   UNL     1     -12.203  12.468  65.535  1.00  0.00    -0.442 A  
HETATM    5  C   UNL     1      -8.492   4.742  70.379  1.00  0.00    -0.090 C  
HETATM    6  C   UNL     1     -11.873  13.416  64.539  1.00  0.00    -0.398 A  
HETATM    7  C   UNL     1     -10.721  13.289  63.769  1.00  0.00     0.033 A  
HETATM    8  C   UNL     1     -10.016   4.871  69.805  1.00  0.00    -0.314 C  
HETATM    9  C   UNL     1     -10.208   5.690  68.232  1.00  0.00    -0.239 C  
HETATM   10  C   UNL     1      -9.858  12.220  63.973  1.00  0.00    -0.194 A  
HETATM   11  C   UNL     1     -10.180  11.266  64.956  1.00  0.00    -0.339 A  
HETATM   12  H   UNL     1     -12.137  10.101  67.254  1.00  0.00     0.000 HD 
HETATM   13  C   UNL     1     -11.339  11.376  65.717  1.00  0.00    -0.008 A  
HETATM   14  C   UNL     1     -10.791   7.149  67.781  1.00  0.00    -0.248 C  
HETATM   15  N   UNL     1     -11.392  10.280  66.582  1.00  0.00     0.145 NA 
HETATM   16  C   UNL     1     -10.291   9.479  66.393  1.00  0.00    -0.173 A  
HETATM   17  C   UNL     1      -9.514  10.133  65.427  1.00  0.00    -0.296 A  
HETATM   18  C   UNL     1      -8.165   9.679  65.007  1.00  0.00    -0.137 C  
HETATM   19  C   UNL     1      -9.792   8.232  67.162  1.00  0.00    -0.217 C  
HETATM   20  C   UNL     1      -7.690   8.649  66.003  1.00  0.00    -0.100 C  
HETATM   21  C   UNL     1      -8.201   6.453  66.575  1.00  0.00    -0.113 C  
HETATM   22  N   UNL     1      -8.808   7.676  66.222  1.00  0.00    -0.151 NA 
ENDROOT
BRANCH   3  23
HETATM   23  O   UNL     1      -8.691   6.948  69.761  1.00  0.00    -0.140 OA 
BRANCH  23  24
HETATM   24  C   UNL     1      -8.969   7.887  70.711  1.00  0.00    -0.140 C  
HETATM   25  O   UNL     1      -8.982   7.715  71.913  1.00  0.00    -0.116 OA 
BRANCH  24  26
HETATM   26  C   UNL     1      -9.184   9.244  69.990  1.00  0.00    -0.231 C  
HETATM   27  C   UNL     1     -10.165  10.189  70.074  1.00  0.00    -0.271 C  
BRANCH  27  28
HETATM   28  C   UNL     1     -10.191  11.556  69.379  1.00  0.00     0.153 A  
HETATM   29  C   UNL     1     -11.293  12.414  69.478  1.00  0.00    -0.250 A  
HETATM   30  C   UNL     1      -9.131  12.030  68.560  1.00  0.00    -0.107 A  
HETATM   31  C   UNL     1      -9.168  13.301  67.899  1.00  0.00    -0.213 A  
HETATM   32  C   UNL     1     -11.322  13.703  68.894  1.00  0.00    -0.290 A  
HETATM   33  C   UNL     1     -10.269  14.158  68.081  1.00  0.00    -0.241 A  
BRANCH  32  34
HETATM   34  O   UNL     1     -12.394  14.554  69.070  1.00  0.00    -0.225 OA 
HETATM   35  C   UNL     1     -12.447  15.168  70.356  1.00  0.00    -0.368 C  
ENDBRANCH  32  34
BRANCH  33  36
HETATM   36  O   UNL     1     -10.478  15.389  67.496  1.00  0.00    -0.264 OA 
HETATM   37  C   UNL     1      -9.895  16.558  68.057  1.00  0.00    -0.240 C  
ENDBRANCH  33  36
BRANCH  31  38
HETATM   38  O   UNL     1      -8.199  13.758  67.045  1.00  0.00    -0.144 OA 
HETATM   39  C   UNL     1      -6.907  14.069  67.528  1.00  0.00    -0.131 C  
ENDBRANCH  31  38
ENDBRANCH  27  28
ENDBRANCH  24  26
ENDBRANCH  23  24
ENDBRANCH   3  23
BRANCH   5  40
HETATM   40  O   UNL     1      -7.873   3.445  70.266  1.00  0.00    -0.046 OA 
HETATM   41  C   UNL     1      -7.311   2.860  71.422  1.00  0.00    -0.033 C  
ENDBRANCH   5  40
BRANCH   8  42
HETATM   42  C   UNL     1     -10.835   5.278  71.039  1.00  0.00    -0.055 C  
HETATM   43  O   UNL     1     -10.639   4.890  72.168  1.00  0.00    -0.208 OA 
BRANCH  42  44
HETATM   44  O   UNL     1     -11.815   6.180  70.681  1.00  0.00    -0.222 OA 
HETATM   45  C   UNL     1     -12.524   6.969  71.646  1.00  0.00    -0.374 C  
ENDBRANCH  42  44
ENDBRANCH   8  42
BRANCH   6  46
HETATM   46  O   UNL     1     -12.614  14.526  64.221  1.00  0.00    -0.681 OA 
HETATM   47  C   UNL     1     -11.957  15.773  64.293  1.00  0.00    -0.058 C  
ENDBRANCH   6  46
TORSDOF 11
ENDMDL
MODEL       23
REMARK 921   NORMALIZED FREE ENERGY PREDICTED BY IDOCK:   -5.04 KCAL/MOL
REMARK 922        TOTAL FREE ENERGY PREDICTED BY IDOCK:  -10.33 KCAL/MOL
REMARK 923 INTER-LIGAND FREE ENERGY PREDICTED BY IDOCK:   -8.74 KCAL/MOL
REMARK 924 INTRA-LIGAND FREE ENERGY PREDICTED BY IDOCK:   -1.59 KCAL/MOL
REMARK 927      BINDING AFFINITY PREDICTED BY RF-SCORE:    0.00 PKD
ROOT
HETATM    1  C   UNL     1      -7.544  15.793  68.326  1.00  0.00    -0.127 C  
HETATM    2  C   UNL     1      -6.868  16.134  67.037  1.00  0.00    -0.216 C  
HETATM    3  C   UNL     1      -7.915  16.103  65.839  1.00  0.00     0.687 C  
HETATM    4  C   UNL     1     -13.303  10.826  70.724  1.00  0.00     0.075 A  
HETATM    5  C   UNL     1      -8.131  17.597  65.790  1.00  0.00     0.168 C  
HETATM    6  C   UNL     1     -13.254   9.473  71.132  1.00  0.00    -0.264 A  
HETATM    7  C   UNL     1     -12.095   8.716  70.998  1.00  0.00    -0.247 A  
HETATM    8  C   UNL     1      -8.956  17.846  67.178  1.00  0.00    -0.252 C  
HETATM    9  C   UNL     1      -8.917  16.522  68.374  1.00  0.00    -0.219 C  
HETATM   10  C   UNL     1     -10.951   9.279  70.445  1.00  0.00    -0.302 A  
HETATM   11  C   UNL     1     -10.985  10.626  70.042  1.00  0.00    -0.325 A  
HETATM   12  H   UNL     1     -12.515  13.459  69.716  1.00  0.00     0.000 HD 
HETATM   13  C   UNL     1     -12.134  11.395  70.190  1.00  0.00    -0.357 A  
HETATM   14  C   UNL     1     -10.017  15.424  68.880  1.00  0.00    -0.219 C  
HETATM   15  N   UNL     1     -11.854  12.683  69.725  1.00  0.00    -0.327 NA 
HETATM   16  C   UNL     1     -10.555  12.749  69.280  1.00  0.00     0.162 A  
HETATM   17  C   UNL     1     -10.045  11.451  69.423  1.00  0.00     0.147 A  
HETATM   18  C   UNL     1      -8.702  11.036  68.945  1.00  0.00    -0.122 C  
HETATM   19  C   UNL     1      -9.780  13.876  68.557  1.00  0.00    -0.202 C  
HETATM   20  C   UNL     1      -8.177  12.118  68.035  1.00  0.00    -0.158 C  
HETATM   21  C   UNL     1      -7.379  14.294  68.240  1.00  0.00    -0.124 C  
HETATM   22  N   UNL     1      -8.388  13.434  68.720  1.00  0.00     0.006 NA 
ENDROOT
BRANCH   3  23
HETATM   23  O   UNL     1      -9.377  15.685  66.070  1.00  0.00    -0.318 OA 
BRANCH  23  24
HETATM   24  C   UNL     1     -10.357  14.922  65.507  1.00  0.00    -0.365 C  
HETATM   25  O   UNL     1     -11.438  15.312  65.114  1.00  0.00    -0.333 OA 
BRANCH  24  26
HETATM   26  C   UNL     1      -9.817  13.474  65.375  1.00  0.00    -0.141 C  
HETATM   27  C   UNL     1     -10.425  12.253  65.425  1.00  0.00    -0.302 C  
BRANCH  27  28
HETATM   28  C   UNL     1      -9.778  10.888  65.159  1.00  0.00    -0.312 A  
HETATM   29  C   UNL     1      -9.839   9.847  66.092  1.00  0.00    -0.324 A  
HETATM   30  C   UNL     1      -9.043  10.596  63.979  1.00  0.00    -0.246 A  
HETATM   31  C   UNL     1      -8.426   9.324  63.742  1.00  0.00    -0.191 A  
HETATM   32  C   UNL     1      -9.301   8.561  65.849  1.00  0.00    -0.163 A  
HETATM   33  C   UNL     1      -8.570   8.286  64.680  1.00  0.00     0.022 A  
BRANCH  32  34
HETATM   34  O   UNL     1      -9.440   7.533  66.760  1.00  0.00    -0.160 OA 
HETATM   35  C   UNL     1      -8.700   7.716  67.964  1.00  0.00    -0.125 C  
ENDBRANCH  32  34
BRANCH  33  36
HETATM   36  O   UNL     1      -8.017   7.024  64.624  1.00  0.00    -0.122 OA 
HETATM   37  C   UNL     1      -6.625   6.839  64.850  1.00  0.00    -0.043 C  
ENDBRANCH  33  36
BRANCH  31  38
HETATM   38  O   UNL     1      -7.649   9.032  62.651  1.00  0.00    -0.106 OA 
HETATM   39  C   UNL     1      -6.492   9.794  62.371  1.00  0.00    -0.103 C  
ENDBRANCH  31  38
ENDBRANCH  27  28
ENDBRANCH  24  26
ENDBRANCH  23  24
ENDBRANCH   3  23
BRANCH   5  40
HETATM   40  O   UNL     1      -6.866  18.280  65.665  1.00  0.00    -0.380 OA 
HETATM   41  C   UNL     1      -6.866  19.687  65.549  1.00  0.00    -0.294 C  
ENDBRANCH   5  40
BRANCH   8  42
HETATM   42  C   UNL     1     -10.274  18.479  66.708  1.00  0.00    -0.393 C  
HETATM   43  O   UNL     1     -10.727  18.401  65.589  1.00  0.00    -0.548 OA 
BRANCH  42  44
HETATM   44  O   UNL     1     -10.888  19.129  67.757  1.00  0.00    -0.407 OA 
HETATM   45  C   UNL     1     -10.149  19.841  68.759  1.00  0.00    -0.421 C  
ENDBRANCH  42  44
ENDBRANCH   8  42
BRANCH   6  46
HETATM   46  O   UNL     1     -14.294   8.772  71.687  1.00  0.00    -0.381 OA 
HETATM   47  C   UNL     1     -14.386   7.403  71.360  1.00  0.00    -0.367 C  
ENDBRANCH   6  46
TORSDOF 11
ENDMDL
MODEL       24
REMARK 921   NORMALIZED FREE ENERGY PREDICTED BY IDOCK:   -4.95 KCAL/MOL
REMARK 922        TOTAL FREE ENERGY PREDICTED BY IDOCK:  -10.18 KCAL/MOL
REMARK 923 INTER-LIGAND FREE ENERGY PREDICTED BY IDOCK:   -8.17 KCAL/MOL
REMARK 924 INTRA-LIGAND FREE ENERGY PREDICTED BY IDOCK:   -2.01 KCAL/MOL
REMARK 927      BINDING AFFINITY PREDICTED BY RF-SCORE:    0.00 PKD
ROOT
HETATM    1  C   UNL     1      -7.556  16.077  68.456  1.00  0.00    -0.155 C  
HETATM    2  C   UNL     1      -6.917  16.518  67.179  1.00  0.00    -0.230 C  
HETATM    3  C   UNL     1      -7.987  16.535  66.002  1.00  0.00     0.045 C  
HETATM    4  C   UNL     1     -13.125  10.803  70.637  1.00  0.00    -0.204 A  
HETATM    5  C   UNL     1      -8.246  18.022  66.053  1.00  0.00    -0.054 C  
HETATM    6  C   UNL     1     -13.031   9.429  70.956  1.00  0.00    -0.163 A  
HETATM    7  C   UNL     1     -11.854   8.715  70.751  1.00  0.00    -0.197 A  
HETATM    8  C   UNL     1      -9.048  18.157  67.470  1.00  0.00    -0.254 C  
HETATM    9  C   UNL     1      -8.948  16.761  68.577  1.00  0.00    -0.244 C  
HETATM   10  C   UNL     1     -10.739   9.345  70.214  1.00  0.00    -0.299 A  
HETATM   11  C   UNL     1     -10.818  10.713  69.900  1.00  0.00    -0.301 A  
HETATM   12  H   UNL     1     -12.432  13.516  69.787  1.00  0.00     0.000 HD 
HETATM   13  C   UNL     1     -11.984  11.438  70.119  1.00  0.00    -0.377 A  
HETATM   14  C   UNL     1     -10.006  15.602  69.032  1.00  0.00    -0.233 C  
HETATM   15  N   UNL     1     -11.749  12.761  69.732  1.00  0.00    -0.304 NA 
HETATM   16  C   UNL     1     -10.463  12.892  69.268  1.00  0.00     0.244 A  
HETATM   17  C   UNL     1      -9.914  11.603  69.317  1.00  0.00     0.222 A  
HETATM   18  C   UNL     1      -8.571  11.258  68.788  1.00  0.00    -0.109 C  
HETATM   19  C   UNL     1      -9.734  14.085  68.605  1.00  0.00    -0.179 C  
HETATM   20  C   UNL     1      -8.094  12.411  67.940  1.00  0.00    -0.161 C  
HETATM   21  C   UNL     1      -7.352  14.591  68.270  1.00  0.00    -0.120 C  
HETATM   22  N   UNL     1      -8.327  13.673  68.713  1.00  0.00    -0.030 NA 
ENDROOT
BRANCH   3  23
HETATM   23  O   UNL     1      -9.432  16.061  66.233  1.00  0.00    -0.265 OA 
BRANCH  23  24
HETATM   24  C   UNL     1     -10.410  15.325  65.631  1.00  0.00    -0.366 C  
HETATM   25  O   UNL     1     -11.475  15.739  65.221  1.00  0.00    -0.135 OA 
BRANCH  24  26
HETATM   26  C   UNL     1      -9.888  13.871  65.482  1.00  0.00    -0.213 C  
HETATM   27  C   UNL     1     -10.472  12.721  65.038  1.00  0.00    -0.334 C  
BRANCH  27  28
HETATM   28  C   UNL     1      -9.795  11.360  64.831  1.00  0.00    -0.301 A  
HETATM   29  C   UNL     1      -8.938  11.118  63.752  1.00  0.00    -0.010 A  
HETATM   30  C   UNL     1     -10.017  10.247  65.685  1.00  0.00    -0.347 A  
HETATM   31  C   UNL     1      -9.395   8.972  65.479  1.00  0.00    -0.187 A  
HETATM   32  C   UNL     1      -8.256   9.891  63.568  1.00  0.00    -0.163 A  
HETATM   33  C   UNL     1      -8.489   8.795  64.417  1.00  0.00    -0.129 A  
BRANCH  32  34
HETATM   34  O   UNL     1      -7.361   9.707  62.534  1.00  0.00    -0.109 OA 
HETATM   35  C   UNL     1      -6.187  10.511  62.628  1.00  0.00    -0.135 C  
ENDBRANCH  32  34
BRANCH  33  36
HETATM   36  O   UNL     1      -7.835   7.635  64.059  1.00  0.00    -0.127 OA 
HETATM   37  C   UNL     1      -6.838   7.082  64.908  1.00  0.00    -0.047 C  
ENDBRANCH  33  36
BRANCH  31  38
HETATM   38  O   UNL     1      -9.642   7.858  66.237  1.00  0.00    -0.195 OA 
HETATM   39  C   UNL     1     -10.780   7.799  67.074  1.00  0.00    -0.246 C  
ENDBRANCH  31  38
ENDBRANCH  27  28
ENDBRANCH  24  26
ENDBRANCH  23  24
ENDBRANCH   3  23
BRANCH   5  40
HETATM   40  O   UNL     1      -7.003  18.747  65.949  1.00  0.00    -0.246 OA 
HETATM   41  C   UNL     1      -7.017  20.145  66.149  1.00  0.00    -0.257 C  
ENDBRANCH   5  40
BRANCH   8  42
HETATM   42  C   UNL     1     -10.392  18.781  67.068  1.00  0.00    -0.403 C  
HETATM   43  O   UNL     1     -11.295  19.046  67.828  1.00  0.00    -0.028 OA 
BRANCH  42  44
HETATM   44  O   UNL     1     -10.415  19.026  65.711  1.00  0.00    -0.530 OA 
HETATM   45  C   UNL     1     -10.896  20.260  65.161  1.00  0.00     0.447 C  
ENDBRANCH  42  44
ENDBRANCH   8  42
BRANCH   6  46
HETATM   46  O   UNL     1     -14.040   8.664  71.484  1.00  0.00    -0.394 OA 
HETATM   47  C   UNL     1     -13.779   7.286  71.642  1.00  0.00    -0.347 C  
ENDBRANCH   6  46
TORSDOF 11
ENDMDL
MODEL       25
REMARK 921   NORMALIZED FREE ENERGY PREDICTED BY IDOCK:   -4.89 KCAL/MOL
REMARK 922        TOTAL FREE ENERGY PREDICTED BY IDOCK:  -10.08 KCAL/MOL
REMARK 923 INTER-LIGAND FREE ENERGY PREDICTED BY IDOCK:   -8.35 KCAL/MOL
REMARK 924 INTRA-LIGAND FREE ENERGY PREDICTED BY IDOCK:   -1.73 KCAL/MOL
REMARK 927      BINDING AFFINITY PREDICTED BY RF-SCORE:    0.00 PKD
ROOT
HETATM    1  C   UNL     1     -11.711  10.969  68.120  1.00  0.00    -0.277 C  
HETATM    2  C   UNL     1     -11.163  12.358  68.186  1.00  0.00    -0.313 C  
HETATM    3  C   UNL     1      -9.574  12.323  68.246  1.00  0.00    -0.212 C  
HETATM    4  C   UNL     1      -9.904   3.866  71.261  1.00  0.00    -0.227 A  
HETATM    5  C   UNL     1      -9.361  12.615  66.779  1.00  0.00    -0.232 C  
HETATM    6  C   UNL     1     -10.277   3.269  72.487  1.00  0.00    -0.146 A  
HETATM    7  C   UNL     1     -10.947   3.989  73.472  1.00  0.00    -0.354 A  
HETATM    8  C   UNL     1      -9.873  11.221  66.099  1.00  0.00    -0.262 C  
HETATM    9  C   UNL     1     -10.837  10.136  67.138  1.00  0.00    -0.257 C  
HETATM   10  C   UNL     1     -11.257   5.328  73.269  1.00  0.00    -0.359 A  
HETATM   11  C   UNL     1     -10.898   5.931  72.050  1.00  0.00    -0.303 A  
HETATM   12  H   UNL     1      -9.589   5.806  69.093  1.00  0.00     0.000 HD 
HETATM   13  C   UNL     1     -10.245   5.213  71.054  1.00  0.00    -0.225 A  
HETATM   14  C   UNL     1     -10.532   8.709  67.872  1.00  0.00    -0.269 C  
HETATM   15  N   UNL     1     -10.044   6.068  69.967  1.00  0.00    -0.176 NA 
HETATM   16  C   UNL     1     -10.549   7.314  70.251  1.00  0.00    -0.229 A  
HETATM   17  C   UNL     1     -11.019   7.236  71.570  1.00  0.00    -0.259 A  
HETATM   18  C   UNL     1     -11.538   8.399  72.331  1.00  0.00    -0.450 C  
HETATM   19  C   UNL     1     -10.477   8.647  69.468  1.00  0.00    -0.220 C  
HETATM   20  C   UNL     1     -11.164   9.653  71.579  1.00  0.00    -0.307 C  
HETATM   21  C   UNL     1     -11.788  10.722  69.609  1.00  0.00    -0.320 C  
HETATM   22  N   UNL     1     -11.517   9.443  70.138  1.00  0.00    -0.192 NA 
ENDROOT
BRANCH   3  23
HETATM   23  O   UNL     1      -8.808  10.990  68.310  1.00  0.00    -0.132 OA 
BRANCH  23  24
HETATM   24  C   UNL     1      -7.653  10.460  68.805  1.00  0.00    -0.097 C  
HETATM   25  O   UNL     1      -6.883  11.000  69.572  1.00  0.00    -0.109 OA 
BRANCH  24  26
HETATM   26  C   UNL     1      -7.536   9.004  68.282  1.00  0.00    -0.083 C  
HETATM   27  C   UNL     1      -7.002   7.870  68.821  1.00  0.00    -0.066 C  
BRANCH  27  28
HETATM   28  C   UNL     1      -7.059   6.454  68.234  1.00  0.00    -0.083 A  
HETATM   29  C   UNL     1      -7.713   6.179  67.028  1.00  0.00    -0.100 A  
HETATM   30  C   UNL     1      -6.497   5.323  68.885  1.00  0.00    -0.042 A  
HETATM   31  C   UNL     1      -6.568   3.998  68.342  1.00  0.00    -0.045 A  
HETATM   32  C   UNL     1      -7.733   4.893  66.436  1.00  0.00    -0.092 A  
HETATM   33  C   UNL     1      -7.179   3.781  67.094  1.00  0.00    -0.064 A  
BRANCH  32  34
HETATM   34  O   UNL     1      -8.324   4.669  65.210  1.00  0.00    -0.117 OA 
HETATM   35  C   UNL     1      -7.799   5.470  64.154  1.00  0.00    -0.103 C  
ENDBRANCH  32  34
BRANCH  33  36
HETATM   36  O   UNL     1      -7.361   2.576  66.449  1.00  0.00    -0.063 OA 
HETATM   37  C   UNL     1      -8.465   1.743  66.782  1.00  0.00    -0.095 C  
ENDBRANCH  33  36
BRANCH  31  38
HETATM   38  O   UNL     1      -6.103   2.876  68.976  1.00  0.00    -0.023 OA 
HETATM   39  C   UNL     1      -6.632   2.489  70.228  1.00  0.00    -0.032 C  
ENDBRANCH  31  38
ENDBRANCH  27  28
ENDBRANCH  24  26
ENDBRANCH  23  24
ENDBRANCH   3  23
BRANCH   5  40
HETATM   40  O   UNL     1     -10.072  13.811  66.401  1.00  0.00    -0.279 OA 
HETATM   41  C   UNL     1     -10.352  14.028  65.034  1.00  0.00    -0.409 C  
ENDBRANCH   5  40
BRANCH   8  42
HETATM   42  C   UNL     1      -8.645  10.722  65.324  1.00  0.00    -0.148 C  
HETATM   43  O   UNL     1      -7.503  11.069  65.525  1.00  0.00     0.020 OA 
BRANCH  42  44
HETATM   44  O   UNL     1      -9.025   9.794  64.378  1.00  0.00    -0.214 OA 
HETATM   45  C   UNL     1      -8.694   9.932  62.989  1.00  0.00    -0.218 C  
ENDBRANCH  42  44
ENDBRANCH   8  42
BRANCH   6  46
HETATM   46  O   UNL     1     -10.039   1.965  72.842  1.00  0.00    -0.098 OA 
HETATM   47  C   UNL     1      -8.745   1.659  73.314  1.00  0.00    -0.061 C  
ENDBRANCH   6  46
TORSDOF 11
ENDMDL
MODEL       26
REMARK 921   NORMALIZED FREE ENERGY PREDICTED BY IDOCK:   -4.85 KCAL/MOL
REMARK 922        TOTAL FREE ENERGY PREDICTED BY IDOCK:  -10.01 KCAL/MOL
REMARK 923 INTER-LIGAND FREE ENERGY PREDICTED BY IDOCK:   -9.10 KCAL/MOL
REMARK 924 INTRA-LIGAND FREE ENERGY PREDICTED BY IDOCK:   -0.91 KCAL/MOL
REMARK 927      BINDING AFFINITY PREDICTED BY RF-SCORE:    0.00 PKD
ROOT
HETATM    1  C   UNL     1     -12.016  11.413  69.036  1.00  0.00    -0.387 C  
HETATM    2  C   UNL     1     -11.664  12.728  69.653  1.00  0.00    -0.372 C  
HETATM    3  C   UNL     1     -10.401  13.361  68.921  1.00  0.00    -0.072 C  
HETATM    4  C   UNL     1      -8.072   5.207  65.951  1.00  0.00    -0.109 A  
HETATM    5  C   UNL     1     -11.191  14.307  68.048  1.00  0.00    -0.280 C  
HETATM    6  C   UNL     1      -7.533   4.051  66.561  1.00  0.00    -0.084 A  
HETATM    7  C   UNL     1      -7.480   3.918  67.945  1.00  0.00    -0.067 A  
HETATM    8  C   UNL     1     -11.907  13.264  67.014  1.00  0.00    -0.442 C  
HETATM    9  C   UNL     1     -11.903  11.544  67.489  1.00  0.00    -0.157 C  
HETATM   10  C   UNL     1      -7.952   4.936  68.764  1.00  0.00    -0.080 A  
HETATM   11  C   UNL     1      -8.498   6.088  68.168  1.00  0.00    -0.115 A  
HETATM   12  H   UNL     1      -9.360   7.807  65.566  1.00  0.00     0.000 HD 
HETATM   13  C   UNL     1      -8.572   6.220  66.786  1.00  0.00    -0.116 A  
HETATM   14  C   UNL     1     -11.089  10.228  66.963  1.00  0.00    -0.104 C  
HETATM   15  N   UNL     1      -9.175   7.449  66.502  1.00  0.00    -0.161 NA 
HETATM   16  C   UNL     1      -9.481   8.102  67.671  1.00  0.00    -0.145 A  
HETATM   17  C   UNL     1      -9.000   7.278  68.698  1.00  0.00    -0.128 A  
HETATM   18  C   UNL     1      -9.007   7.658  70.133  1.00  0.00    -0.146 C  
HETATM   19  C   UNL     1     -10.029   9.526  67.931  1.00  0.00    -0.172 C  
HETATM   20  C   UNL     1      -9.296   9.136  70.222  1.00  0.00    -0.220 C  
HETATM   21  C   UNL     1     -11.111  10.552  69.885  1.00  0.00    -0.307 C  
HETATM   22  N   UNL     1     -10.466   9.427  69.332  1.00  0.00    -0.213 NA 
ENDROOT
BRANCH   3  23
HETATM   23  O   UNL     1      -9.667  12.604  67.801  1.00  0.00    -0.195 OA 
BRANCH  23  24
HETATM   24  C   UNL     1      -8.437  12.517  67.216  1.00  0.00    -0.185 C  
HETATM   25  O   UNL     1      -7.999  11.570  66.596  1.00  0.00    -0.158 OA 
BRANCH  24  26
HETATM   26  C   UNL     1      -7.723  13.881  67.408  1.00  0.00    -0.165 C  
HETATM   27  C   UNL     1      -7.971  15.130  66.919  1.00  0.00    -0.155 C  
BRANCH  27  28
HETATM   28  C   UNL     1      -7.243  16.429  67.289  1.00  0.00    -0.210 A  
HETATM   29  C   UNL     1      -6.575  16.579  68.509  1.00  0.00    -0.139 A  
HETATM   30  C   UNL     1      -7.229  17.575  66.450  1.00  0.00    -0.326 A  
HETATM   31  C   UNL     1      -6.562  18.793  66.807  1.00  0.00    -0.189 A  
HETATM   32  C   UNL     1      -5.848  17.745  68.852  1.00  0.00    -0.188 A  
HETATM   33  C   UNL     1      -5.847  18.875  68.015  1.00  0.00    -0.203 A  
BRANCH  32  34
HETATM   34  O   UNL     1      -5.139  17.835  70.032  1.00  0.00    -0.177 OA 
HETATM   35  C   UNL     1      -5.127  16.634  70.800  1.00  0.00    -0.219 C  
ENDBRANCH  32  34
BRANCH  33  36
HETATM   36  O   UNL     1      -5.184  19.972  68.523  1.00  0.00    -0.185 OA 
HETATM   37  C   UNL     1      -5.831  20.837  69.448  1.00  0.00    -0.303 C  
ENDBRANCH  33  36
BRANCH  31  38
HETATM   38  O   UNL     1      -6.590  19.939  66.057  1.00  0.00    -0.209 OA 
HETATM   39  C   UNL     1      -6.152  19.927  64.713  1.00  0.00    -0.263 C  
ENDBRANCH  31  38
ENDBRANCH  27  28
ENDBRANCH  24  26
ENDBRANCH  23  24
ENDBRANCH   3  23
BRANCH   5  40
HETATM   40  O   UNL     1     -12.073  15.112  68.857  1.00  0.00    -0.281 OA 
HETATM   41  C   UNL     1     -11.533  16.215  69.554  1.00  0.00    -0.292 C  
ENDBRANCH   5  40
BRANCH   8  42
HETATM   42  C   UNL     1     -11.416  13.726  65.634  1.00  0.00    -0.310 C  
HETATM   43  O   UNL     1     -10.663  13.108  64.916  1.00  0.00    -0.312 OA 
BRANCH  42  44
HETATM   44  O   UNL     1     -11.981  14.942  65.312  1.00  0.00    -0.284 OA 
HETATM   45  C   UNL     1     -11.508  15.745  64.222  1.00  0.00    -0.198 C  
ENDBRANCH  42  44
ENDBRANCH   8  42
BRANCH   6  46
HETATM   46  O   UNL     1      -7.022   2.966  65.896  1.00  0.00    -0.054 OA 
HETATM   47  C   UNL     1      -6.021   2.225  66.559  1.00  0.00    -0.023 C  
ENDBRANCH   6  46
TORSDOF 11
ENDMDL
MODEL       27
REMARK 921   NORMALIZED FREE ENERGY PREDICTED BY IDOCK:   -4.84 KCAL/MOL
REMARK 922        TOTAL FREE ENERGY PREDICTED BY IDOCK:   -9.99 KCAL/MOL
REMARK 923 INTER-LIGAND FREE ENERGY PREDICTED BY IDOCK:   -7.05 KCAL/MOL
REMARK 924 INTRA-LIGAND FREE ENERGY PREDICTED BY IDOCK:   -2.94 KCAL/MOL
REMARK 927      BINDING AFFINITY PREDICTED BY RF-SCORE:    0.00 PKD
ROOT
HETATM    1  C   UNL     1      -6.607  15.008  68.337  1.00  0.00    -0.102 C  
HETATM    2  C   UNL     1      -6.720  15.924  67.161  1.00  0.00    -0.168 C  
HETATM    3  C   UNL     1      -8.136  15.749  66.458  1.00  0.00    -0.196 C  
HETATM    4  C   UNL     1      -8.937   7.605  70.169  1.00  0.00    -0.146 A  
HETATM    5  C   UNL     1      -8.774  16.958  67.099  1.00  0.00    -0.201 C  
HETATM    6  C   UNL     1      -8.319   6.353  69.945  1.00  0.00    -0.130 A  
HETATM    7  C   UNL     1      -7.183   6.236  69.151  1.00  0.00    -0.087 A  
HETATM    8  C   UNL     1      -8.913  16.461  68.649  1.00  0.00    -0.233 C  
HETATM    9  C   UNL     1      -7.955  15.029  69.114  1.00  0.00    -0.195 C  
HETATM   10  C   UNL     1      -6.632   7.360  68.547  1.00  0.00    -0.049 A  
HETATM   11  C   UNL     1      -7.234   8.612  68.769  1.00  0.00    -0.075 A  
HETATM   12  H   UNL     1      -9.493  10.478  70.142  1.00  0.00     0.000 HD 
HETATM   13  C   UNL     1      -8.359   8.740  69.576  1.00  0.00    -0.119 A  
HETATM   14  C   UNL     1      -8.334  13.474  69.443  1.00  0.00     0.834 C  
HETATM   15  N   UNL     1      -8.707  10.093  69.620  1.00  0.00    -0.182 NA 
HETATM   16  C   UNL     1      -7.832  10.827  68.855  1.00  0.00    -0.136 A  
HETATM   17  C   UNL     1      -6.961   9.891  68.280  1.00  0.00    -0.072 A  
HETATM   18  C   UNL     1      -5.925  10.236  67.275  1.00  0.00    -0.053 C  
HETATM   19  C   UNL     1      -7.833  12.322  68.455  1.00  0.00    -0.111 C  
HETATM   20  C   UNL     1      -6.208  11.632  66.776  1.00  0.00    -0.123 C  
HETATM   21  C   UNL     1      -6.072  13.805  67.594  1.00  0.00    -0.084 C  
HETATM   22  N   UNL     1      -6.456  12.502  67.970  1.00  0.00    -0.076 NA 
ENDROOT
BRANCH   3  23
HETATM   23  O   UNL     1      -9.143  14.694  66.947  1.00  0.00    -0.227 OA 
BRANCH  23  24
HETATM   24  C   UNL     1     -10.179  13.932  66.490  1.00  0.00    -0.280 C  
HETATM   25  O   UNL     1     -11.307  14.315  66.258  1.00  0.00    -0.330 OA 
BRANCH  24  26
HETATM   26  C   UNL     1      -9.639  12.500  66.235  1.00  0.00    -0.246 C  
HETATM   27  C   UNL     1     -10.258  11.292  66.097  1.00  0.00    -0.291 C  
BRANCH  27  28
HETATM   28  C   UNL     1      -9.602   9.955  65.726  1.00  0.00    -0.312 A  
HETATM   29  C   UNL     1      -9.954   8.759  66.361  1.00  0.00    -0.346 A  
HETATM   30  C   UNL     1      -8.573   9.841  64.753  1.00  0.00    -0.195 A  
HETATM   31  C   UNL     1      -7.951   8.593  64.422  1.00  0.00    -0.146 A  
HETATM   32  C   UNL     1      -9.405   7.505  66.000  1.00  0.00     0.001 A  
HETATM   33  C   UNL     1      -8.383   7.406  65.040  1.00  0.00    -0.050 A  
BRANCH  32  34
HETATM   34  O   UNL     1      -9.825   6.333  66.596  1.00  0.00    -0.159 OA 
HETATM   35  C   UNL     1     -11.021   6.463  67.362  1.00  0.00    -0.376 C  
ENDBRANCH  32  34
BRANCH  33  36
HETATM   36  O   UNL     1      -7.873   6.136  64.865  1.00  0.00    -0.095 OA 
HETATM   37  C   UNL     1      -8.109   5.430  63.653  1.00  0.00    -0.117 C  
ENDBRANCH  33  36
BRANCH  31  38
HETATM   38  O   UNL     1      -6.907   8.457  63.545  1.00  0.00    -0.083 OA 
HETATM   39  C   UNL     1      -5.583   8.729  63.959  1.00  0.00    -0.069 C  
ENDBRANCH  31  38
ENDBRANCH  27  28
ENDBRANCH  24  26
ENDBRANCH  23  24
ENDBRANCH   3  23
BRANCH   5  40
HETATM   40  O   UNL     1      -7.962  18.129  66.872  1.00  0.00    -0.218 OA 
HETATM   41  C   UNL     1      -8.575  19.285  66.341  1.00  0.00    -0.343 C  
ENDBRANCH   5  40
BRANCH   8  42
HETATM   42  C   UNL     1     -10.420  16.556  68.927  1.00  0.00    -0.304 C  
HETATM   43  O   UNL     1     -11.245  17.005  68.163  1.00  0.00    -0.272 OA 
BRANCH  42  44
HETATM   44  O   UNL     1     -10.708  16.026  70.166  1.00  0.00    -0.317 OA 
HETATM   45  C   UNL     1     -12.052  15.873  70.644  1.00  0.00    -0.333 C  
ENDBRANCH  42  44
ENDBRANCH   8  42
BRANCH   6  46
HETATM   46  O   UNL     1      -8.742   5.154  70.461  1.00  0.00    -0.114 OA 
HETATM   47  C   UNL     1      -9.052   4.136  69.535  1.00  0.00    -0.121 C  
ENDBRANCH   6  46
TORSDOF 11
ENDMDL
MODEL       28
REMARK 921   NORMALIZED FREE ENERGY PREDICTED BY IDOCK:   -4.83 KCAL/MOL
REMARK 922        TOTAL FREE ENERGY PREDICTED BY IDOCK:   -9.97 KCAL/MOL
REMARK 923 INTER-LIGAND FREE ENERGY PREDICTED BY IDOCK:   -7.79 KCAL/MOL
REMARK 924 INTRA-LIGAND FREE ENERGY PREDICTED BY IDOCK:   -2.19 KCAL/MOL
REMARK 927      BINDING AFFINITY PREDICTED BY RF-SCORE:    0.00 PKD
ROOT
HETATM    1  C   UNL     1      -5.435   8.633  67.168  1.00  0.00    -0.038 C  
HETATM    2  C   UNL     1      -5.674   7.313  67.827  1.00  0.00    -0.029 C  
HETATM    3  C   UNL     1      -7.212   6.918  67.730  1.00  0.00    -0.091 C  
HETATM    4  C   UNL     1      -9.322  15.561  66.472  1.00  0.00    -0.311 A  
HETATM    5  C   UNL     1      -7.054   5.981  66.557  1.00  0.00    -0.072 C  
HETATM    6  C   UNL     1      -9.344  16.703  67.305  1.00  0.00    -0.230 A  
HETATM    7  C   UNL     1      -8.751  16.695  68.564  1.00  0.00    -0.242 A  
HETATM    8  C   UNL     1      -6.724   7.032  65.351  1.00  0.00    -0.051 C  
HETATM    9  C   UNL     1      -6.247   8.680  65.841  1.00  0.00    -0.056 C  
HETATM   10  C   UNL     1      -8.127  15.547  69.036  1.00  0.00    -0.220 A  
HETATM   11  C   UNL     1      -8.092  14.407  68.213  1.00  0.00    -0.139 A  
HETATM   12  H   UNL     1      -8.765  12.879  65.441  1.00  0.00     0.000 HD 
HETATM   13  C   UNL     1      -8.666  14.412  66.946  1.00  0.00    -0.193 A  
HETATM   14  C   UNL     1      -6.994  10.133  65.797  1.00  0.00    -0.123 C  
HETATM   15  N   UNL     1      -8.454  13.157  66.371  1.00  0.00     0.274 NA 
HETATM   16  C   UNL     1      -7.762  12.352  67.244  1.00  0.00    -0.158 A  
HETATM   17  C   UNL     1      -7.599  13.115  68.408  1.00  0.00    -0.133 A  
HETATM   18  C   UNL     1      -7.009  12.589  69.664  1.00  0.00     0.260 C  
HETATM   19  C   UNL     1      -7.385  10.853  67.169  1.00  0.00    -0.105 C  
HETATM   20  C   UNL     1      -6.945  11.086  69.554  1.00  0.00    -0.126 C  
HETATM   21  C   UNL     1      -5.718   9.503  68.370  1.00  0.00    -0.040 C  
HETATM   22  N   UNL     1      -6.359  10.750  68.217  1.00  0.00    -0.057 NA 
ENDROOT
BRANCH   3  23
HETATM   23  O   UNL     1      -8.242   7.873  67.102  1.00  0.00    -0.115 OA 
BRANCH  23  24
HETATM   24  C   UNL     1      -9.587   7.996  66.910  1.00  0.00    -0.204 C  
HETATM   25  O   UNL     1     -10.260   7.379  66.109  1.00  0.00     0.108 OA 
BRANCH  24  26
HETATM   26  C   UNL     1     -10.126   9.005  67.957  1.00  0.00    -0.234 C  
HETATM   27  C   UNL     1     -10.854  10.154  67.842  1.00  0.00    -0.336 C  
BRANCH  27  28
HETATM   28  C   UNL     1     -11.426  11.003  68.985  1.00  0.00    -0.368 A  
HETATM   29  C   UNL     1     -11.232  12.387  69.046  1.00  0.00    -0.320 A  
HETATM   30  C   UNL     1     -12.151  10.448  70.074  1.00  0.00    -0.297 A  
HETATM   31  C   UNL     1     -12.669  11.242  71.148  1.00  0.00    -0.390 A  
HETATM   32  C   UNL     1     -11.795  13.201  70.058  1.00  0.00    -0.290 A  
HETATM   33  C   UNL     1     -12.505  12.639  71.134  1.00  0.00    -0.228 A  
BRANCH  32  34
HETATM   34  O   UNL     1     -11.645  14.573  70.051  1.00  0.00    -0.264 OA 
HETATM   35  C   UNL     1     -12.123  15.206  68.866  1.00  0.00    -0.194 C  
ENDBRANCH  32  34
BRANCH  33  36
HETATM   36  O   UNL     1     -12.907  13.540  72.096  1.00  0.00    -0.292 OA 
HETATM   37  C   UNL     1     -14.140  14.235  71.959  1.00  0.00    -0.526 C  
ENDBRANCH  33  36
BRANCH  31  38
HETATM   38  O   UNL     1     -13.307  10.734  72.249  1.00  0.00    -0.385 OA 
HETATM   39  C   UNL     1     -13.646   9.363  72.311  1.00  0.00    -0.462 C  
ENDBRANCH  31  38
ENDBRANCH  27  28
ENDBRANCH  24  26
ENDBRANCH  23  24
ENDBRANCH   3  23
BRANCH   5  40
HETATM   40  O   UNL     1      -6.041   4.994  66.841  1.00  0.00    -0.029 OA 
HETATM   41  C   UNL     1      -5.455   4.296  65.761  1.00  0.00    -0.010 C  
ENDBRANCH   5  40
BRANCH   8  42
HETATM   42  C   UNL     1      -7.846   6.780  64.333  1.00  0.00    -0.113 C  
HETATM   43  O   UNL     1      -8.199   7.558  63.475  1.00  0.00    -0.066 OA 
BRANCH  42  44
HETATM   44  O   UNL     1      -8.378   5.522  64.515  1.00  0.00    -0.137 OA 
HETATM   45  C   UNL     1      -8.304   4.502  63.509  1.00  0.00    -0.109 C  
ENDBRANCH  42  44
ENDBRANCH   8  42
BRANCH   6  46
HETATM   46  O   UNL     1      -9.923  17.906  66.990  1.00  0.00    -0.298 OA 
HETATM   47  C   UNL     1     -10.496  18.636  68.054  1.00  0.00    -0.349 C  
ENDBRANCH   6  46
TORSDOF 11
ENDMDL
MODEL       29
REMARK 921   NORMALIZED FREE ENERGY PREDICTED BY IDOCK:   -4.82 KCAL/MOL
REMARK 922        TOTAL FREE ENERGY PREDICTED BY IDOCK:   -9.96 KCAL/MOL
REMARK 923 INTER-LIGAND FREE ENERGY PREDICTED BY IDOCK:   -8.50 KCAL/MOL
REMARK 924 INTRA-LIGAND FREE ENERGY PREDICTED BY IDOCK:   -1.46 KCAL/MOL
REMARK 927      BINDING AFFINITY PREDICTED BY RF-SCORE:    0.00 PKD
ROOT
HETATM    1  C   UNL     1     -11.751  10.971  68.112  1.00  0.00    -0.277 C  
HETATM    2  C   UNL     1     -11.206  12.361  68.170  1.00  0.00    -0.313 C  
HETATM    3  C   UNL     1      -9.616  12.330  68.215  1.00  0.00    -0.212 C  
HETATM    4  C   UNL     1      -9.902   3.878  71.251  1.00  0.00    -0.227 A  
HETATM    5  C   UNL     1      -9.417  12.619  66.746  1.00  0.00    -0.237 C  
HETATM    6  C   UNL     1     -10.262   3.283  72.481  1.00  0.00    -0.146 A  
HETATM    7  C   UNL     1     -10.924   4.003  73.470  1.00  0.00    -0.354 A  
HETATM    8  C   UNL     1      -9.933  11.222  66.074  1.00  0.00    -0.273 C  
HETATM    9  C   UNL     1     -10.885  10.138  67.123  1.00  0.00    -0.257 C  
HETATM   10  C   UNL     1     -11.239   5.342  73.268  1.00  0.00    -0.359 A  
HETATM   11  C   UNL     1     -10.892   5.943  72.045  1.00  0.00    -0.303 A  
HETATM   12  H   UNL     1      -9.611   5.814  69.076  1.00  0.00     0.000 HD 
HETATM   13  C   UNL     1     -10.247   5.224  71.044  1.00  0.00    -0.229 A  
HETATM   14  C   UNL     1     -10.571   8.713  67.858  1.00  0.00    -0.223 C  
HETATM   15  N   UNL     1     -10.057   6.077  69.954  1.00  0.00    -0.174 NA 
HETATM   16  C   UNL     1     -10.562   7.323  70.240  1.00  0.00    -0.229 A  
HETATM   17  C   UNL     1     -11.021   7.247  71.562  1.00  0.00    -0.259 A  
HETATM   18  C   UNL     1     -11.535   8.411  72.326  1.00  0.00    -0.454 C  
HETATM   19  C   UNL     1     -10.501   8.654  69.454  1.00  0.00    -0.218 C  
HETATM   20  C   UNL     1     -11.170   9.663  71.568  1.00  0.00    -0.307 C  
HETATM   21  C   UNL     1     -11.814  10.727  69.602  1.00  0.00    -0.320 C  
HETATM   22  N   UNL     1     -11.536   9.450  70.131  1.00  0.00    -0.192 NA 
ENDROOT
BRANCH   3  23
HETATM   23  O   UNL     1      -8.847  10.999  68.275  1.00  0.00    -0.132 OA 
BRANCH  23  24
HETATM   24  C   UNL     1      -7.709  10.461  68.800  1.00  0.00    -0.104 C  
HETATM   25  O   UNL     1      -6.975  10.981  69.614  1.00  0.00    -0.127 OA 
BRANCH  24  26
HETATM   26  C   UNL     1      -7.559   9.023  68.237  1.00  0.00    -0.091 C  
HETATM   27  C   UNL     1      -7.026   7.879  68.756  1.00  0.00    -0.066 C  
BRANCH  27  28
HETATM   28  C   UNL     1      -7.050   6.480  68.126  1.00  0.00    -0.083 A  
HETATM   29  C   UNL     1      -6.926   5.320  68.898  1.00  0.00    -0.056 A  
HETATM   30  C   UNL     1      -7.155   6.263  66.726  1.00  0.00    -0.073 A  
HETATM   31  C   UNL     1      -7.159   4.954  66.140  1.00  0.00    -0.072 A  
HETATM   32  C   UNL     1      -7.001   4.017  68.351  1.00  0.00    -0.048 A  
HETATM   33  C   UNL     1      -7.099   3.815  66.963  1.00  0.00    -0.063 A  
BRANCH  32  34
HETATM   34  O   UNL     1      -6.948   2.892  69.148  1.00  0.00    -0.040 OA 
HETATM   35  C   UNL     1      -5.774   2.801  69.952  1.00  0.00    -0.018 C  
ENDBRANCH  32  34
BRANCH  33  36
HETATM   36  O   UNL     1      -7.058   2.496  66.564  1.00  0.00    -0.047 OA 
HETATM   37  C   UNL     1      -8.264   1.777  66.338  1.00  0.00    -0.085 C  
ENDBRANCH  33  36
BRANCH  31  38
HETATM   38  O   UNL     1      -7.185   4.710  64.792  1.00  0.00    -0.061 OA 
HETATM   39  C   UNL     1      -8.064   5.428  63.951  1.00  0.00    -0.119 C  
ENDBRANCH  31  38
ENDBRANCH  27  28
ENDBRANCH  24  26
ENDBRANCH  23  24
ENDBRANCH   3  23
BRANCH   5  40
HETATM   40  O   UNL     1     -10.134  13.813  66.372  1.00  0.00    -0.279 OA 
HETATM   41  C   UNL     1     -10.352  14.069  65.000  1.00  0.00    -0.409 C  
ENDBRANCH   5  40
BRANCH   8  42
HETATM   42  C   UNL     1      -8.711  10.725  65.288  1.00  0.00    -0.173 C  
HETATM   43  O   UNL     1      -7.556  10.937  65.583  1.00  0.00    -0.092 OA 
BRANCH  42  44
HETATM   44  O   UNL     1      -9.116   9.972  64.206  1.00  0.00    -0.215 OA 
HETATM   45  C   UNL     1      -9.719  10.558  63.044  1.00  0.00    -0.294 C  
ENDBRANCH  42  44
ENDBRANCH   8  42
BRANCH   6  46
HETATM   46  O   UNL     1     -10.018   1.980  72.837  1.00  0.00    -0.094 OA 
HETATM   47  C   UNL     1     -10.023   1.684  74.216  1.00  0.00    -0.090 C  
ENDBRANCH   6  46
TORSDOF 11
ENDMDL
MODEL       30
REMARK 921   NORMALIZED FREE ENERGY PREDICTED BY IDOCK:   -4.78 KCAL/MOL
REMARK 922        TOTAL FREE ENERGY PREDICTED BY IDOCK:   -9.90 KCAL/MOL
REMARK 923 INTER-LIGAND FREE ENERGY PREDICTED BY IDOCK:   -8.42 KCAL/MOL
REMARK 924 INTRA-LIGAND FREE ENERGY PREDICTED BY IDOCK:   -1.48 KCAL/MOL
REMARK 927      BINDING AFFINITY PREDICTED BY RF-SCORE:    0.00 PKD
ROOT
HETATM    1  C   UNL     1      -9.286   3.196  69.332  1.00  0.00    -0.225 C  
HETATM    2  C   UNL     1      -8.331   2.536  70.272  1.00  0.00    -0.073 C  
HETATM    3  C   UNL     1      -7.641   3.620  71.210  1.00  0.00    -0.048 C  
HETATM    4  C   UNL     1      -9.587  10.011  65.201  1.00  0.00    -0.356 A  
HETATM    5  C   UNL     1      -8.535   3.381  72.403  1.00  0.00    -0.084 C  
HETATM    6  C   UNL     1      -9.092  10.345  63.920  1.00  0.00    -0.245 A  
HETATM    7  C   UNL     1      -8.264   9.478  63.213  1.00  0.00    -0.162 A  
HETATM    8  C   UNL     1      -9.950   3.999  71.870  1.00  0.00    -0.246 C  
HETATM    9  C   UNL     1     -10.083   4.281  70.112  1.00  0.00    -0.078 C  
HETATM   10  C   UNL     1      -7.895   8.258  63.764  1.00  0.00    -0.152 A  
HETATM   11  C   UNL     1      -8.388   7.912  65.036  1.00  0.00    -0.111 A  
HETATM   12  H   UNL     1     -10.174   8.537  67.661  1.00  0.00     0.000 HD 
HETATM   13  C   UNL     1      -9.231   8.763  65.741  1.00  0.00    -0.206 A  
HETATM   14  C   UNL     1     -10.088   5.624  69.181  1.00  0.00    -0.274 C  
HETATM   15  N   UNL     1      -9.564   8.141  66.946  1.00  0.00    -0.190 NA 
HETATM   16  C   UNL     1      -8.949   6.914  67.027  1.00  0.00    -0.120 A  
HETATM   17  C   UNL     1      -8.171   6.809  65.865  1.00  0.00    -0.132 A  
HETATM   18  C   UNL     1      -7.235   5.689  65.597  1.00  0.00    -0.071 C  
HETATM   19  C   UNL     1      -8.870   5.886  68.180  1.00  0.00    -0.110 C  
HETATM   20  C   UNL     1      -7.046   4.923  66.884  1.00  0.00    -0.072 C  
HETATM   21  C   UNL     1      -8.296   3.496  68.230  1.00  0.00    -0.082 C  
HETATM   22  N   UNL     1      -8.401   4.683  67.476  1.00  0.00    -0.104 NA 
ENDROOT
BRANCH   3  23
HETATM   23  O   UNL     1      -7.923   5.122  71.033  1.00  0.00    -0.096 OA 
BRANCH  23  24
HETATM   24  C   UNL     1      -7.377   6.339  71.318  1.00  0.00    -0.081 C  
HETATM   25  O   UNL     1      -6.273   6.543  71.781  1.00  0.00    -0.041 OA 
BRANCH  24  26
HETATM   26  C   UNL     1      -8.383   7.430  70.867  1.00  0.00    -0.115 C  
HETATM   27  C   UNL     1      -8.267   8.778  70.692  1.00  0.00    -0.159 C  
BRANCH  27  28
HETATM   28  C   UNL     1      -9.326   9.730  70.122  1.00  0.00    -0.261 A  
HETATM   29  C   UNL     1      -9.028  10.639  69.100  1.00  0.00    -0.139 A  
HETATM   30  C   UNL     1     -10.658   9.790  70.611  1.00  0.00    -0.382 A  
HETATM   31  C   UNL     1     -11.640  10.693  70.086  1.00  0.00    -0.330 A  
HETATM   32  C   UNL     1      -9.998  11.489  68.517  1.00  0.00    -0.204 A  
HETATM   33  C   UNL     1     -11.312  11.543  69.014  1.00  0.00    -0.276 A  
BRANCH  32  34
HETATM   34  O   UNL     1      -9.691  12.323  67.461  1.00  0.00    -0.185 OA 
HETATM   35  C   UNL     1      -8.305  12.641  67.353  1.00  0.00    -0.184 C  
ENDBRANCH  32  34
BRANCH  33  36
HETATM   36  O   UNL     1     -12.120  12.489  68.418  1.00  0.00    -0.272 OA 
HETATM   37  C   UNL     1     -12.129  13.828  68.896  1.00  0.00    -0.313 C  
ENDBRANCH  33  36
BRANCH  31  38
HETATM   38  O   UNL     1     -12.910  10.829  70.582  1.00  0.00    -0.340 OA 
HETATM   39  C   UNL     1     -13.254  10.269  71.833  1.00  0.00    -0.445 C  
ENDBRANCH  31  38
ENDBRANCH  27  28
ENDBRANCH  24  26
ENDBRANCH  23  24
ENDBRANCH   3  23
BRANCH   5  40
HETATM   40  O   UNL     1      -8.538   1.980  72.749  1.00  0.00    -0.061 OA 
HETATM   41  C   UNL     1      -9.384   1.544  73.793  1.00  0.00    -0.068 C  
ENDBRANCH   5  40
BRANCH   8  42
HETATM   42  C   UNL     1     -10.278   5.093  72.895  1.00  0.00    -0.180 C  
HETATM   43  O   UNL     1     -11.093   5.974  72.742  1.00  0.00    -0.248 OA 
BRANCH  42  44
HETATM   44  O   UNL     1      -9.527   4.913  74.038  1.00  0.00    -0.120 OA 
HETATM   45  C   UNL     1      -8.611   5.906  74.520  1.00  0.00    -0.119 C  
ENDBRANCH  42  44
ENDBRANCH   8  42
BRANCH   6  46
HETATM   46  O   UNL     1      -9.356  11.508  63.243  1.00  0.00    -0.274 OA 
HETATM   47  C   UNL     1     -10.275  12.398  63.840  1.00  0.00    -0.383 C  
ENDBRANCH   6  46
TORSDOF 11
ENDMDL
MODEL       31
REMARK 921   NORMALIZED FREE ENERGY PREDICTED BY IDOCK:   -4.77 KCAL/MOL
REMARK 922        TOTAL FREE ENERGY PREDICTED BY IDOCK:   -9.87 KCAL/MOL
REMARK 923 INTER-LIGAND FREE ENERGY PREDICTED BY IDOCK:   -7.55 KCAL/MOL
REMARK 924 INTRA-LIGAND FREE ENERGY PREDICTED BY IDOCK:   -2.33 KCAL/MOL
REMARK 927      BINDING AFFINITY PREDICTED BY RF-SCORE:    0.00 PKD
ROOT
HETATM    1  C   UNL     1     -12.040  13.082  67.696  1.00  0.00    -0.262 C  
HETATM    2  C   UNL     1     -11.966  13.790  69.010  1.00  0.00    -0.399 C  
HETATM    3  C   UNL     1     -10.460  14.187  69.339  1.00  0.00     0.022 C  
HETATM    4  C   UNL     1      -7.580   7.843  63.666  1.00  0.00    -0.130 A  
HETATM    5  C   UNL     1     -10.582  15.625  68.895  1.00  0.00    -0.228 C  
HETATM    6  C   UNL     1      -7.546   6.430  63.699  1.00  0.00    -0.091 A  
HETATM    7  C   UNL     1      -8.251   5.709  64.659  1.00  0.00    -0.129 A  
HETATM    8  C   UNL     1     -10.718  15.449  67.277  1.00  0.00    -0.307 C  
HETATM    9  C   UNL     1     -11.109  13.811  66.685  1.00  0.00    -0.316 C  
HETATM   10  C   UNL     1      -9.003   6.373  65.620  1.00  0.00    -0.022 A  
HETATM   11  C   UNL     1      -9.050   7.779  65.591  1.00  0.00     0.010 A  
HETATM   12  H   UNL     1      -8.247  10.626  64.279  1.00  0.00     0.000 HD 
HETATM   13  C   UNL     1      -8.364   8.506  64.625  1.00  0.00    -0.146 A  
HETATM   14  C   UNL     1     -10.251  12.654  65.915  1.00  0.00    -0.290 C  
HETATM   15  N   UNL     1      -8.620   9.862  64.842  1.00  0.00    -0.156 NA 
HETATM   16  C   UNL     1      -9.448  10.015  65.928  1.00  0.00    -0.205 A  
HETATM   17  C   UNL     1      -9.658   8.721  66.424  1.00  0.00    -0.316 A  
HETATM   18  C   UNL     1     -10.399   8.427  67.676  1.00  0.00    -0.317 C  
HETATM   19  C   UNL     1      -9.932  11.283  66.672  1.00  0.00    -0.209 C  
HETATM   20  C   UNL     1     -10.569   9.722  68.431  1.00  0.00    -0.226 C  
HETATM   21  C   UNL     1     -11.802  11.684  68.216  1.00  0.00    -0.265 C  
HETATM   22  N   UNL     1     -11.055  10.756  67.461  1.00  0.00    -0.308 NA 
ENDROOT
BRANCH   3  23
HETATM   23  O   UNL     1      -9.307  13.775  68.409  1.00  0.00    -0.203 OA 
BRANCH  23  24
HETATM   24  C   UNL     1      -7.974  13.486  68.445  1.00  0.00    -0.142 C  
HETATM   25  O   UNL     1      -7.064  14.287  68.508  1.00  0.00    -0.091 OA 
BRANCH  24  26
HETATM   26  C   UNL     1      -7.823  11.942  68.478  1.00  0.00    -0.136 C  
HETATM   27  C   UNL     1      -6.999  11.110  69.179  1.00  0.00    -0.108 C  
BRANCH  27  28
HETATM   28  C   UNL     1      -7.038   9.577  69.202  1.00  0.00    -0.062 A  
HETATM   29  C   UNL     1      -6.530   8.809  68.149  1.00  0.00    -0.060 A  
HETATM   30  C   UNL     1      -7.622   8.833  70.262  1.00  0.00    -0.073 A  
HETATM   31  C   UNL     1      -7.672   7.400  70.272  1.00  0.00    -0.093 A  
HETATM   32  C   UNL     1      -6.502   7.394  68.169  1.00  0.00    -0.046 A  
HETATM   33  C   UNL     1      -7.090   6.669  69.221  1.00  0.00    -0.084 A  
BRANCH  32  34
HETATM   34  O   UNL     1      -5.929   6.665  67.146  1.00  0.00    -0.020 OA 
HETATM   35  C   UNL     1      -5.172   7.448  66.226  1.00  0.00    -0.024 C  
ENDBRANCH  32  34
BRANCH  33  36
HETATM   36  O   UNL     1      -7.079   5.300  69.058  1.00  0.00    -0.054 OA 
HETATM   37  C   UNL     1      -6.105   4.505  69.724  1.00  0.00    -0.019 C  
ENDBRANCH  33  36
BRANCH  31  38
HETATM   38  O   UNL     1      -8.291   6.654  71.239  1.00  0.00    -0.122 OA 
HETATM   39  C   UNL     1      -9.684   6.769  71.450  1.00  0.00    -0.171 C  
ENDBRANCH  31  38
ENDBRANCH  27  28
ENDBRANCH  24  26
ENDBRANCH  23  24
ENDBRANCH   3  23
BRANCH   5  40
HETATM   40  O   UNL     1     -11.691  16.261  69.565  1.00  0.00    -0.250 OA 
HETATM   41  C   UNL     1     -11.755  16.199  70.975  1.00  0.00    -0.367 C  
ENDBRANCH   5  40
BRANCH   8  42
HETATM   42  C   UNL     1      -9.531  16.251  66.724  1.00  0.00    -0.235 C  
HETATM   43  O   UNL     1      -9.212  16.313  65.558  1.00  0.00    -0.402 OA 
BRANCH  42  44
HETATM   44  O   UNL     1      -8.893  16.920  67.746  1.00  0.00    -0.212 OA 
HETATM   45  C   UNL     1      -8.232  18.177  67.548  1.00  0.00    -0.236 C  
ENDBRANCH  42  44
ENDBRANCH   8  42
BRANCH   6  46
HETATM   46  O   UNL     1      -6.850   5.630  62.830  1.00  0.00    -0.032 OA 
HETATM   47  C   UNL     1      -5.755   4.914  63.360  1.00  0.00    -0.017 C  
ENDBRANCH   6  46
TORSDOF 11
ENDMDL
MODEL       32
REMARK 921   NORMALIZED FREE ENERGY PREDICTED BY IDOCK:   -4.74 KCAL/MOL
REMARK 922        TOTAL FREE ENERGY PREDICTED BY IDOCK:   -9.83 KCAL/MOL
REMARK 923 INTER-LIGAND FREE ENERGY PREDICTED BY IDOCK:   -8.23 KCAL/MOL
REMARK 924 INTRA-LIGAND FREE ENERGY PREDICTED BY IDOCK:   -1.60 KCAL/MOL
REMARK 927      BINDING AFFINITY PREDICTED BY RF-SCORE:    0.00 PKD
ROOT
HETATM    1  C   UNL     1     -12.274  14.620  68.790  1.00  0.00    -0.154 C  
HETATM    2  C   UNL     1     -11.759  15.752  69.618  1.00  0.00    -0.363 C  
HETATM    3  C   UNL     1     -10.168  15.763  69.613  1.00  0.00    -0.289 C  
HETATM    4  C   UNL     1     -10.151   7.077  67.313  1.00  0.00    -0.265 A  
HETATM    5  C   UNL     1     -10.028  16.841  68.565  1.00  0.00    -0.271 C  
HETATM    6  C   UNL     1     -10.455   5.875  67.993  1.00  0.00    -0.234 A  
HETATM    7  C   UNL     1     -11.098   5.881  69.226  1.00  0.00    -0.352 A  
HETATM    8  C   UNL     1     -10.534  16.054  67.227  1.00  0.00    -0.308 C  
HETATM    9  C   UNL     1     -11.424  14.529  67.489  1.00  0.00    -0.375 C  
HETATM   10  C   UNL     1     -11.451   7.084  69.825  1.00  0.00    -0.177 A  
HETATM   11  C   UNL     1     -11.161   8.286  69.155  1.00  0.00     0.188 A  
HETATM   12  H   UNL     1      -9.982   9.915  66.619  1.00  0.00     0.000 HD 
HETATM   13  C   UNL     1     -10.535   8.288  67.913  1.00  0.00    -0.198 A  
HETATM   14  C   UNL     1     -11.051  12.952  67.279  1.00  0.00    -0.309 C  
HETATM   15  N   UNL     1     -10.404   9.616  67.498  1.00  0.00    -0.225 NA 
HETATM   16  C   UNL     1     -10.927  10.458  68.449  1.00  0.00    -0.264 A  
HETATM   17  C   UNL     1     -11.336   9.627  69.501  1.00  0.00    -0.080 A  
HETATM   18  C   UNL     1     -11.850  10.131  70.799  1.00  0.00    -0.443 C  
HETATM   19  C   UNL     1     -10.924  12.002  68.557  1.00  0.00    -0.240 C  
HETATM   20  C   UNL     1     -11.541  11.606  70.881  1.00  0.00     0.628 C  
HETATM   21  C   UNL     1     -12.279  13.571  69.878  1.00  0.00    -0.292 C  
HETATM   22  N   UNL     1     -11.952  12.231  69.583  1.00  0.00    -0.301 NA 
ENDROOT
BRANCH   3  23
HETATM   23  O   UNL     1      -9.367  14.663  68.894  1.00  0.00    -0.199 OA 
BRANCH  23  24
HETATM   24  C   UNL     1      -8.097  14.176  68.797  1.00  0.00    -0.088 C  
HETATM   25  O   UNL     1      -7.142  14.517  69.464  1.00  0.00    -0.153 OA 
BRANCH  24  26
HETATM   26  C   UNL     1      -8.103  13.041  67.739  1.00  0.00    -0.168 C  
HETATM   27  C   UNL     1      -7.301  11.953  67.548  1.00  0.00    -0.132 C  
BRANCH  27  28
HETATM   28  C   UNL     1      -7.494  10.834  66.517  1.00  0.00    -0.139 A  
HETATM   29  C   UNL     1      -8.469  10.911  65.516  1.00  0.00    -0.115 A  
HETATM   30  C   UNL     1      -6.735   9.633  66.527  1.00  0.00    -0.079 A  
HETATM   31  C   UNL     1      -6.931   8.582  65.572  1.00  0.00    -0.074 A  
HETATM   32  C   UNL     1      -8.632   9.919  64.519  1.00  0.00    -0.186 A  
HETATM   33  C   UNL     1      -7.879   8.732  64.543  1.00  0.00    -0.129 A  
BRANCH  32  34
HETATM   34  O   UNL     1      -9.555  10.058  63.503  1.00  0.00    -0.267 OA 
HETATM   35  C   UNL     1      -9.442  11.279  62.775  1.00  0.00    -0.326 C  
ENDBRANCH  32  34
BRANCH  33  36
HETATM   36  O   UNL     1      -8.214   7.813  63.572  1.00  0.00    -0.094 OA 
HETATM   37  C   UNL     1      -7.507   7.781  62.339  1.00  0.00    -0.101 C  
ENDBRANCH  33  36
BRANCH  31  38
HETATM   38  O   UNL     1      -6.270   7.382  65.595  1.00  0.00    -0.037 OA 
HETATM   39  C   UNL     1      -6.757   6.311  66.379  1.00  0.00    -0.056 C  
ENDBRANCH  31  38
ENDBRANCH  27  28
ENDBRANCH  24  26
ENDBRANCH  23  24
ENDBRANCH   3  23
BRANCH   5  40
HETATM   40  O   UNL     1     -10.785  18.008  68.947  1.00  0.00    -0.076 OA 
HETATM   41  C   UNL     1     -10.231  19.284  68.704  1.00  0.00    -0.355 C  
ENDBRANCH   5  40
BRANCH   8  42
HETATM   42  C   UNL     1      -9.330  16.138  66.278  1.00  0.00    -0.317 C  
HETATM   43  O   UNL     1      -9.203  15.509  65.252  1.00  0.00    -0.025 OA 
BRANCH  42  44
HETATM   44  O   UNL     1      -8.419  17.060  66.748  1.00  0.00    -0.202 OA 
HETATM   45  C   UNL     1      -7.147  17.273  66.121  1.00  0.00    -0.249 C  
ENDBRANCH  42  44
ENDBRANCH   8  42
BRANCH   6  46
HETATM   46  O   UNL     1     -10.168   4.611  67.541  1.00  0.00    -0.115 OA 
HETATM   47  C   UNL     1      -9.805   4.487  66.183  1.00  0.00    -0.230 C  
ENDBRANCH   6  46
TORSDOF 11
ENDMDL
MODEL       33
REMARK 921   NORMALIZED FREE ENERGY PREDICTED BY IDOCK:   -4.65 KCAL/MOL
REMARK 922        TOTAL FREE ENERGY PREDICTED BY IDOCK:   -9.68 KCAL/MOL
REMARK 923 INTER-LIGAND FREE ENERGY PREDICTED BY IDOCK:   -8.41 KCAL/MOL
REMARK 924 INTRA-LIGAND FREE ENERGY PREDICTED BY IDOCK:   -1.28 KCAL/MOL
REMARK 927      BINDING AFFINITY PREDICTED BY RF-SCORE:    0.00 PKD
ROOT
HETATM    1  C   UNL     1      -5.883   7.386  67.446  1.00  0.00    -0.034 C  
HETATM    2  C   UNL     1      -5.943   6.386  68.555  1.00  0.00    -0.021 C  
HETATM    3  C   UNL     1      -7.429   5.846  68.733  1.00  0.00    -0.086 C  
HETATM    4  C   UNL     1     -10.559  13.190  64.609  1.00  0.00    -0.410 A  
HETATM    5  C   UNL     1      -7.215   4.561  67.970  1.00  0.00    -0.065 C  
HETATM    6  C   UNL     1     -10.674  14.552  64.971  1.00  0.00    -0.427 A  
HETATM    7  C   UNL     1     -10.031  15.062  66.094  1.00  0.00    -0.313 A  
HETATM    8  C   UNL     1      -7.059   5.120  66.443  1.00  0.00    -0.072 C  
HETATM    9  C   UNL     1      -6.751   6.868  66.263  1.00  0.00    -0.052 C  
HETATM   10  C   UNL     1      -9.261  14.230  66.897  1.00  0.00    -0.268 A  
HETATM   11  C   UNL     1      -9.132  12.875  66.543  1.00  0.00    -0.138 A  
HETATM   12  H   UNL     1      -9.745  10.379  64.576  1.00  0.00     0.000 HD 
HETATM   13  C   UNL     1      -9.756  12.361  65.411  1.00  0.00    -0.113 A  
HETATM   14  C   UNL     1      -7.659   8.129  65.757  1.00  0.00    -0.082 C  
HETATM   15  N   UNL     1      -9.427  11.007  65.314  1.00  0.00    -0.215 NA 
HETATM   16  C   UNL     1      -8.613  10.645  66.360  1.00  0.00    -0.149 A  
HETATM   17  C   UNL     1      -8.487  11.796  67.151  1.00  0.00    -0.170 A  
HETATM   18  C   UNL     1      -7.789  11.825  68.461  1.00  0.00    -0.144 C  
HETATM   19  C   UNL     1      -8.072   9.265  66.803  1.00  0.00    -0.112 C  
HETATM   20  C   UNL     1      -7.559  10.399  68.897  1.00  0.00    -0.103 C  
HETATM   21  C   UNL     1      -6.212   8.609  68.271  1.00  0.00    -0.054 C  
HETATM   22  N   UNL     1      -6.996   9.649  67.729  1.00  0.00    -0.079 NA 
ENDROOT
BRANCH   3  23
HETATM   23  O   UNL     1      -8.586   6.405  67.888  1.00  0.00    -0.117 OA 
BRANCH  23  24
HETATM   24  C   UNL     1      -9.945   6.349  67.792  1.00  0.00    -0.128 C  
HETATM   25  O   UNL     1     -10.590   5.538  67.160  1.00  0.00    -0.248 OA 
BRANCH  24  26
HETATM   26  C   UNL     1     -10.533   7.457  68.706  1.00  0.00    -0.215 C  
HETATM   27  C   UNL     1     -10.643   8.810  68.562  1.00  0.00    -0.171 C  
BRANCH  27  28
HETATM   28  C   UNL     1     -11.361   9.783  69.506  1.00  0.00    -0.127 A  
HETATM   29  C   UNL     1     -12.126   9.334  70.588  1.00  0.00    -0.154 A  
HETATM   30  C   UNL     1     -11.338  11.192  69.328  1.00  0.00    -0.349 A  
HETATM   31  C   UNL     1     -12.025  12.097  70.202  1.00  0.00    -0.314 A  
HETATM   32  C   UNL     1     -12.753  10.210  71.506  1.00  0.00    -0.436 A  
HETATM   33  C   UNL     1     -12.728  11.603  71.316  1.00  0.00    -0.340 A  
BRANCH  32  34
HETATM   34  O   UNL     1     -13.440   9.738  72.605  1.00  0.00    -0.261 OA 
HETATM   35  C   UNL     1     -14.295   8.631  72.327  1.00  0.00    -0.396 C  
ENDBRANCH  32  34
BRANCH  33  36
HETATM   36  O   UNL     1     -13.466  12.326  72.230  1.00  0.00    -0.520 OA 
HETATM   37  C   UNL     1     -13.116  13.672  72.530  1.00  0.00    -0.388 C  
ENDBRANCH  33  36
BRANCH  31  38
HETATM   38  O   UNL     1     -12.086  13.454  70.019  1.00  0.00    -0.326 OA 
HETATM   39  C   UNL     1     -12.301  13.994  68.731  1.00  0.00    -0.039 C  
ENDBRANCH  31  38
ENDBRANCH  27  28
ENDBRANCH  24  26
ENDBRANCH  23  24
ENDBRANCH   3  23
BRANCH   5  40
HETATM   40  O   UNL     1      -6.086   3.844  68.509  1.00  0.00    -0.029 OA 
HETATM   41  C   UNL     1      -6.291   2.543  69.018  1.00  0.00    -0.029 C  
ENDBRANCH   5  40
BRANCH   8  42
HETATM   42  C   UNL     1      -8.187   4.410  65.679  1.00  0.00    -0.109 C  
HETATM   43  O   UNL     1      -8.696   4.808  64.656  1.00  0.00    -0.145 OA 
BRANCH  42  44
HETATM   44  O   UNL     1      -8.521   3.232  66.313  1.00  0.00    -0.101 OA 
HETATM   45  C   UNL     1      -8.487   1.964  65.644  1.00  0.00    -0.104 C  
ENDBRANCH  42  44
ENDBRANCH   8  42
BRANCH   6  46
HETATM   46  O   UNL     1     -11.399  15.497  64.290  1.00  0.00    -0.292 OA 
HETATM   47  C   UNL     1     -11.251  16.837  64.707  1.00  0.00     0.040 C  
ENDBRANCH   6  46
TORSDOF 11
ENDMDL
MODEL       34
REMARK 921   NORMALIZED FREE ENERGY PREDICTED BY IDOCK:   -4.64 KCAL/MOL
REMARK 922        TOTAL FREE ENERGY PREDICTED BY IDOCK:   -9.66 KCAL/MOL
REMARK 923 INTER-LIGAND FREE ENERGY PREDICTED BY IDOCK:   -7.50 KCAL/MOL
REMARK 924 INTRA-LIGAND FREE ENERGY PREDICTED BY IDOCK:   -2.16 KCAL/MOL
REMARK 927      BINDING AFFINITY PREDICTED BY RF-SCORE:    0.00 PKD
ROOT
HETATM    1  C   UNL     1      -5.502   7.309  67.589  1.00  0.00    -0.021 C  
HETATM    2  C   UNL     1      -5.832   6.032  68.291  1.00  0.00    -0.016 C  
HETATM    3  C   UNL     1      -7.378   5.694  68.124  1.00  0.00    -0.073 C  
HETATM    4  C   UNL     1      -9.049  14.346  66.369  1.00  0.00    -0.192 A  
HETATM    5  C   UNL     1      -7.196   4.698  67.004  1.00  0.00    -0.076 C  
HETATM    6  C   UNL     1      -9.068  15.526  67.148  1.00  0.00    -0.217 A  
HETATM    7  C   UNL     1      -8.546  15.553  68.437  1.00  0.00    -0.168 A  
HETATM    8  C   UNL     1      -6.756   5.678  65.774  1.00  0.00    -0.055 C  
HETATM    9  C   UNL     1      -6.237   7.327  66.218  1.00  0.00    -0.040 C  
HETATM   10  C   UNL     1      -7.998  14.404  68.994  1.00  0.00    -0.057 A  
HETATM   11  C   UNL     1      -7.967  13.226  68.226  1.00  0.00    -0.144 A  
HETATM   12  H   UNL     1      -8.550  11.600  65.490  1.00  0.00     0.000 HD 
HETATM   13  C   UNL     1      -8.469  13.196  66.930  1.00  0.00    -0.070 A  
HETATM   14  C   UNL     1      -6.918   8.805  66.067  1.00  0.00    -0.080 C  
HETATM   15  N   UNL     1      -8.278  11.907  66.423  1.00  0.00    -0.027 NA 
HETATM   16  C   UNL     1      -7.671  11.117  67.369  1.00  0.00    -0.120 A  
HETATM   17  C   UNL     1      -7.540  11.927  68.505  1.00  0.00    -0.127 A  
HETATM   18  C   UNL     1      -7.043  11.436  69.815  1.00  0.00     0.103 C  
HETATM   19  C   UNL     1      -7.354   9.602  67.382  1.00  0.00    -0.087 C  
HETATM   20  C   UNL     1      -7.037   9.928  69.775  1.00  0.00    -0.106 C  
HETATM   21  C   UNL     1      -5.814   8.245  68.734  1.00  0.00    -0.043 C  
HETATM   22  N   UNL     1      -6.392   9.508  68.490  1.00  0.00    -0.048 NA 
ENDROOT
BRANCH   3  23
HETATM   23  O   UNL     1      -8.331   6.658  67.397  1.00  0.00    -0.120 OA 
BRANCH  23  24
HETATM   24  C   UNL     1      -9.656   6.826  67.124  1.00  0.00    -0.144 C  
HETATM   25  O   UNL     1     -10.391   6.017  66.595  1.00  0.00    -0.205 OA 
BRANCH  24  26
HETATM   26  C   UNL     1     -10.087   8.206  67.687  1.00  0.00    -0.267 C  
HETATM   27  C   UNL     1     -10.824   9.228  67.162  1.00  0.00    -0.113 C  
BRANCH  27  28
HETATM   28  C   UNL     1     -11.277  10.504  67.882  1.00  0.00    -0.358 A  
HETATM   29  C   UNL     1     -11.550  10.521  69.254  1.00  0.00    -0.308 A  
HETATM   30  C   UNL     1     -11.491  11.738  67.211  1.00  0.00    -0.373 A  
HETATM   31  C   UNL     1     -11.932  12.924  67.885  1.00  0.00    -0.282 A  
HETATM   32  C   UNL     1     -11.916  11.696  69.954  1.00  0.00    -0.340 A  
HETATM   33  C   UNL     1     -12.131  12.909  69.277  1.00  0.00    -0.182 A  
BRANCH  32  34
HETATM   34  O   UNL     1     -12.109  11.695  71.321  1.00  0.00    -0.153 OA 
HETATM   35  C   UNL     1     -13.030  10.707  71.780  1.00  0.00    -0.472 C  
ENDBRANCH  32  34
BRANCH  33  36
HETATM   36  O   UNL     1     -12.582  13.943  70.070  1.00  0.00    -0.294 OA 
HETATM   37  C   UNL     1     -11.679  14.939  70.534  1.00  0.00    -0.292 C  
ENDBRANCH  33  36
BRANCH  31  38
HETATM   38  O   UNL     1     -12.218  14.109  67.259  1.00  0.00    -0.402 OA 
HETATM   39  C   UNL     1     -12.527  14.134  65.880  1.00  0.00    -0.453 C  
ENDBRANCH  31  38
ENDBRANCH  27  28
ENDBRANCH  24  26
ENDBRANCH  23  24
ENDBRANCH   3  23
BRANCH   5  40
HETATM   40  O   UNL     1      -6.242   3.685  67.389  1.00  0.00    -0.034 OA 
HETATM   41  C   UNL     1      -5.765   2.796  66.401  1.00  0.00    -0.022 C  
ENDBRANCH   5  40
BRANCH   8  42
HETATM   42  C   UNL     1      -7.829   5.424  64.705  1.00  0.00    -0.103 C  
HETATM   43  O   UNL     1      -8.059   6.144  63.760  1.00  0.00    -0.119 OA 
BRANCH  42  44
HETATM   44  O   UNL     1      -8.479   4.235  64.959  1.00  0.00    -0.112 OA 
HETATM   45  C   UNL     1      -8.746   3.270  63.933  1.00  0.00    -0.089 C  
ENDBRANCH  42  44
ENDBRANCH   8  42
BRANCH   6  46
HETATM   46  O   UNL     1      -9.578  16.735  66.748  1.00  0.00    -0.231 OA 
HETATM   47  C   UNL     1     -10.512  17.349  67.608  1.00  0.00    -0.368 C  
ENDBRANCH   6  46
TORSDOF 11
ENDMDL
MODEL       35
REMARK 921   NORMALIZED FREE ENERGY PREDICTED BY IDOCK:   -4.55 KCAL/MOL
REMARK 922        TOTAL FREE ENERGY PREDICTED BY IDOCK:   -9.52 KCAL/MOL
REMARK 923 INTER-LIGAND FREE ENERGY PREDICTED BY IDOCK:   -7.36 KCAL/MOL
REMARK 924 INTRA-LIGAND FREE ENERGY PREDICTED BY IDOCK:   -2.16 KCAL/MOL
REMARK 927      BINDING AFFINITY PREDICTED BY RF-SCORE:    0.00 PKD
ROOT
HETATM    1  C   UNL     1      -9.727  14.243  68.119  1.00  0.00    -0.226 C  
HETATM    2  C   UNL     1      -9.061  14.855  66.929  1.00  0.00    -0.271 C  
HETATM    3  C   UNL     1      -9.314  13.965  65.635  1.00  0.00     0.238 C  
HETATM    4  C   UNL     1     -11.041   6.881  70.887  1.00  0.00    -0.313 A  
HETATM    5  C   UNL     1     -10.436  14.812  65.085  1.00  0.00    -0.418 C  
HETATM    6  C   UNL     1     -10.249   6.037  71.698  1.00  0.00    -0.201 A  
HETATM    7  C   UNL     1      -8.933   6.361  72.015  1.00  0.00    -0.137 A  
HETATM    8  C   UNL     1     -11.628  14.499  66.157  1.00  0.00    -0.366 C  
HETATM    9  C   UNL     1     -11.135  13.736  67.694  1.00  0.00    -0.292 C  
HETATM   10  C   UNL     1      -8.363   7.529  71.525  1.00  0.00    -0.111 A  
HETATM   11  C   UNL     1      -9.144   8.381  70.723  1.00  0.00    -0.180 A  
HETATM   12  H   UNL     1     -11.929   9.150  69.265  1.00  0.00     0.000 HD 
HETATM   13  C   UNL     1     -10.466   8.074  70.418  1.00  0.00    -0.218 A  
HETATM   14  C   UNL     1     -11.302  12.233  68.314  1.00  0.00    -0.339 C  
HETATM   15  N   UNL     1     -10.978   9.109  69.632  1.00  0.00    -0.198 NA 
HETATM   16  C   UNL     1     -10.012  10.065  69.426  1.00  0.00    -0.223 A  
HETATM   17  C   UNL     1      -8.860   9.573  70.054  1.00  0.00    -0.246 A  
HETATM   18  C   UNL     1      -7.532  10.231  69.975  1.00  0.00    -0.143 C  
HETATM   19  C   UNL     1     -10.002  11.331  68.537  1.00  0.00    -0.202 C  
HETATM   20  C   UNL     1      -7.591  11.269  68.881  1.00  0.00    -0.126 C  
HETATM   21  C   UNL     1      -8.588  13.342  68.536  1.00  0.00    -0.065 C  
HETATM   22  N   UNL     1      -8.846  12.064  69.074  1.00  0.00     0.238 NA 
ENDROOT
BRANCH   3  23
HETATM   23  O   UNL     1     -10.079  12.632  65.723  1.00  0.00    -0.265 OA 
BRANCH  23  24
HETATM   24  C   UNL     1     -10.298  11.493  65.005  1.00  0.00    -0.281 C  
HETATM   25  O   UNL     1     -10.916  11.405  63.964  1.00  0.00    -0.364 OA 
BRANCH  24  26
HETATM   26  C   UNL     1      -9.544  10.335  65.710  1.00  0.00    -0.279 C  
HETATM   27  C   UNL     1      -9.896   9.051  66.009  1.00  0.00    -0.312 C  
BRANCH  27  28
HETATM   28  C   UNL     1      -8.997   7.963  66.611  1.00  0.00    -0.179 A  
HETATM   29  C   UNL     1      -9.493   6.699  66.950  1.00  0.00    -0.184 A  
HETATM   30  C   UNL     1      -7.623   8.169  66.906  1.00  0.00    -0.095 A  
HETATM   31  C   UNL     1      -6.791   7.156  67.485  1.00  0.00    -0.070 A  
HETATM   32  C   UNL     1      -8.676   5.660  67.455  1.00  0.00    -0.107 A  
HETATM   33  C   UNL     1      -7.318   5.878  67.748  1.00  0.00    -0.077 A  
BRANCH  32  34
HETATM   34  O   UNL     1      -9.180   4.401  67.711  1.00  0.00    -0.120 OA 
HETATM   35  C   UNL     1      -9.374   3.602  66.547  1.00  0.00    -0.187 C  
ENDBRANCH  32  34
BRANCH  33  36
HETATM   36  O   UNL     1      -6.671   4.809  68.329  1.00  0.00    -0.048 OA 
HETATM   37  C   UNL     1      -6.704   4.630  69.740  1.00  0.00    -0.037 C  
ENDBRANCH  33  36
BRANCH  31  38
HETATM   38  O   UNL     1      -5.483   7.342  67.849  1.00  0.00    -0.023 OA 
HETATM   39  C   UNL     1      -5.161   7.821  69.139  1.00  0.00    -0.019 C  
ENDBRANCH  31  38
ENDBRANCH  27  28
ENDBRANCH  24  26
ENDBRANCH  23  24
ENDBRANCH   3  23
BRANCH   5  40
HETATM   40  O   UNL     1     -10.015  16.188  64.980  1.00  0.00    -0.410 OA 
HETATM   41  C   UNL     1     -10.984  17.205  65.122  1.00  0.00     0.048 C  
ENDBRANCH   5  40
BRANCH   8  42
HETATM   42  C   UNL     1     -12.755  13.923  65.289  1.00  0.00    -0.449 C  
HETATM   43  O   UNL     1     -13.694  13.277  65.699  1.00  0.00     0.103 OA 
BRANCH  42  44
HETATM   44  O   UNL     1     -12.563  14.271  63.969  1.00  0.00    -0.724 OA 
HETATM   45  C   UNL     1     -12.712  13.331  62.896  1.00  0.00     0.871 C  
ENDBRANCH  42  44
ENDBRANCH   8  42
BRANCH   6  46
HETATM   46  O   UNL     1     -10.659   4.851  72.251  1.00  0.00    -0.211 OA 
HETATM   47  C   UNL     1     -10.018   3.679  71.795  1.00  0.00    -0.140 C  
ENDBRANCH   6  46
TORSDOF 11
ENDMDL
MODEL       36
REMARK 921   NORMALIZED FREE ENERGY PREDICTED BY IDOCK:   -4.54 KCAL/MOL
REMARK 922        TOTAL FREE ENERGY PREDICTED BY IDOCK:   -9.50 KCAL/MOL
REMARK 923 INTER-LIGAND FREE ENERGY PREDICTED BY IDOCK:   -7.89 KCAL/MOL
REMARK 924 INTRA-LIGAND FREE ENERGY PREDICTED BY IDOCK:   -1.61 KCAL/MOL
REMARK 927      BINDING AFFINITY PREDICTED BY RF-SCORE:    0.00 PKD
ROOT
HETATM    1  C   UNL     1      -6.166   7.746  66.960  1.00  0.00    -0.053 C  
HETATM    2  C   UNL     1      -7.257   6.725  66.920  1.00  0.00    -0.081 C  
HETATM    3  C   UNL     1      -8.547   7.323  66.206  1.00  0.00    -0.142 C  
HETATM    4  C   UNL     1      -5.640  15.638  67.980  1.00  0.00    -0.140 A  
HETATM    5  C   UNL     1      -8.288   6.682  64.864  1.00  0.00    -0.034 C  
HETATM    6  C   UNL     1      -5.541  16.419  69.154  1.00  0.00    -0.124 A  
HETATM    7  C   UNL     1      -5.701  15.857  70.417  1.00  0.00    -0.110 A  
HETATM    8  C   UNL     1      -6.988   7.528  64.352  1.00  0.00    -0.056 C  
HETATM    9  C   UNL     1      -6.121   8.479  65.588  1.00  0.00    -0.048 C  
HETATM   10  C   UNL     1      -5.974  14.501  70.549  1.00  0.00    -0.178 A  
HETATM   11  C   UNL     1      -6.067  13.712  69.388  1.00  0.00    -0.104 A  
HETATM   12  H   UNL     1      -5.934  13.353  66.175  1.00  0.00     0.000 HD 
HETATM   13  C   UNL     1      -5.890  14.262  68.124  1.00  0.00    -0.130 A  
HETATM   14  C   UNL     1      -6.007  10.077  65.911  1.00  0.00    -0.077 C  
HETATM   15  N   UNL     1      -6.020  13.236  67.184  1.00  0.00    -0.215 NA 
HETATM   16  C   UNL     1      -6.280  12.047  67.821  1.00  0.00    -0.081 A  
HETATM   17  C   UNL     1      -6.371  12.364  69.184  1.00  0.00    -0.095 A  
HETATM   18  C   UNL     1      -6.766  11.392  70.233  1.00  0.00     0.324 C  
HETATM   19  C   UNL     1      -6.636  10.648  67.265  1.00  0.00    -0.073 C  
HETATM   20  C   UNL     1      -7.343  10.177  69.549  1.00  0.00    -0.123 C  
HETATM   21  C   UNL     1      -6.564   8.402  68.262  1.00  0.00    -0.060 C  
HETATM   22  N   UNL     1      -6.411   9.793  68.440  1.00  0.00    -0.054 NA 
ENDROOT
BRANCH   3  23
HETATM   23  O   UNL     1      -8.591   8.787  65.737  1.00  0.00    -0.144 OA 
BRANCH  23  24
HETATM   24  C   UNL     1      -9.486   9.775  65.447  1.00  0.00    -0.269 C  
HETATM   25  O   UNL     1      -9.809  10.152  64.339  1.00  0.00    -0.322 OA 
BRANCH  24  26
HETATM   26  C   UNL     1     -10.086  10.281  66.785  1.00  0.00    -0.272 C  
HETATM   27  C   UNL     1     -10.276  11.531  67.298  1.00  0.00    -0.229 C  
BRANCH  27  28
HETATM   28  C   UNL     1     -10.998  11.894  68.602  1.00  0.00    -0.271 A  
HETATM   29  C   UNL     1     -11.264  13.222  68.954  1.00  0.00    -0.322 A  
HETATM   30  C   UNL     1     -11.408  10.925  69.556  1.00  0.00    -0.351 A  
HETATM   31  C   UNL     1     -12.067  11.271  70.782  1.00  0.00    -0.349 A  
HETATM   32  C   UNL     1     -11.977  13.583  70.122  1.00  0.00    -0.329 A  
HETATM   33  C   UNL     1     -12.372  12.615  71.062  1.00  0.00    -0.211 A  
BRANCH  32  34
HETATM   34  O   UNL     1     -12.286  14.898  70.405  1.00  0.00    -0.307 OA 
HETATM   35  C   UNL     1     -11.151  15.752  70.527  1.00  0.00    -0.365 C  
ENDBRANCH  32  34
BRANCH  33  36
HETATM   36  O   UNL     1     -12.966  13.120  72.199  1.00  0.00    -0.327 OA 
HETATM   37  C   UNL     1     -14.167  13.876  72.106  1.00  0.00    -0.501 C  
ENDBRANCH  33  36
BRANCH  31  38
HETATM   38  O   UNL     1     -12.410  10.371  71.756  1.00  0.00    -0.355 OA 
HETATM   39  C   UNL     1     -13.654   9.701  71.708  1.00  0.00    -0.343 C  
ENDBRANCH  31  38
ENDBRANCH  27  28
ENDBRANCH  24  26
ENDBRANCH  23  24
ENDBRANCH   3  23
BRANCH   5  40
HETATM   40  O   UNL     1      -8.105   5.259  65.018  1.00  0.00    -0.108 OA 
HETATM   41  C   UNL     1      -7.333   4.568  64.059  1.00  0.00    -0.058 C  
ENDBRANCH   5  40
BRANCH   8  42
HETATM   42  C   UNL     1      -7.458   8.151  63.030  1.00  0.00    -0.116 C  
HETATM   43  O   UNL     1      -8.518   7.929  62.490  1.00  0.00    -0.114 OA 
BRANCH  42  44
HETATM   44  O   UNL     1      -6.507   9.030  62.555  1.00  0.00    -0.095 OA 
HETATM   45  C   UNL     1      -6.763  10.433  62.407  1.00  0.00    -0.138 C  
ENDBRANCH  42  44
ENDBRANCH   8  42
BRANCH   6  46
HETATM   46  O   UNL     1      -5.284  17.766  69.193  1.00  0.00    -0.170 OA 
HETATM   47  C   UNL     1      -5.698  18.461  70.350  1.00  0.00    -0.168 C  
ENDBRANCH   6  46
TORSDOF 11
ENDMDL
MODEL       37
REMARK 921   NORMALIZED FREE ENERGY PREDICTED BY IDOCK:   -4.45 KCAL/MOL
REMARK 922        TOTAL FREE ENERGY PREDICTED BY IDOCK:   -9.36 KCAL/MOL
REMARK 923 INTER-LIGAND FREE ENERGY PREDICTED BY IDOCK:   -7.65 KCAL/MOL
REMARK 924 INTRA-LIGAND FREE ENERGY PREDICTED BY IDOCK:   -1.71 KCAL/MOL
REMARK 927      BINDING AFFINITY PREDICTED BY RF-SCORE:    0.00 PKD
ROOT
HETATM    1  C   UNL     1     -12.379  15.088  68.507  1.00  0.00     0.095 C  
HETATM    2  C   UNL     1     -11.926  16.354  69.157  1.00  0.00     0.219 C  
HETATM    3  C   UNL     1     -10.349  16.333  69.368  1.00  0.00    -0.278 C  
HETATM    4  C   UNL     1     -10.433   7.363  68.861  1.00  0.00    -0.213 A  
HETATM    5  C   UNL     1     -10.023  17.174  68.157  1.00  0.00    -0.297 C  
HETATM    6  C   UNL     1     -10.877   6.329  69.718  1.00  0.00    -0.336 A  
HETATM    7  C   UNL     1     -11.675   6.598  70.826  1.00  0.00    -0.445 A  
HETATM    8  C   UNL     1     -10.387  16.142  66.944  1.00  0.00    -0.297 C  
HETATM    9  C   UNL     1     -11.372  14.719  67.380  1.00  0.00    -0.361 C  
HETATM   10  C   UNL     1     -12.047   7.904  71.120  1.00  0.00    -0.294 A  
HETATM   11  C   UNL     1     -11.617   8.939  70.270  1.00  0.00    -0.049 A  
HETATM   12  H   UNL     1     -10.043   9.997  67.648  1.00  0.00     0.000 HD 
HETATM   13  C   UNL     1     -10.835   8.677  69.151  1.00  0.00    -0.039 A  
HETATM   14  C   UNL     1     -11.048  13.125  67.539  1.00  0.00    -0.296 C  
HETATM   15  N   UNL     1     -10.589   9.891  68.502  1.00  0.00    -0.208 NA 
HETATM   16  C   UNL     1     -11.193  10.919  69.186  1.00  0.00    -0.256 A  
HETATM   17  C   UNL     1     -11.774  10.326  70.316  1.00  0.00    -0.388 A  
HETATM   18  C   UNL     1     -12.429  11.092  71.405  1.00  0.00    -0.414 C  
HETATM   19  C   UNL     1     -11.133  12.452  68.986  1.00  0.00    -0.235 C  
HETATM   20  C   UNL     1     -12.066  12.547  71.235  1.00  0.00     0.383 C  
HETATM   21  C   UNL     1     -12.575  14.281  69.770  1.00  0.00    -0.106 C  
HETATM   22  N   UNL     1     -12.275  12.904  69.795  1.00  0.00    -0.216 NA 
ENDROOT
BRANCH   3  23
HETATM   23  O   UNL     1      -9.512  15.096  68.998  1.00  0.00    -0.202 OA 
BRANCH  23  24
HETATM   24  C   UNL     1      -8.246  14.604  69.119  1.00  0.00    -0.068 C  
HETATM   25  O   UNL     1      -7.341  15.095  69.762  1.00  0.00    -0.200 OA 
BRANCH  24  26
HETATM   26  C   UNL     1      -8.185  13.254  68.357  1.00  0.00    -0.134 C  
HETATM   27  C   UNL     1      -7.211  12.307  68.233  1.00  0.00    -0.101 C  
BRANCH  27  28
HETATM   28  C   UNL     1      -7.328  10.946  67.535  1.00  0.00    -0.096 A  
HETATM   29  C   UNL     1      -7.019   9.750  68.191  1.00  0.00    -0.077 A  
HETATM   30  C   UNL     1      -7.715  10.805  66.175  1.00  0.00    -0.149 A  
HETATM   31  C   UNL     1      -7.807   9.532  65.521  1.00  0.00    -0.108 A  
HETATM   32  C   UNL     1      -7.172   8.478  67.589  1.00  0.00    -0.084 A  
HETATM   33  C   UNL     1      -7.549   8.351  66.241  1.00  0.00    -0.086 A  
BRANCH  32  34
HETATM   34  O   UNL     1      -6.927   7.313  68.286  1.00  0.00    -0.071 OA 
HETATM   35  C   UNL     1      -6.957   7.463  69.704  1.00  0.00    -0.053 C  
ENDBRANCH  32  34
BRANCH  33  36
HETATM   36  O   UNL     1      -7.558   7.059  65.760  1.00  0.00    -0.087 OA 
HETATM   37  C   UNL     1      -8.744   6.276  65.828  1.00  0.00    -0.139 C  
ENDBRANCH  33  36
BRANCH  31  38
HETATM   38  O   UNL     1      -8.104   9.363  64.195  1.00  0.00    -0.128 OA 
HETATM   39  C   UNL     1      -8.701  10.410  63.455  1.00  0.00    -0.199 C  
ENDBRANCH  31  38
ENDBRANCH  27  28
ENDBRANCH  24  26
ENDBRANCH  23  24
ENDBRANCH   3  23
BRANCH   5  40
HETATM   40  O   UNL     1     -10.769  18.408  68.192  1.00  0.00    -0.321 OA 
HETATM   41  C   UNL     1     -10.059  19.628  68.200  1.00  0.00    -0.441 C  
ENDBRANCH   5  40
BRANCH   8  42
HETATM   42  C   UNL     1      -9.066  16.009  66.172  1.00  0.00    -0.351 C  
HETATM   43  O   UNL     1      -8.682  15.008  65.610  1.00  0.00     0.474 OA 
BRANCH  42  44
HETATM   44  O   UNL     1      -8.386  17.208  66.184  1.00  0.00    -0.407 OA 
HETATM   45  C   UNL     1      -6.959  17.283  66.299  1.00  0.00    -0.264 C  
ENDBRANCH  42  44
ENDBRANCH   8  42
BRANCH   6  46
HETATM   46  O   UNL     1     -10.593   4.996  69.570  1.00  0.00    -0.182 OA 
HETATM   47  C   UNL     1      -9.357   4.670  68.971  1.00  0.00    -0.142 C  
ENDBRANCH   6  46
TORSDOF 11
ENDMDL
MODEL       38
REMARK 921   NORMALIZED FREE ENERGY PREDICTED BY IDOCK:   -4.43 KCAL/MOL
REMARK 922        TOTAL FREE ENERGY PREDICTED BY IDOCK:   -9.32 KCAL/MOL
REMARK 923 INTER-LIGAND FREE ENERGY PREDICTED BY IDOCK:   -7.96 KCAL/MOL
REMARK 924 INTRA-LIGAND FREE ENERGY PREDICTED BY IDOCK:   -1.37 KCAL/MOL
REMARK 927      BINDING AFFINITY PREDICTED BY RF-SCORE:    0.00 PKD
ROOT
HETATM    1  C   UNL     1      -5.702   6.544  68.409  1.00  0.00    -0.016 C  
HETATM    2  C   UNL     1      -6.084   5.384  69.270  1.00  0.00    -0.025 C  
HETATM    3  C   UNL     1      -7.652   5.391  69.542  1.00  0.00    -0.070 C  
HETATM    4  C   UNL     1      -7.916  14.163  67.613  1.00  0.00    -0.187 A  
HETATM    5  C   UNL     1      -7.991   4.358  68.495  1.00  0.00    -0.078 C  
HETATM    6  C   UNL     1      -7.478  15.333  68.275  1.00  0.00    -0.112 A  
HETATM    7  C   UNL     1      -6.630  15.270  69.376  1.00  0.00    -0.152 A  
HETATM    8  C   UNL     1      -7.712   5.193  67.120  1.00  0.00    -0.092 C  
HETATM    9  C   UNL     1      -6.763   6.696  67.281  1.00  0.00    -0.063 C  
HETATM   10  C   UNL     1      -6.200  14.040  69.858  1.00  0.00    -0.142 A  
HETATM   11  C   UNL     1      -6.623  12.869  69.203  1.00  0.00    -0.104 A  
HETATM   12  H   UNL     1      -8.253  11.357  66.852  1.00  0.00     0.000 HD 
HETATM   13  C   UNL     1      -7.455  12.924  68.091  1.00  0.00    -0.126 A  
HETATM   14  C   UNL     1      -7.139   8.284  67.199  1.00  0.00    -0.079 C  
HETATM   15  N   UNL     1      -7.680  11.616  67.654  1.00  0.00    -0.125 NA 
HETATM   16  C   UNL     1      -7.014  10.730  68.467  1.00  0.00    -0.068 A  
HETATM   17  C   UNL     1      -6.413  11.513  69.462  1.00  0.00    -0.124 A  
HETATM   18  C   UNL     1      -5.690  10.951  70.630  1.00  0.00    -0.123 C  
HETATM   19  C   UNL     1      -7.025   9.183  68.515  1.00  0.00    -0.067 C  
HETATM   20  C   UNL     1      -6.006   9.478  70.708  1.00  0.00    -0.071 C  
HETATM   21  C   UNL     1      -5.489   7.548  69.518  1.00  0.00    -0.023 C  
HETATM   22  N   UNL     1      -5.838   8.901  69.336  1.00  0.00    -0.034 NA 
ENDROOT
BRANCH   3  23
HETATM   23  O   UNL     1      -8.546   6.527  69.016  1.00  0.00    -0.124 OA 
BRANCH  23  24
HETATM   24  C   UNL     1      -9.801   7.038  69.170  1.00  0.00    -0.158 C  
HETATM   25  O   UNL     1     -10.689   6.577  69.857  1.00  0.00    -0.215 OA 
BRANCH  24  26
HETATM   26  C   UNL     1      -9.874   8.369  68.374  1.00  0.00    -0.192 C  
HETATM   27  C   UNL     1     -10.438   8.699  67.177  1.00  0.00    -0.360 C  
BRANCH  27  28
HETATM   28  C   UNL     1     -10.536  10.098  66.556  1.00  0.00    -0.236 A  
HETATM   29  C   UNL     1     -10.156  10.348  65.233  1.00  0.00    -0.370 A  
HETATM   30  C   UNL     1     -10.974  11.238  67.282  1.00  0.00    -0.342 A  
HETATM   31  C   UNL     1     -11.048  12.548  66.704  1.00  0.00    -0.283 A  
HETATM   32  C   UNL     1     -10.288  11.617  64.619  1.00  0.00    -0.292 A  
HETATM   33  C   UNL     1     -10.717  12.739  65.350  1.00  0.00    -0.284 A  
BRANCH  32  34
HETATM   34  O   UNL     1      -9.972  11.815  63.291  1.00  0.00    -0.403 OA 
HETATM   35  C   UNL     1      -8.914  10.987  62.812  1.00  0.00    -0.302 C  
ENDBRANCH  32  34
BRANCH  33  36
HETATM   36  O   UNL     1     -10.700  13.927  64.651  1.00  0.00    -0.397 OA 
HETATM   37  C   UNL     1     -11.919  14.550  64.264  1.00  0.00    -0.397 C  
ENDBRANCH  33  36
BRANCH  31  38
HETATM   38  O   UNL     1     -11.395  13.680  67.393  1.00  0.00    -0.291 OA 
HETATM   39  C   UNL     1     -11.880  13.592  68.718  1.00  0.00    -0.355 C  
ENDBRANCH  31  38
ENDBRANCH  27  28
ENDBRANCH  24  26
ENDBRANCH  23  24
ENDBRANCH   3  23
BRANCH   5  40
HETATM   40  O   UNL     1      -7.199   3.168  68.694  1.00  0.00    -0.049 OA 
HETATM   41  C   UNL     1      -7.861   1.959  69.004  1.00  0.00    -0.045 C  
ENDBRANCH   5  40
BRANCH   8  42
HETATM   42  C   UNL     1      -9.064   5.160  66.393  1.00  0.00    -0.131 C  
HETATM   43  O   UNL     1     -10.106   4.776  66.874  1.00  0.00    -0.206 OA 
BRANCH  42  44
HETATM   44  O   UNL     1      -8.930   5.662  65.116  1.00  0.00    -0.105 OA 
HETATM   45  C   UNL     1      -8.563   4.838  64.001  1.00  0.00    -0.137 C  
ENDBRANCH  42  44
ENDBRANCH   8  42
BRANCH   6  46
HETATM   46  O   UNL     1      -7.816  16.616  67.929  1.00  0.00    -0.161 OA 
HETATM   47  C   UNL     1      -9.103  17.059  68.301  1.00  0.00    -0.241 C  
ENDBRANCH   6  46
TORSDOF 11
ENDMDL
MODEL       39
REMARK 921   NORMALIZED FREE ENERGY PREDICTED BY IDOCK:   -4.39 KCAL/MOL
REMARK 922        TOTAL FREE ENERGY PREDICTED BY IDOCK:   -9.26 KCAL/MOL
REMARK 923 INTER-LIGAND FREE ENERGY PREDICTED BY IDOCK:   -8.05 KCAL/MOL
REMARK 924 INTRA-LIGAND FREE ENERGY PREDICTED BY IDOCK:   -1.21 KCAL/MOL
REMARK 927      BINDING AFFINITY PREDICTED BY RF-SCORE:    0.00 PKD
ROOT
HETATM    1  C   UNL     1     -12.259  12.812  68.848  1.00  0.00    -0.019 C  
HETATM    2  C   UNL     1     -11.760  14.084  69.453  1.00  0.00    -0.365 C  
HETATM    3  C   UNL     1     -10.209  14.270  69.149  1.00  0.00    -0.089 C  
HETATM    4  C   UNL     1      -9.462   5.428  67.736  1.00  0.00    -0.132 A  
HETATM    5  C   UNL     1     -10.394  15.225  67.994  1.00  0.00    -0.244 C  
HETATM    6  C   UNL     1      -9.483   4.289  68.574  1.00  0.00    -0.153 A  
HETATM    7  C   UNL     1      -9.898   4.370  69.899  1.00  0.00    -0.290 A  
HETATM    8  C   UNL     1     -11.019  14.234  66.856  1.00  0.00    -0.304 C  
HETATM    9  C   UNL     1     -11.644  12.662  67.427  1.00  0.00    -0.421 C  
HETATM   10  C   UNL     1     -10.294   5.589  70.435  1.00  0.00    -0.346 A  
HETATM   11  C   UNL     1     -10.284   6.728  69.609  1.00  0.00    -0.207 A  
HETATM   12  H   UNL     1      -9.787   8.165  66.752  1.00  0.00     0.000 HD 
HETATM   13  C   UNL     1      -9.890   6.652  68.278  1.00  0.00    -0.137 A  
HETATM   14  C   UNL     1     -11.111  11.122  67.304  1.00  0.00    -0.366 C  
HETATM   15  N   UNL     1     -10.006   7.927  67.719  1.00  0.00    -0.163 NA 
HETATM   16  C   UNL     1     -10.461   8.814  68.665  1.00  0.00    -0.183 A  
HETATM   17  C   UNL     1     -10.570   8.073  69.850  1.00  0.00    -0.242 A  
HETATM   18  C   UNL     1     -10.912   8.668  71.167  1.00  0.00    -0.320 C  
HETATM   19  C   UNL     1     -10.640  10.350  68.622  1.00  0.00    -0.209 C  
HETATM   20  C   UNL     1     -10.788  10.167  71.046  1.00  0.00     0.036 C  
HETATM   21  C   UNL     1     -11.938  11.905  70.014  1.00  0.00    -0.332 C  
HETATM   22  N   UNL     1     -11.496  10.585  69.794  1.00  0.00    -0.272 NA 
ENDROOT
BRANCH   3  23
HETATM   23  O   UNL     1      -9.409  13.188  68.402  1.00  0.00    -0.207 OA 
BRANCH  23  24
HETATM   24  C   UNL     1      -8.139  12.703  68.292  1.00  0.00    -0.161 C  
HETATM   25  O   UNL     1      -7.176  13.048  68.946  1.00  0.00    -0.103 OA 
BRANCH  24  26
HETATM   26  C   UNL     1      -8.154  11.565  67.237  1.00  0.00    -0.153 C  
HETATM   27  C   UNL     1      -7.160  10.846  66.640  1.00  0.00    -0.135 C  
BRANCH  27  28
HETATM   28  C   UNL     1      -7.326   9.654  65.689  1.00  0.00    -0.101 A  
HETATM   29  C   UNL     1      -8.058   9.754  64.501  1.00  0.00    -0.146 A  
HETATM   30  C   UNL     1      -6.791   8.366  65.960  1.00  0.00    -0.064 A  
HETATM   31  C   UNL     1      -6.963   7.251  65.077  1.00  0.00    -0.055 A  
HETATM   32  C   UNL     1      -8.180   8.687  63.578  1.00  0.00    -0.150 A  
HETATM   33  C   UNL     1      -7.651   7.415  63.861  1.00  0.00    -0.110 A  
BRANCH  32  34
HETATM   34  O   UNL     1      -8.848   8.838  62.380  1.00  0.00    -0.194 OA 
HETATM   35  C   UNL     1      -9.711   9.972  62.332  1.00  0.00     0.113 C  
ENDBRANCH  32  34
BRANCH  33  36
HETATM   36  O   UNL     1      -7.934   6.447  62.921  1.00  0.00    -0.100 OA 
HETATM   37  C   UNL     1      -8.369   5.156  63.328  1.00  0.00    -0.114 C  
ENDBRANCH  33  36
BRANCH  31  38
HETATM   38  O   UNL     1      -6.525   5.979  65.341  1.00  0.00    -0.040 OA 
HETATM   39  C   UNL     1      -5.169   5.634  65.145  1.00  0.00    -0.009 C  
ENDBRANCH  31  38
ENDBRANCH  27  28
ENDBRANCH  24  26
ENDBRANCH  23  24
ENDBRANCH   3  23
BRANCH   5  40
HETATM   40  O   UNL     1     -11.219  16.338  68.397  1.00  0.00    -0.354 OA 
HETATM   41  C   UNL     1     -10.933  17.617  67.870  1.00  0.00    -0.107 C  
ENDBRANCH   5  40
BRANCH   8  42
HETATM   42  C   UNL     1     -10.019  14.337  65.696  1.00  0.00    -0.320 C  
HETATM   43  O   UNL     1      -9.098  15.120  65.634  1.00  0.00    -0.099 OA 
BRANCH  42  44
HETATM   44  O   UNL     1     -10.302  13.386  64.739  1.00  0.00    -0.378 OA 
HETATM   45  C   UNL     1     -11.355  13.550  63.779  1.00  0.00    -0.079 C  
ENDBRANCH  42  44
ENDBRANCH   8  42
BRANCH   6  46
HETATM   46  O   UNL     1      -9.118   3.020  68.201  1.00  0.00    -0.133 OA 
HETATM   47  C   UNL     1      -8.856   2.101  69.239  1.00  0.00    -0.091 C  
ENDBRANCH   6  46
TORSDOF 11
ENDMDL
MODEL       40
REMARK 921   NORMALIZED FREE ENERGY PREDICTED BY IDOCK:   -4.35 KCAL/MOL
REMARK 922        TOTAL FREE ENERGY PREDICTED BY IDOCK:   -9.19 KCAL/MOL
REMARK 923 INTER-LIGAND FREE ENERGY PREDICTED BY IDOCK:   -6.91 KCAL/MOL
REMARK 924 INTRA-LIGAND FREE ENERGY PREDICTED BY IDOCK:   -2.28 KCAL/MOL
REMARK 927      BINDING AFFINITY PREDICTED BY RF-SCORE:    0.00 PKD
ROOT
HETATM    1  C   UNL     1      -7.563   7.615  67.786  1.00  0.00    -0.117 C  
HETATM    2  C   UNL     1      -8.689   6.770  67.284  1.00  0.00    -0.119 C  
HETATM    3  C   UNL     1      -9.153   7.265  65.845  1.00  0.00    -0.021 C  
HETATM    4  C   UNL     1      -5.488  15.307  67.467  1.00  0.00     0.052 A  
HETATM    5  C   UNL     1      -8.396   6.212  65.072  1.00  0.00    -0.112 C  
HETATM    6  C   UNL     1      -5.830  16.398  68.299  1.00  0.00    -0.108 A  
HETATM    7  C   UNL     1      -6.802  16.281  69.287  1.00  0.00    -0.211 A  
HETATM    8  C   UNL     1      -6.852   6.694  65.302  1.00  0.00    -0.054 C  
HETATM    9  C   UNL     1      -6.574   7.872  66.613  1.00  0.00    -0.058 C  
HETATM   10  C   UNL     1      -7.471  15.077  69.471  1.00  0.00    -0.194 A  
HETATM   11  C   UNL     1      -7.133  13.983  68.655  1.00  0.00    -0.108 A  
HETATM   12  H   UNL     1      -5.378  12.626  66.299  1.00  0.00     0.000 HD 
HETATM   13  C   UNL     1      -6.150  14.086  67.677  1.00  0.00    -0.063 A  
HETATM   14  C   UNL     1      -6.212   9.465  66.642  1.00  0.00    -0.065 C  
HETATM   15  N   UNL     1      -6.028  12.841  67.054  1.00  0.00    -0.248 NA 
HETATM   16  C   UNL     1      -6.915  11.950  67.609  1.00  0.00    -0.112 A  
HETATM   17  C   UNL     1      -7.640  12.685  68.557  1.00  0.00    -0.121 A  
HETATM   18  C   UNL     1      -8.797  12.143  69.313  1.00  0.00     0.824 C  
HETATM   19  C   UNL     1      -7.286  10.501  67.215  1.00  0.00    -0.091 C  
HETATM   20  C   UNL     1      -9.221  10.854  68.653  1.00  0.00    -0.187 C  
HETATM   21  C   UNL     1      -8.402   8.687  68.442  1.00  0.00    -0.127 C  
HETATM   22  N   UNL     1      -7.988  10.034  68.420  1.00  0.00    -0.096 NA 
ENDROOT
BRANCH   3  23
HETATM   23  O   UNL     1      -8.521   8.504  65.188  1.00  0.00    -0.170 OA 
BRANCH  23  24
HETATM   24  C   UNL     1      -8.799   9.463  64.258  1.00  0.00    -0.184 C  
HETATM   25  O   UNL     1      -8.749   9.333  63.052  1.00  0.00    -0.219 OA 
BRANCH  24  26
HETATM   26  C   UNL     1      -9.277  10.732  65.012  1.00  0.00    -0.241 C  
HETATM   27  C   UNL     1     -10.490  11.351  65.100  1.00  0.00    -0.351 C  
BRANCH  27  28
HETATM   28  C   UNL     1     -10.853  12.549  65.987  1.00  0.00    -0.309 A  
HETATM   29  C   UNL     1     -10.390  13.840  65.711  1.00  0.00    -0.315 A  
HETATM   30  C   UNL     1     -11.642  12.431  67.163  1.00  0.00    -0.435 A  
HETATM   31  C   UNL     1     -11.964  13.550  67.999  1.00  0.00    -0.337 A  
HETATM   32  C   UNL     1     -10.754  14.971  66.480  1.00  0.00    -0.312 A  
HETATM   33  C   UNL     1     -11.530  14.840  67.645  1.00  0.00    -0.347 A  
BRANCH  32  34
HETATM   34  O   UNL     1     -10.339  16.242  66.140  1.00  0.00    -0.314 OA 
HETATM   35  C   UNL     1      -8.924  16.419  66.159  1.00  0.00    -0.332 C  
ENDBRANCH  32  34
BRANCH  33  36
HETATM   36  O   UNL     1     -11.721  16.011  68.348  1.00  0.00    -0.346 OA 
HETATM   37  C   UNL     1     -10.911  16.309  69.479  1.00  0.00    -0.339 C  
ENDBRANCH  33  36
BRANCH  31  38
HETATM   38  O   UNL     1     -12.658  13.462  69.176  1.00  0.00     0.035 OA 
HETATM   39  C   UNL     1     -12.094  12.805  70.293  1.00  0.00    -0.297 C  
ENDBRANCH  31  38
ENDBRANCH  27  28
ENDBRANCH  24  26
ENDBRANCH  23  24
ENDBRANCH   3  23
BRANCH   5  40
HETATM   40  O   UNL     1      -8.736   4.897  65.559  1.00  0.00    -0.129 OA 
HETATM   41  C   UNL     1      -9.416   4.010  64.696  1.00  0.00    -0.169 C  
ENDBRANCH   5  40
BRANCH   8  42
HETATM   42  C   UNL     1      -6.329   6.925  63.877  1.00  0.00    -0.042 C  
HETATM   43  O   UNL     1      -6.799   6.442  62.872  1.00  0.00    -0.039 OA 
BRANCH  42  44
HETATM   44  O   UNL     1      -5.257   7.792  63.900  1.00  0.00    -0.036 OA 
HETATM   45  C   UNL     1      -5.238   9.012  63.148  1.00  0.00    -0.068 C  
ENDBRANCH  42  44
ENDBRANCH   8  42
BRANCH   6  46
HETATM   46  O   UNL     1      -5.270  17.649  68.240  1.00  0.00    -0.144 OA 
HETATM   47  C   UNL     1      -5.695  18.489  67.188  1.00  0.00    -0.143 C  
ENDBRANCH   6  46
TORSDOF 11
ENDMDL
MODEL       41
REMARK 921   NORMALIZED FREE ENERGY PREDICTED BY IDOCK:   -4.21 KCAL/MOL
REMARK 922        TOTAL FREE ENERGY PREDICTED BY IDOCK:   -8.96 KCAL/MOL
REMARK 923 INTER-LIGAND FREE ENERGY PREDICTED BY IDOCK:   -6.76 KCAL/MOL
REMARK 924 INTRA-LIGAND FREE ENERGY PREDICTED BY IDOCK:   -2.20 KCAL/MOL
REMARK 927      BINDING AFFINITY PREDICTED BY RF-SCORE:    0.00 PKD
ROOT
HETATM    1  C   UNL     1     -12.149  11.248  68.411  1.00  0.00    -0.110 C  
HETATM    2  C   UNL     1     -11.627  12.643  68.533  1.00  0.00    -0.363 C  
HETATM    3  C   UNL     1     -10.042  12.653  68.404  1.00  0.00    -0.222 C  
HETATM    4  C   UNL     1      -9.831   3.966  70.690  1.00  0.00    -0.193 A  
HETATM    5  C   UNL     1     -10.010  13.073  66.954  1.00  0.00    -0.243 C  
HETATM    6  C   UNL     1     -10.043   3.257  71.894  1.00  0.00    -0.083 A  
HETATM    7  C   UNL     1     -10.606   3.870  73.009  1.00  0.00    -0.254 A  
HETATM    8  C   UNL     1     -10.570  11.726  66.220  1.00  0.00    -0.292 C  
HETATM    9  C   UNL     1     -11.381  10.528  67.265  1.00  0.00    -0.058 C  
HETATM   10  C   UNL     1     -10.967   5.211  72.961  1.00  0.00    -0.355 A  
HETATM   11  C   UNL     1     -10.768   5.925  71.766  1.00  0.00    -0.299 A  
HETATM   12  H   UNL     1      -9.817   6.091  68.677  1.00  0.00     0.000 HD 
HETATM   13  C   UNL     1     -10.223   5.315  70.642  1.00  0.00    -0.257 A  
HETATM   14  C   UNL     1     -10.960   9.055  67.832  1.00  0.00    -0.001 C  
HETATM   15  N   UNL     1     -10.170   6.264  69.618  1.00  0.00    -0.176 NA 
HETATM   16  C   UNL     1     -10.664   7.465  70.066  1.00  0.00    -0.246 A  
HETATM   17  C   UNL     1     -10.973   7.262  71.418  1.00  0.00    -0.256 A  
HETATM   18  C   UNL     1     -11.423   8.340  72.333  1.00  0.00    -0.463 C  
HETATM   19  C   UNL     1     -10.715   8.861  69.399  1.00  0.00    -0.181 C  
HETATM   20  C   UNL     1     -11.167   9.663  71.654  1.00  0.00    -0.217 C  
HETATM   21  C   UNL     1     -12.043  10.874  69.872  1.00  0.00    -0.354 C  
HETATM   22  N   UNL     1     -11.684   9.564  70.252  1.00  0.00    -0.177 NA 
ENDROOT
BRANCH   3  23
HETATM   23  O   UNL     1      -9.246  11.344  68.263  1.00  0.00    -0.170 OA 
BRANCH  23  24
HETATM   24  C   UNL     1      -7.960  10.894  68.192  1.00  0.00    -0.117 C  
HETATM   25  O   UNL     1      -7.069  11.361  67.512  1.00  0.00    -0.093 OA 
BRANCH  24  26
HETATM   26  C   UNL     1      -7.809   9.726  69.203  1.00  0.00    -0.095 C  
HETATM   27  C   UNL     1      -7.160   8.528  69.138  1.00  0.00    -0.064 C  
BRANCH  27  28
HETATM   28  C   UNL     1      -6.993   7.506  70.270  1.00  0.00    -0.055 A  
HETATM   29  C   UNL     1      -6.678   6.167  70.015  1.00  0.00    -0.056 A  
HETATM   30  C   UNL     1      -7.186   7.829  71.640  1.00  0.00    -0.065 A  
HETATM   31  C   UNL     1      -7.046   6.866  72.693  1.00  0.00    -0.074 A  
HETATM   32  C   UNL     1      -6.464   5.215  71.042  1.00  0.00    -0.027 A  
HETATM   33  C   UNL     1      -6.663   5.546  72.394  1.00  0.00    -0.071 A  
BRANCH  32  34
HETATM   34  O   UNL     1      -6.083   3.919  70.760  1.00  0.00    -0.017 OA 
HETATM   35  C   UNL     1      -5.407   3.767  69.514  1.00  0.00    -0.012 C  
ENDBRANCH  32  34
BRANCH  33  36
HETATM   36  O   UNL     1      -6.518   4.495  73.275  1.00  0.00    -0.046 OA 
HETATM   37  C   UNL     1      -5.243   4.189  73.823  1.00  0.00    -0.004 C  
ENDBRANCH  33  36
BRANCH  31  38
HETATM   38  O   UNL     1      -7.295   7.124  74.015  1.00  0.00    -0.093 OA 
HETATM   39  C   UNL     1      -8.530   7.683  74.415  1.00  0.00    -0.213 C  
ENDBRANCH  31  38
ENDBRANCH  27  28
ENDBRANCH  24  26
ENDBRANCH  23  24
ENDBRANCH   3  23
BRANCH   5  40
HETATM   40  O   UNL     1     -10.787  14.275  66.767  1.00  0.00    -0.292 OA 
HETATM   41  C   UNL     1     -10.996  14.746  65.453  1.00  0.00    -0.359 C  
ENDBRANCH   5  40
BRANCH   8  42
HETATM   42  C   UNL     1      -9.432  11.334  65.266  1.00  0.00    -0.221 C  
HETATM   43  O   UNL     1      -8.480  12.027  64.991  1.00  0.00     0.834 OA 
BRANCH  42  44
HETATM   44  O   UNL     1      -9.635  10.058  64.785  1.00  0.00    -0.283 OA 
HETATM   45  C   UNL     1      -8.636   9.350  64.038  1.00  0.00    -0.205 C  
ENDBRANCH  42  44
ENDBRANCH   8  42
BRANCH   6  46
HETATM   46  O   UNL     1      -9.737   1.936  72.104  1.00  0.00    -0.097 OA 
HETATM   47  C   UNL     1      -9.650   1.507  73.445  1.00  0.00    -0.072 C  
ENDBRANCH   6  46
TORSDOF 11
ENDMDL
MODEL       42
REMARK 921   NORMALIZED FREE ENERGY PREDICTED BY IDOCK:   -4.12 KCAL/MOL
REMARK 922        TOTAL FREE ENERGY PREDICTED BY IDOCK:   -8.81 KCAL/MOL
REMARK 923 INTER-LIGAND FREE ENERGY PREDICTED BY IDOCK:   -7.96 KCAL/MOL
REMARK 924 INTRA-LIGAND FREE ENERGY PREDICTED BY IDOCK:   -0.86 KCAL/MOL
REMARK 927      BINDING AFFINITY PREDICTED BY RF-SCORE:    0.00 PKD
ROOT
HETATM    1  C   UNL     1      -5.588  10.300  69.643  1.00  0.00    -0.038 C  
HETATM    2  C   UNL     1      -6.269   9.489  70.697  1.00  0.00    -0.077 C  
HETATM    3  C   UNL     1      -7.849   9.639  70.575  1.00  0.00    -0.121 C  
HETATM    4  C   UNL     1      -6.741  17.349  66.097  1.00  0.00    -0.262 A  
HETATM    5  C   UNL     1      -8.068   8.340  69.838  1.00  0.00    -0.117 C  
HETATM    6  C   UNL     1      -6.329  18.652  66.461  1.00  0.00    -0.183 A  
HETATM    7  C   UNL     1      -5.747  18.911  67.698  1.00  0.00    -0.184 A  
HETATM    8  C   UNL     1      -7.412   8.685  68.382  1.00  0.00    -0.095 C  
HETATM    9  C   UNL     1      -6.362  10.126  68.304  1.00  0.00    -0.049 C  
HETATM   10  C   UNL     1      -5.566  17.882  68.615  1.00  0.00    -0.166 A  
HETATM   11  C   UNL     1      -5.964  16.580  68.260  1.00  0.00    -0.121 A  
HETATM   12  H   UNL     1      -7.211  14.461  66.156  1.00  0.00     0.000 HD 
HETATM   13  C   UNL     1      -6.529  16.310  67.019  1.00  0.00    -0.126 A  
HETATM   14  C   UNL     1      -6.537  11.618  67.662  1.00  0.00    -0.082 C  
HETATM   15  N   UNL     1      -6.797  14.940  66.956  1.00  0.00    -0.082 NA 
HETATM   16  C   UNL     1      -6.420  14.334  68.130  1.00  0.00    -0.133 A  
HETATM   17  C   UNL     1      -5.963  15.370  68.956  1.00  0.00    -0.103 A  
HETATM   18  C   UNL     1      -5.571  15.181  70.375  1.00  0.00    -0.138 C  
HETATM   19  C   UNL     1      -6.609  12.884  68.636  1.00  0.00    -0.091 C  
HETATM   20  C   UNL     1      -6.055  13.821  70.815  1.00  0.00    -0.088 C  
HETATM   21  C   UNL     1      -5.509  11.596  70.417  1.00  0.00    -0.135 C  
HETATM   22  N   UNL     1      -5.662  12.834  69.759  1.00  0.00    -0.100 NA 
ENDROOT
BRANCH   3  23
HETATM   23  O   UNL     1      -8.482  10.581  69.537  1.00  0.00    -0.137 OA 
BRANCH  23  24
HETATM   24  C   UNL     1      -9.694  10.891  68.994  1.00  0.00    -0.166 C  
HETATM   25  O   UNL     1     -10.683  10.187  68.990  1.00  0.00    -0.201 OA 
BRANCH  24  26
HETATM   26  C   UNL     1      -9.616  12.343  68.453  1.00  0.00    -0.180 C  
HETATM   27  C   UNL     1     -10.572  13.236  68.066  1.00  0.00    -0.249 C  
BRANCH  27  28
HETATM   28  C   UNL     1     -10.357  14.699  67.657  1.00  0.00    -0.233 A  
HETATM   29  C   UNL     1     -10.636  15.153  66.363  1.00  0.00    -0.305 A  
HETATM   30  C   UNL     1      -9.827  15.680  68.538  1.00  0.00    -0.205 A  
HETATM   31  C   UNL     1      -9.612  17.042  68.146  1.00  0.00    -0.266 A  
HETATM   32  C   UNL     1     -10.500  16.507  65.974  1.00  0.00    -0.310 A  
HETATM   33  C   UNL     1      -9.968  17.467  66.853  1.00  0.00    -0.313 A  
BRANCH  32  34
HETATM   34  O   UNL     1     -10.851  16.937  64.711  1.00  0.00    -0.787 OA 
HETATM   35  C   UNL     1     -11.608  15.989  63.961  1.00  0.00     0.196 C  
ENDBRANCH  32  34
BRANCH  33  36
HETATM   36  O   UNL     1      -9.798  18.722  66.307  1.00  0.00    -0.348 OA 
HETATM   37  C   UNL     1     -10.907  19.601  66.170  1.00  0.00    -0.315 C  
ENDBRANCH  33  36
BRANCH  31  38
HETATM   38  O   UNL     1      -9.036  17.995  68.944  1.00  0.00    -0.246 OA 
HETATM   39  C   UNL     1      -9.788  19.106  69.390  1.00  0.00    -0.077 C  
ENDBRANCH  31  38
ENDBRANCH  27  28
ENDBRANCH  24  26
ENDBRANCH  23  24
ENDBRANCH   3  23
BRANCH   5  40
HETATM   40  O   UNL     1      -7.471   7.247  70.566  1.00  0.00    -0.080 OA 
HETATM   41  C   UNL     1      -8.275   6.134  70.896  1.00  0.00    -0.126 C  
ENDBRANCH   5  40
BRANCH   8  42
HETATM   42  C   UNL     1      -8.574   8.473  67.401  1.00  0.00    -0.127 C  
HETATM   43  O   UNL     1      -8.754   9.103  66.384  1.00  0.00    -0.124 OA 
BRANCH  42  44
HETATM   44  O   UNL     1      -9.374   7.435  67.830  1.00  0.00    -0.136 OA 
HETATM   45  C   UNL     1     -10.473   6.939  67.053  1.00  0.00    -0.304 C  
ENDBRANCH  42  44
ENDBRANCH   8  42
BRANCH   6  46
HETATM   46  O   UNL     1      -6.444  19.771  65.676  1.00  0.00    -0.211 OA 
HETATM   47  C   UNL     1      -6.641  20.999  66.342  1.00  0.00    -0.212 C  
ENDBRANCH   6  46
TORSDOF 11
ENDMDL
MODEL       43
REMARK 921   NORMALIZED FREE ENERGY PREDICTED BY IDOCK:   -4.08 KCAL/MOL
REMARK 922        TOTAL FREE ENERGY PREDICTED BY IDOCK:   -8.74 KCAL/MOL
REMARK 923 INTER-LIGAND FREE ENERGY PREDICTED BY IDOCK:   -8.19 KCAL/MOL
REMARK 924 INTRA-LIGAND FREE ENERGY PREDICTED BY IDOCK:   -0.55 KCAL/MOL
REMARK 927      BINDING AFFINITY PREDICTED BY RF-SCORE:    0.00 PKD
ROOT
HETATM    1  C   UNL     1     -11.762  10.204  68.315  1.00  0.00     0.305 C  
HETATM    2  C   UNL     1     -11.944  11.687  68.357  1.00  0.00    -0.266 C  
HETATM    3  C   UNL     1     -10.548  12.421  68.148  1.00  0.00    -0.216 C  
HETATM    4  C   UNL     1      -6.271   4.959  70.748  1.00  0.00    -0.019 A  
HETATM    5  C   UNL     1     -10.754  12.724  66.683  1.00  0.00    -0.261 C  
HETATM    6  C   UNL     1      -6.097   4.302  71.988  1.00  0.00    -0.017 A  
HETATM    7  C   UNL     1      -6.850   4.648  73.105  1.00  0.00    -0.071 A  
HETATM    8  C   UNL     1     -10.645  11.231  66.029  1.00  0.00    -0.314 C  
HETATM    9  C   UNL     1     -10.779   9.856  67.159  1.00  0.00    -0.276 C  
HETATM   10  C   UNL     1      -7.792   5.666  73.025  1.00  0.00    -0.101 A  
HETATM   11  C   UNL     1      -7.979   6.322  71.795  1.00  0.00    -0.102 A  
HETATM   12  H   UNL     1      -7.299   6.731  68.658  1.00  0.00     0.000 HD 
HETATM   13  C   UNL     1      -7.244   5.969  70.669  1.00  0.00    -0.080 A  
HETATM   14  C   UNL     1      -9.708   8.778  67.759  1.00  0.00    -0.194 C  
HETATM   15  N   UNL     1      -7.666   6.775  69.608  1.00  0.00    -0.108 NA 
HETATM   16  C   UNL     1      -8.648   7.636  70.035  1.00  0.00    -0.138 A  
HETATM   17  C   UNL     1      -8.791   7.390  71.407  1.00  0.00    -0.129 A  
HETATM   18  C   UNL     1      -9.664   8.190  72.302  1.00  0.00    -0.322 C  
HETATM   19  C   UNL     1      -9.358   8.809  69.319  1.00  0.00    -0.149 C  
HETATM   20  C   UNL     1     -10.070   9.440  71.562  1.00  0.00    -0.113 C  
HETATM   21  C   UNL     1     -11.455  10.005  69.781  1.00  0.00    -0.184 C  
HETATM   22  N   UNL     1     -10.520   9.034  70.192  1.00  0.00    -0.204 NA 
ENDROOT
BRANCH   3  23
HETATM   23  O   UNL     1      -9.240  11.622  68.016  1.00  0.00    -0.165 OA 
BRANCH  23  24
HETATM   24  C   UNL     1      -7.896  11.758  68.209  1.00  0.00    -0.137 C  
HETATM   25  O   UNL     1      -7.070  10.868  68.183  1.00  0.00    -0.075 OA 
BRANCH  24  26
HETATM   26  C   UNL     1      -7.591  13.269  68.384  1.00  0.00    -0.137 C  
HETATM   27  C   UNL     1      -7.788  14.350  67.574  1.00  0.00    -0.207 C  
BRANCH  27  28
HETATM   28  C   UNL     1      -7.543  15.823  67.925  1.00  0.00    -0.144 A  
HETATM   29  C   UNL     1      -8.353  16.847  67.422  1.00  0.00    -0.201 A  
HETATM   30  C   UNL     1      -6.464  16.256  68.742  1.00  0.00    -0.128 A  
HETATM   31  C   UNL     1      -6.229  17.635  69.053  1.00  0.00    -0.213 A  
HETATM   32  C   UNL     1      -8.185  18.208  67.774  1.00  0.00    -0.242 A  
HETATM   33  C   UNL     1      -7.109  18.624  68.578  1.00  0.00    -0.277 A  
BRANCH  32  34
HETATM   34  O   UNL     1      -9.045  19.186  67.318  1.00  0.00    -0.289 OA 
HETATM   35  C   UNL     1     -10.321  18.697  66.910  1.00  0.00    -0.402 C  
ENDBRANCH  32  34
BRANCH  33  36
HETATM   36  O   UNL     1      -7.011  19.988  68.754  1.00  0.00    -0.315 OA 
HETATM   37  C   UNL     1      -6.340  20.789  67.790  1.00  0.00    -0.322 C  
ENDBRANCH  33  36
BRANCH  31  38
HETATM   38  O   UNL     1      -5.159  18.094  69.775  1.00  0.00    -0.175 OA 
HETATM   39  C   UNL     1      -5.230  18.182  71.184  1.00  0.00    -0.230 C  
ENDBRANCH  31  38
ENDBRANCH  27  28
ENDBRANCH  24  26
ENDBRANCH  23  24
ENDBRANCH   3  23
BRANCH   5  40
HETATM   40  O   UNL     1     -12.004  13.418  66.490  1.00  0.00    -0.374 OA 
HETATM   41  C   UNL     1     -12.356  13.826  65.184  1.00  0.00    -0.448 C  
ENDBRANCH   5  40
BRANCH   8  42
HETATM   42  C   UNL     1      -9.481  11.355  65.035  1.00  0.00    -0.185 C  
HETATM   43  O   UNL     1      -8.307  11.301  65.322  1.00  0.00     0.051 OA 
BRANCH  42  44
HETATM   44  O   UNL     1      -9.966  11.507  63.753  1.00  0.00    -0.286 OA 
HETATM   45  C   UNL     1      -9.204  11.143  62.594  1.00  0.00    -0.323 C  
ENDBRANCH  42  44
ENDBRANCH   8  42
BRANCH   6  46
HETATM   46  O   UNL     1      -5.207   3.286  72.232  1.00  0.00     0.000 OA 
HETATM   47  C   UNL     1      -5.750   2.000  72.437  1.00  0.00    -0.008 C  
ENDBRANCH   6  46
TORSDOF 11
ENDMDL
MODEL       44
REMARK 921   NORMALIZED FREE ENERGY PREDICTED BY IDOCK:   -4.02 KCAL/MOL
REMARK 922        TOTAL FREE ENERGY PREDICTED BY IDOCK:   -8.64 KCAL/MOL
REMARK 923 INTER-LIGAND FREE ENERGY PREDICTED BY IDOCK:   -5.92 KCAL/MOL
REMARK 924 INTRA-LIGAND FREE ENERGY PREDICTED BY IDOCK:   -2.72 KCAL/MOL
REMARK 927      BINDING AFFINITY PREDICTED BY RF-SCORE:    0.00 PKD
ROOT
HETATM    1  C   UNL     1      -8.553  12.123  66.571  1.00  0.00    -0.070 C  
HETATM    2  C   UNL     1      -9.741  12.340  65.691  1.00  0.00    -0.205 C  
HETATM    3  C   UNL     1     -11.077  11.942  66.458  1.00  0.00    -0.306 C  
HETATM    4  C   UNL     1      -6.291   6.796  72.058  1.00  0.00    -0.049 A  
HETATM    5  C   UNL     1     -11.459  13.352  66.838  1.00  0.00    -0.342 C  
HETATM    6  C   UNL     1      -5.621   5.558  71.931  1.00  0.00    -0.017 A  
HETATM    7  C   UNL     1      -5.392   4.980  70.686  1.00  0.00    -0.004 A  
HETATM    8  C   UNL     1     -10.319  13.702  67.955  1.00  0.00    -0.249 C  
HETATM    9  C   UNL     1      -8.897  12.625  68.003  1.00  0.00    -0.195 C  
HETATM   10  C   UNL     1      -5.831   5.613  69.530  1.00  0.00    -0.016 A  
HETATM   11  C   UNL     1      -6.492   6.849  69.643  1.00  0.00    -0.044 A  
HETATM   12  H   UNL     1      -7.642   9.309  71.404  1.00  0.00     0.000 HD 
HETATM   13  C   UNL     1      -6.708   7.443  70.882  1.00  0.00    -0.044 A  
HETATM   14  C   UNL     1      -8.389  11.470  69.042  1.00  0.00     0.085 C  
HETATM   15  N   UNL     1      -7.362   8.660  70.670  1.00  0.00    -0.056 NA 
HETATM   16  C   UNL     1      -7.570   8.852  69.325  1.00  0.00    -0.082 A  
HETATM   17  C   UNL     1      -7.084   7.694  68.702  1.00  0.00    -0.080 A  
HETATM   18  C   UNL     1      -7.222   7.419  67.250  1.00  0.00    -0.093 C  
HETATM   19  C   UNL     1      -8.351   9.947  68.560  1.00  0.00    -0.108 C  
HETATM   20  C   UNL     1      -8.219   8.399  66.683  1.00  0.00    -0.105 C  
HETATM   21  C   UNL     1      -8.309  10.675  66.213  1.00  0.00    -0.155 C  
HETATM   22  N   UNL     1      -7.856   9.762  67.187  1.00  0.00    -0.099 NA 
ENDROOT
BRANCH   3  23
HETATM   23  O   UNL     1     -11.034  11.345  67.875  1.00  0.00    -0.208 OA 
BRANCH  23  24
HETATM   24  C   UNL     1     -11.769  10.556  68.711  1.00  0.00    -0.120 C  
HETATM   25  O   UNL     1     -12.766  10.885  69.320  1.00  0.00    -0.282 OA 
BRANCH  24  26
HETATM   26  C   UNL     1     -11.157   9.131  68.681  1.00  0.00     0.113 C  
HETATM   27  C   UNL     1     -11.089   8.136  69.612  1.00  0.00    -0.015 C  
BRANCH  27  28
HETATM   28  C   UNL     1     -10.550   6.714  69.408  1.00  0.00    -0.279 A  
HETATM   29  C   UNL     1      -9.934   6.002  70.442  1.00  0.00    -0.233 A  
HETATM   30  C   UNL     1     -10.598   6.041  68.158  1.00  0.00    -0.328 A  
HETATM   31  C   UNL     1     -10.077   4.719  67.966  1.00  0.00    -0.047 A  
HETATM   32  C   UNL     1      -9.478   4.670  70.296  1.00  0.00    -0.170 A  
HETATM   33  C   UNL     1      -9.525   4.016  69.052  1.00  0.00    -0.173 A  
BRANCH  32  34
HETATM   34  O   UNL     1      -8.940   3.968  71.356  1.00  0.00    -0.103 OA 
HETATM   35  C   UNL     1      -9.182   4.559  72.630  1.00  0.00    -0.126 C  
ENDBRANCH  32  34
BRANCH  33  36
HETATM   36  O   UNL     1      -8.954   2.761  69.035  1.00  0.00    -0.089 OA 
HETATM   37  C   UNL     1      -7.652   2.573  68.495  1.00  0.00    -0.047 C  
ENDBRANCH  33  36
BRANCH  31  38
HETATM   38  O   UNL     1     -10.040   4.069  66.761  1.00  0.00    -0.138 OA 
HETATM   39  C   UNL     1      -9.513   4.710  65.617  1.00  0.00    -0.174 C  
ENDBRANCH  31  38
ENDBRANCH  27  28
ENDBRANCH  24  26
ENDBRANCH  23  24
ENDBRANCH   3  23
BRANCH   5  40
HETATM   40  O   UNL     1     -11.488  14.194  65.667  1.00  0.00    -0.313 OA 
HETATM   41  C   UNL     1     -12.658  14.214  64.877  1.00  0.00    -0.342 C  
ENDBRANCH   5  40
BRANCH   8  42
HETATM   42  C   UNL     1     -11.133  14.031  69.215  1.00  0.00    -0.232 C  
HETATM   43  O   UNL     1     -11.165  13.359  70.221  1.00  0.00     0.116 OA 
BRANCH  42  44
HETATM   44  O   UNL     1     -11.804  15.223  69.049  1.00  0.00    -0.325 OA 
HETATM   45  C   UNL     1     -12.381  15.940  70.148  1.00  0.00    -0.163 C  
ENDBRANCH  42  44
ENDBRANCH   8  42
BRANCH   6  46
HETATM   46  O   UNL     1      -5.133   4.807  72.971  1.00  0.00    -0.007 OA 
HETATM   47  C   UNL     1      -5.302   3.409  72.882  1.00  0.00     0.000 C  
ENDBRANCH   6  46
TORSDOF 11
ENDMDL
MODEL       45
REMARK 921   NORMALIZED FREE ENERGY PREDICTED BY IDOCK:   -3.94 KCAL/MOL
REMARK 922        TOTAL FREE ENERGY PREDICTED BY IDOCK:   -8.51 KCAL/MOL
REMARK 923 INTER-LIGAND FREE ENERGY PREDICTED BY IDOCK:   -8.06 KCAL/MOL
REMARK 924 INTRA-LIGAND FREE ENERGY PREDICTED BY IDOCK:   -0.45 KCAL/MOL
REMARK 927      BINDING AFFINITY PREDICTED BY RF-SCORE:    0.00 PKD
ROOT
HETATM    1  C   UNL     1      -9.292   7.981  65.578  1.00  0.00     0.200 C  
HETATM    2  C   UNL     1      -7.901   7.695  65.112  1.00  0.00    -0.124 C  
HETATM    3  C   UNL     1      -6.914   7.582  66.355  1.00  0.00    -0.070 C  
HETATM    4  C   UNL     1     -12.711  12.297  71.345  1.00  0.00    -0.351 A  
HETATM    5  C   UNL     1      -6.903   6.072  66.402  1.00  0.00    -0.062 C  
HETATM    6  C   UNL     1     -13.106  13.654  71.382  1.00  0.00    -0.319 A  
HETATM    7  C   UNL     1     -12.764  14.538  70.362  1.00  0.00    -0.378 A  
HETATM    8  C   UNL     1      -8.417   5.757  66.925  1.00  0.00    -0.108 C  
HETATM    9  C   UNL     1      -9.589   7.099  66.825  1.00  0.00    -0.230 C  
HETATM   10  C   UNL     1     -12.010  14.100  69.281  1.00  0.00    -0.382 A  
HETATM   11  C   UNL     1     -11.618  12.750  69.230  1.00  0.00    -0.372 A  
HETATM   12  H   UNL     1     -11.572   9.754  70.452  1.00  0.00     0.000 HD 
HETATM   13  C   UNL     1     -11.972  11.856  70.235  1.00  0.00    -0.330 A  
HETATM   14  C   UNL     1     -10.289   8.074  67.935  1.00  0.00    -0.282 C  
HETATM   15  N   UNL     1     -11.461  10.600  69.896  1.00  0.00    -0.291 NA 
HETATM   16  C   UNL     1     -10.786  10.676  68.701  1.00  0.00    -0.227 A  
HETATM   17  C   UNL     1     -10.836  12.026  68.328  1.00  0.00    -0.263 A  
HETATM   18  C   UNL     1     -10.121  12.585  67.153  1.00  0.00    -0.219 C  
HETATM   19  C   UNL     1      -9.932   9.632  67.943  1.00  0.00    -0.166 C  
HETATM   20  C   UNL     1      -9.128  11.552  66.678  1.00  0.00    -0.190 C  
HETATM   21  C   UNL     1      -9.181   9.487  65.608  1.00  0.00    -0.223 C  
HETATM   22  N   UNL     1      -9.839  10.235  66.606  1.00  0.00    -0.196 NA 
ENDROOT
BRANCH   3  23
HETATM   23  O   UNL     1      -7.409   7.833  67.790  1.00  0.00    -0.091 OA 
BRANCH  23  24
HETATM   24  C   UNL     1      -6.931   8.011  69.055  1.00  0.00    -0.058 C  
HETATM   25  O   UNL     1      -6.614   7.136  69.835  1.00  0.00    -0.042 OA 
BRANCH  24  26
HETATM   26  C   UNL     1      -6.780   9.536  69.297  1.00  0.00    -0.049 C  
HETATM   27  C   UNL     1      -5.795  10.286  69.871  1.00  0.00    -0.051 C  
BRANCH  27  28
HETATM   28  C   UNL     1      -5.722  11.817  69.939  1.00  0.00    -0.122 A  
HETATM   29  C   UNL     1      -5.812  12.613  68.792  1.00  0.00    -0.068 A  
HETATM   30  C   UNL     1      -5.517  12.529  71.152  1.00  0.00    -0.092 A  
HETATM   31  C   UNL     1      -5.432  13.959  71.209  1.00  0.00    -0.208 A  
HETATM   32  C   UNL     1      -5.803  14.028  68.832  1.00  0.00    -0.083 A  
HETATM   33  C   UNL     1      -5.593  14.721  70.038  1.00  0.00    -0.114 A  
BRANCH  32  34
HETATM   34  O   UNL     1      -5.966  14.786  67.691  1.00  0.00    -0.271 OA 
HETATM   35  C   UNL     1      -7.323  14.933  67.276  1.00  0.00    -0.140 C  
ENDBRANCH  32  34
BRANCH  33  36
HETATM   36  O   UNL     1      -5.507  16.091  69.911  1.00  0.00    -0.128 OA 
HETATM   37  C   UNL     1      -6.670  16.862  69.635  1.00  0.00    -0.081 C  
ENDBRANCH  33  36
BRANCH  31  38
HETATM   38  O   UNL     1      -5.162  14.674  72.346  1.00  0.00    -0.171 OA 
HETATM   39  C   UNL     1      -5.410  14.113  73.620  1.00  0.00    -0.316 C  
ENDBRANCH  31  38
ENDBRANCH  27  28
ENDBRANCH  24  26
ENDBRANCH  23  24
ENDBRANCH   3  23
BRANCH   5  40
HETATM   40  O   UNL     1      -6.548   5.537  65.109  1.00  0.00    -0.038 OA 
HETATM   41  C   UNL     1      -7.534   4.853  64.367  1.00  0.00    -0.068 C  
ENDBRANCH   5  40
BRANCH   8  42
HETATM   42  C   UNL     1      -8.195   4.968  68.224  1.00  0.00    -0.089 C  
HETATM   43  O   UNL     1      -9.033   4.772  69.075  1.00  0.00    -0.097 OA 
BRANCH  42  44
HETATM   44  O   UNL     1      -6.905   4.485  68.271  1.00  0.00    -0.049 OA 
HETATM   45  C   UNL     1      -6.612   3.087  68.407  1.00  0.00    -0.036 C  
ENDBRANCH  42  44
ENDBRANCH   8  42
BRANCH   6  46
HETATM   46  O   UNL     1     -13.843  14.242  72.378  1.00  0.00    -0.461 OA 
HETATM   47  C   UNL     1     -13.802  15.650  72.457  1.00  0.00    -0.555 C  
ENDBRANCH   6  46
TORSDOF 11
ENDMDL
MODEL       46
REMARK 921   NORMALIZED FREE ENERGY PREDICTED BY IDOCK:   -3.92 KCAL/MOL
REMARK 922        TOTAL FREE ENERGY PREDICTED BY IDOCK:   -8.47 KCAL/MOL
REMARK 923 INTER-LIGAND FREE ENERGY PREDICTED BY IDOCK:   -7.32 KCAL/MOL
REMARK 924 INTRA-LIGAND FREE ENERGY PREDICTED BY IDOCK:   -1.15 KCAL/MOL
REMARK 927      BINDING AFFINITY PREDICTED BY RF-SCORE:    0.00 PKD
ROOT
HETATM    1  C   UNL     1     -12.374  11.871  68.977  1.00  0.00     0.090 C  
HETATM    2  C   UNL     1     -11.864  13.243  69.280  1.00  0.00    -0.383 C  
HETATM    3  C   UNL     1     -10.316  13.347  68.928  1.00  0.00    -0.072 C  
HETATM    4  C   UNL     1      -9.617   4.407  69.501  1.00  0.00    -0.271 A  
HETATM    5  C   UNL     1     -10.510  14.024  67.592  1.00  0.00    -0.245 C  
HETATM    6  C   UNL     1      -9.634   3.482  70.570  1.00  0.00    -0.176 A  
HETATM    7  C   UNL     1     -10.034   3.857  71.849  1.00  0.00    -0.238 A  
HETATM    8  C   UNL     1     -11.150  12.809  66.708  1.00  0.00    -0.314 C  
HETATM    9  C   UNL     1     -11.775  11.407  67.618  1.00  0.00    -0.246 C  
HETATM   10  C   UNL     1     -10.421   5.167  72.104  1.00  0.00    -0.281 A  
HETATM   11  C   UNL     1     -10.415   6.094  71.047  1.00  0.00    -0.281 A  
HETATM   12  H   UNL     1      -9.942   6.860  67.939  1.00  0.00     0.000 HD 
HETATM   13  C   UNL     1     -10.035   5.723  69.762  1.00  0.00    -0.190 A  
HETATM   14  C   UNL     1     -11.249   9.874  67.834  1.00  0.00    -0.108 C  
HETATM   15  N   UNL     1     -10.152   6.844  68.936  1.00  0.00    -0.165 NA 
HETATM   16  C   UNL     1     -10.594   7.921  69.666  1.00  0.00    -0.234 A  
HETATM   17  C   UNL     1     -10.693   7.461  70.987  1.00  0.00    -0.244 A  
HETATM   18  C   UNL     1     -11.019   8.335  72.142  1.00  0.00    -0.396 C  
HETATM   19  C   UNL     1     -10.768   9.410  69.286  1.00  0.00    -0.211 C  
HETATM   20  C   UNL     1     -10.891   9.769  71.692  1.00  0.00     0.189 C  
HETATM   21  C   UNL     1     -12.045  11.243  70.311  1.00  0.00    -0.373 C  
HETATM   22  N   UNL     1     -11.610   9.904  70.385  1.00  0.00    -0.275 NA 
ENDROOT
BRANCH   3  23
HETATM   23  O   UNL     1      -9.528  12.122  68.432  1.00  0.00    -0.208 OA 
BRANCH  23  24
HETATM   24  C   UNL     1      -8.262  11.615  68.424  1.00  0.00    -0.155 C  
HETATM   25  O   UNL     1      -7.342  11.961  69.136  1.00  0.00    -0.077 OA 
BRANCH  24  26
HETATM   26  C   UNL     1      -8.222  10.451  67.398  1.00  0.00    -0.117 C  
HETATM   27  C   UNL     1      -7.496   9.298  67.339  1.00  0.00    -0.087 C  
BRANCH  27  28
HETATM   28  C   UNL     1      -7.644   8.165  66.314  1.00  0.00    -0.090 A  
HETATM   29  C   UNL     1      -6.958   8.178  65.095  1.00  0.00    -0.063 A  
HETATM   30  C   UNL     1      -8.510   7.055  66.506  1.00  0.00    -0.125 A  
HETATM   31  C   UNL     1      -8.658   6.008  65.539  1.00  0.00    -0.143 A  
HETATM   32  C   UNL     1      -7.032   7.120  64.157  1.00  0.00    -0.056 A  
HETATM   33  C   UNL     1      -7.898   6.030  64.356  1.00  0.00    -0.113 A  
BRANCH  32  34
HETATM   34  O   UNL     1      -6.287   7.128  62.996  1.00  0.00    -0.050 OA 
HETATM   35  C   UNL     1      -6.251   8.391  62.334  1.00  0.00    -0.088 C  
ENDBRANCH  32  34
BRANCH  33  36
HETATM   36  O   UNL     1      -7.943   5.128  63.314  1.00  0.00    -0.077 OA 
HETATM   37  C   UNL     1      -7.614   3.762  63.532  1.00  0.00    -0.059 C  
ENDBRANCH  33  36
BRANCH  31  38
HETATM   38  O   UNL     1      -9.536   4.963  65.658  1.00  0.00    -0.163 OA 
HETATM   39  C   UNL     1     -10.912   5.204  65.871  1.00  0.00     0.091 C  
ENDBRANCH  31  38
ENDBRANCH  27  28
ENDBRANCH  24  26
ENDBRANCH  23  24
ENDBRANCH   3  23
BRANCH   5  40
HETATM   40  O   UNL     1     -11.326  15.204  67.746  1.00  0.00    -0.315 OA 
HETATM   41  C   UNL     1     -10.884  16.223  68.617  1.00  0.00    -0.322 C  
ENDBRANCH   5  40
BRANCH   8  42
HETATM   42  C   UNL     1     -10.162  12.647  65.544  1.00  0.00    -0.281 C  
HETATM   43  O   UNL     1      -9.086  13.194  65.459  1.00  0.00     0.360 OA 
BRANCH  42  44
HETATM   44  O   UNL     1     -10.664  11.761  64.615  1.00  0.00    -0.282 OA 
HETATM   45  C   UNL     1      -9.936  10.602  64.186  1.00  0.00    -0.342 C  
ENDBRANCH  42  44
ENDBRANCH   8  42
BRANCH   6  46
HETATM   46  O   UNL     1      -9.278   2.160  70.484  1.00  0.00    -0.096 OA 
HETATM   47  C   UNL     1      -7.898   1.868  70.525  1.00  0.00    -0.042 C  
ENDBRANCH   6  46
TORSDOF 11
ENDMDL
MODEL       47
REMARK 921   NORMALIZED FREE ENERGY PREDICTED BY IDOCK:   -3.90 KCAL/MOL
REMARK 922        TOTAL FREE ENERGY PREDICTED BY IDOCK:   -8.45 KCAL/MOL
REMARK 923 INTER-LIGAND FREE ENERGY PREDICTED BY IDOCK:   -7.63 KCAL/MOL
REMARK 924 INTRA-LIGAND FREE ENERGY PREDICTED BY IDOCK:   -0.82 KCAL/MOL
REMARK 927      BINDING AFFINITY PREDICTED BY RF-SCORE:    0.00 PKD
ROOT
HETATM    1  C   UNL     1     -11.344  10.603  67.917  1.00  0.00    -0.342 C  
HETATM    2  C   UNL     1     -11.144   9.369  67.098  1.00  0.00     0.218 C  
HETATM    3  C   UNL     1      -9.645   9.295  66.570  1.00  0.00    -0.224 C  
HETATM    4  C   UNL     1      -8.826  18.167  67.730  1.00  0.00    -0.259 A  
HETATM    5  C   UNL     1      -9.161   8.328  67.624  1.00  0.00    -0.131 C  
HETATM    6  C   UNL     1      -9.338  19.302  67.060  1.00  0.00    -0.318 A  
HETATM    7  C   UNL     1     -10.361  19.192  66.124  1.00  0.00    -0.561 A  
HETATM    8  C   UNL     1      -9.182   9.272  68.957  1.00  0.00    -0.144 C  
HETATM    9  C   UNL     1     -10.104  10.796  68.837  1.00  0.00    -0.217 C  
HETATM   10  C   UNL     1     -10.899  17.947  65.818  1.00  0.00     0.047 A  
HETATM   11  C   UNL     1     -10.403  16.812  66.484  1.00  0.00    -0.301 A  
HETATM   12  H   UNL     1      -8.440  15.414  68.644  1.00  0.00     0.000 HD 
HETATM   13  C   UNL     1      -9.394  16.916  67.435  1.00  0.00    -0.235 A  
HETATM   14  C   UNL     1      -9.678  12.369  68.730  1.00  0.00     0.031 C  
HETATM   15  N   UNL     1      -9.133  15.635  67.930  1.00  0.00    -0.184 NA 
HETATM   16  C   UNL     1      -9.950  14.719  67.312  1.00  0.00    -0.231 A  
HETATM   17  C   UNL     1     -10.689  15.450  66.371  1.00  0.00    -0.311 A  
HETATM   18  C   UNL     1     -11.613  14.833  65.388  1.00  0.00    -0.316 C  
HETATM   19  C   UNL     1      -9.988  13.174  67.384  1.00  0.00    -0.229 C  
HETATM   20  C   UNL     1     -11.354  13.347  65.374  1.00  0.00    -0.291 C  
HETATM   21  C   UNL     1     -11.714  11.530  66.783  1.00  0.00     0.095 C  
HETATM   22  N   UNL     1     -11.303  12.879  66.797  1.00  0.00    -0.305 NA 
ENDROOT
BRANCH   3  23
HETATM   23  O   UNL     1      -8.645  10.430  66.848  1.00  0.00    -0.126 OA 
BRANCH  23  24
HETATM   24  C   UNL     1      -7.466  10.935  66.384  1.00  0.00    -0.145 C  
HETATM   25  O   UNL     1      -6.817  10.509  65.451  1.00  0.00    -0.134 OA 
BRANCH  24  26
HETATM   26  C   UNL     1      -7.137  12.209  67.206  1.00  0.00    -0.144 C  
HETATM   27  C   UNL     1      -6.000  12.642  67.823  1.00  0.00    -0.126 C  
BRANCH  27  28
HETATM   28  C   UNL     1      -5.780  13.995  68.511  1.00  0.00    -0.094 A  
HETATM   29  C   UNL     1      -5.677  15.186  67.783  1.00  0.00    -0.119 A  
HETATM   30  C   UNL     1      -5.624  14.133  69.917  1.00  0.00    -0.105 A  
HETATM   31  C   UNL     1      -5.401  15.398  70.554  1.00  0.00    -0.140 A  
HETATM   32  C   UNL     1      -5.530  16.454  68.395  1.00  0.00    -0.103 A  
HETATM   33  C   UNL     1      -5.370  16.577  69.787  1.00  0.00    -0.157 A  
BRANCH  32  34
HETATM   34  O   UNL     1      -5.504  17.617  67.654  1.00  0.00    -0.129 OA 
HETATM   35  C   UNL     1      -5.779  17.432  66.267  1.00  0.00    -0.186 C  
ENDBRANCH  32  34
BRANCH  33  36
HETATM   36  O   UNL     1      -5.134  17.860  70.232  1.00  0.00    -0.200 OA 
HETATM   37  C   UNL     1      -5.528  18.249  71.542  1.00  0.00     0.070 C  
ENDBRANCH  33  36
BRANCH  31  38
HETATM   38  O   UNL     1      -5.173  15.559  71.895  1.00  0.00    -0.078 OA 
HETATM   39  C   UNL     1      -5.331  14.472  72.784  1.00  0.00    -0.121 C  
ENDBRANCH  31  38
ENDBRANCH  27  28
ENDBRANCH  24  26
ENDBRANCH  23  24
ENDBRANCH   3  23
BRANCH   5  40
HETATM   40  O   UNL     1     -10.006   7.159  67.654  1.00  0.00    -0.143 OA 
HETATM   41  C   UNL     1      -9.623   6.028  66.900  1.00  0.00    -0.140 C  
ENDBRANCH   5  40
BRANCH   8  42
HETATM   42  C   UNL     1      -7.728   9.240  69.448  1.00  0.00    -0.082 C  
HETATM   43  O   UNL     1      -6.774   8.895  68.788  1.00  0.00    -0.053 OA 
BRANCH  42  44
HETATM   44  O   UNL     1      -7.657   9.689  70.749  1.00  0.00    -0.271 OA 
HETATM   45  C   UNL     1      -7.263   8.840  71.836  1.00  0.00    -0.018 C  
ENDBRANCH  42  44
ENDBRANCH   8  42
BRANCH   6  46
HETATM   46  O   UNL     1      -8.913  20.593  67.243  1.00  0.00    -0.350 OA 
HETATM   47  C   UNL     1      -7.519  20.812  67.229  1.00  0.00    -0.328 C  
ENDBRANCH   6  46
TORSDOF 11
ENDMDL
MODEL       48
REMARK 921   NORMALIZED FREE ENERGY PREDICTED BY IDOCK:   -3.88 KCAL/MOL
REMARK 922        TOTAL FREE ENERGY PREDICTED BY IDOCK:   -8.41 KCAL/MOL
REMARK 923 INTER-LIGAND FREE ENERGY PREDICTED BY IDOCK:   -7.96 KCAL/MOL
REMARK 924 INTRA-LIGAND FREE ENERGY PREDICTED BY IDOCK:   -0.45 KCAL/MOL
REMARK 927      BINDING AFFINITY PREDICTED BY RF-SCORE:    0.00 PKD
ROOT
HETATM    1  C   UNL     1      -6.365   8.392  66.944  1.00  0.00    -0.056 C  
HETATM    2  C   UNL     1      -7.488   7.407  66.927  1.00  0.00    -0.097 C  
HETATM    3  C   UNL     1      -8.748   8.020  66.173  1.00  0.00    -0.154 C  
HETATM    4  C   UNL     1      -5.585  16.294  67.681  1.00  0.00    -0.167 A  
HETATM    5  C   UNL     1      -8.494   7.322  64.859  1.00  0.00     0.068 C  
HETATM    6  C   UNL     1      -5.474  17.115  68.826  1.00  0.00    -0.139 A  
HETATM    7  C   UNL     1      -5.669  16.606  70.106  1.00  0.00    -0.203 A  
HETATM    8  C   UNL     1      -7.160   8.104  64.335  1.00  0.00    -0.078 C  
HETATM    9  C   UNL     1      -6.277   9.072  65.547  1.00  0.00    -0.063 C  
HETATM   10  C   UNL     1      -5.990  15.266  70.284  1.00  0.00    -0.130 A  
HETATM   11  C   UNL     1      -6.095  14.438  69.152  1.00  0.00    -0.094 A  
HETATM   12  H   UNL     1      -5.933  13.955  65.957  1.00  0.00     0.000 HD 
HETATM   13  C   UNL     1      -5.883  14.934  67.871  1.00  0.00    -0.136 A  
HETATM   14  C   UNL     1      -6.114  10.676  65.812  1.00  0.00    -0.134 C  
HETATM   15  N   UNL     1      -6.036  13.879  66.968  1.00  0.00     0.275 NA 
HETATM   16  C   UNL     1      -6.344  12.723  67.645  1.00  0.00    -0.153 A  
HETATM   17  C   UNL     1      -6.441  13.094  68.993  1.00  0.00    -0.103 A  
HETATM   18  C   UNL     1      -6.883  12.175  70.072  1.00  0.00     0.463 C  
HETATM   19  C   UNL     1      -6.740  11.317  67.136  1.00  0.00    -0.113 C  
HETATM   20  C   UNL     1      -7.491  10.956  69.425  1.00  0.00    -0.104 C  
HETATM   21  C   UNL     1      -6.756   9.109  68.216  1.00  0.00    -0.060 C  
HETATM   22  N   UNL     1      -6.559  10.499  68.344  1.00  0.00    -0.055 NA 
ENDROOT
BRANCH   3  23
HETATM   23  O   UNL     1      -8.737   9.467  65.650  1.00  0.00    -0.136 OA 
BRANCH  23  24
HETATM   24  C   UNL     1      -9.593  10.450  65.249  1.00  0.00    -0.259 C  
HETATM   25  O   UNL     1      -9.723  10.877  64.119  1.00  0.00    -0.244 OA 
BRANCH  24  26
HETATM   26  C   UNL     1     -10.440  10.874  66.478  1.00  0.00    -0.308 C  
HETATM   27  C   UNL     1     -10.215  10.805  67.822  1.00  0.00    -0.212 C  
BRANCH  27  28
HETATM   28  C   UNL     1     -11.100  11.376  68.937  1.00  0.00    -0.290 A  
HETATM   29  C   UNL     1     -11.696  10.555  69.901  1.00  0.00    -0.372 A  
HETATM   30  C   UNL     1     -11.412  12.758  69.047  1.00  0.00    -0.360 A  
HETATM   31  C   UNL     1     -12.254  13.285  70.081  1.00  0.00    -0.306 A  
HETATM   32  C   UNL     1     -12.471  11.060  70.972  1.00  0.00    -0.409 A  
HETATM   33  C   UNL     1     -12.778  12.429  71.067  1.00  0.00    -0.223 A  
BRANCH  32  34
HETATM   34  O   UNL     1     -12.985  10.231  71.948  1.00  0.00    -0.427 OA 
HETATM   35  C   UNL     1     -12.901   8.842  71.638  1.00  0.00    -0.348 C  
ENDBRANCH  32  34
BRANCH  33  36
HETATM   36  O   UNL     1     -13.625  12.763  72.102  1.00  0.00    -0.521 OA 
HETATM   37  C   UNL     1     -13.577  14.062  72.679  1.00  0.00    -0.517 C  
ENDBRANCH  33  36
BRANCH  31  38
HETATM   38  O   UNL     1     -12.635  14.597  70.175  1.00  0.00    -0.335 OA 
HETATM   39  C   UNL     1     -11.835  15.618  69.612  1.00  0.00    -0.362 C  
ENDBRANCH  31  38
ENDBRANCH  27  28
ENDBRANCH  24  26
ENDBRANCH  23  24
ENDBRANCH   3  23
BRANCH   5  40
HETATM   40  O   UNL     1      -8.362   5.900  65.068  1.00  0.00    -0.138 OA 
HETATM   41  C   UNL     1      -8.803   5.024  64.053  1.00  0.00    -0.039 C  
ENDBRANCH   5  40
BRANCH   8  42
HETATM   42  C   UNL     1      -7.591   8.693  62.984  1.00  0.00    -0.111 C  
HETATM   43  O   UNL     1      -8.710   8.644  62.525  1.00  0.00    -0.182 OA 
BRANCH  42  44
HETATM   44  O   UNL     1      -6.524   9.317  62.375  1.00  0.00    -0.095 OA 
HETATM   45  C   UNL     1      -6.181  10.685  62.636  1.00  0.00    -0.104 C  
ENDBRANCH  42  44
ENDBRANCH   8  42
BRANCH   6  46
HETATM   46  O   UNL     1      -5.172  18.453  68.819  1.00  0.00    -0.177 OA 
HETATM   47  C   UNL     1      -5.942  19.285  69.660  1.00  0.00    -0.259 C  
ENDBRANCH   6  46
TORSDOF 11
ENDMDL
MODEL       49
REMARK 921   NORMALIZED FREE ENERGY PREDICTED BY IDOCK:   -3.80 KCAL/MOL
REMARK 922        TOTAL FREE ENERGY PREDICTED BY IDOCK:   -8.28 KCAL/MOL
REMARK 923 INTER-LIGAND FREE ENERGY PREDICTED BY IDOCK:   -8.06 KCAL/MOL
REMARK 924 INTRA-LIGAND FREE ENERGY PREDICTED BY IDOCK:   -0.21 KCAL/MOL
REMARK 927      BINDING AFFINITY PREDICTED BY RF-SCORE:    0.00 PKD
ROOT
HETATM    1  C   UNL     1      -9.802  10.192  64.777  1.00  0.00    -0.382 C  
HETATM    2  C   UNL     1      -8.465  10.029  64.129  1.00  0.00    -0.179 C  
HETATM    3  C   UNL     1      -7.359   9.690  65.222  1.00  0.00    -0.113 C  
HETATM    4  C   UNL     1     -12.618  13.229  71.591  1.00  0.00    -0.254 A  
HETATM    5  C   UNL     1      -7.346   8.202  64.968  1.00  0.00    -0.082 C  
HETATM    6  C   UNL     1     -13.005  14.545  71.933  1.00  0.00    -0.341 A  
HETATM    7  C   UNL     1     -12.764  15.618  71.080  1.00  0.00    -0.517 A  
HETATM    8  C   UNL     1      -8.802   7.763  65.566  1.00  0.00    -0.048 C  
HETATM    9  C   UNL     1      -9.975   9.078  65.849  1.00  0.00    -0.169 C  
HETATM   10  C   UNL     1     -12.124  15.414  69.864  1.00  0.00    -0.382 A  
HETATM   11  C   UNL     1     -11.741  14.108  69.509  1.00  0.00    -0.364 A  
HETATM   12  H   UNL     1     -11.579  10.931  70.106  1.00  0.00     0.000 HD 
HETATM   13  C   UNL     1     -11.994  13.028  70.348  1.00  0.00    -0.258 A  
HETATM   14  C   UNL     1     -10.558   9.802  67.192  1.00  0.00    -0.298 C  
HETATM   15  N   UNL     1     -11.522  11.873  69.719  1.00  0.00    -0.262 NA 
HETATM   16  C   UNL     1     -10.971  12.194  68.502  1.00  0.00    -0.238 A  
HETATM   17  C   UNL     1     -11.054  13.590  68.409  1.00  0.00    -0.298 A  
HETATM   18  C   UNL     1     -10.460  14.381  67.303  1.00  0.00    -0.269 C  
HETATM   19  C   UNL     1     -10.199  11.334  67.473  1.00  0.00    -0.189 C  
HETATM   20  C   UNL     1      -9.521  13.480  66.539  1.00  0.00    -0.256 C  
HETATM   21  C   UNL     1      -9.685  11.665  65.092  1.00  0.00    -0.219 C  
HETATM   22  N   UNL     1     -10.238  12.190  66.278  1.00  0.00    -0.219 NA 
ENDROOT
BRANCH   3  23
HETATM   23  O   UNL     1      -7.708   9.646  66.720  1.00  0.00    -0.097 OA 
BRANCH  23  24
HETATM   24  C   UNL     1      -7.328  10.198  67.908  1.00  0.00    -0.087 C  
HETATM   25  O   UNL     1      -7.017  11.356  68.099  1.00  0.00    -0.065 OA 
BRANCH  24  26
HETATM   26  C   UNL     1      -7.445   9.102  69.001  1.00  0.00    -0.074 C  
HETATM   27  C   UNL     1      -6.707   7.987  69.272  1.00  0.00    -0.040 C  
BRANCH  27  28
HETATM   28  C   UNL     1      -6.867   7.042  70.470  1.00  0.00    -0.057 A  
HETATM   29  C   UNL     1      -7.720   7.342  71.538  1.00  0.00    -0.086 A  
HETATM   30  C   UNL     1      -6.139   5.829  70.603  1.00  0.00    -0.030 A  
HETATM   31  C   UNL     1      -6.279   4.959  71.733  1.00  0.00    -0.029 A  
HETATM   32  C   UNL     1      -7.928   6.464  72.629  1.00  0.00    -0.104 A  
HETATM   33  C   UNL     1      -7.197   5.269  72.752  1.00  0.00    -0.090 A  
BRANCH  32  34
HETATM   34  O   UNL     1      -8.830   6.756  73.632  1.00  0.00    -0.128 OA 
HETATM   35  C   UNL     1      -9.896   7.613  73.227  1.00  0.00    -0.301 C  
ENDBRANCH  32  34
BRANCH  33  36
HETATM   36  O   UNL     1      -7.429   4.565  73.915  1.00  0.00    -0.078 OA 
HETATM   37  C   UNL     1      -6.434   3.694  74.437  1.00  0.00    -0.038 C  
ENDBRANCH  33  36
BRANCH  31  38
HETATM   38  O   UNL     1      -5.541   3.821  71.929  1.00  0.00    -0.007 OA 
HETATM   39  C   UNL     1      -5.978   2.584  71.402  1.00  0.00    -0.014 C  
ENDBRANCH  31  38
ENDBRANCH  27  28
ENDBRANCH  24  26
ENDBRANCH  23  24
ENDBRANCH   3  23
BRANCH   5  40
HETATM   40  O   UNL     1      -7.123   7.938  63.567  1.00  0.00    -0.073 OA 
HETATM   41  C   UNL     1      -7.788   6.844  62.971  1.00  0.00    -0.108 C  
ENDBRANCH   5  40
BRANCH   8  42
HETATM   42  C   UNL     1      -8.453   6.738  66.655  1.00  0.00    -0.120 C  
HETATM   43  O   UNL     1      -9.083   6.556  67.672  1.00  0.00    -0.115 OA 
BRANCH  42  44
HETATM   44  O   UNL     1      -7.328   6.027  66.294  1.00  0.00    -0.078 OA 
HETATM   45  C   UNL     1      -7.209   4.614  66.511  1.00  0.00    -0.080 C  
ENDBRANCH  42  44
ENDBRANCH   8  42
BRANCH   6  46
HETATM   46  O   UNL     1     -13.637  14.912  73.094  1.00  0.00    -0.520 OA 
HETATM   47  C   UNL     1     -13.039  15.944  73.847  1.00  0.00    -0.306 C  
ENDBRANCH   6  46
TORSDOF 11
ENDMDL
MODEL       50
REMARK 921   NORMALIZED FREE ENERGY PREDICTED BY IDOCK:   -3.73 KCAL/MOL
REMARK 922        TOTAL FREE ENERGY PREDICTED BY IDOCK:   -8.16 KCAL/MOL
REMARK 923 INTER-LIGAND FREE ENERGY PREDICTED BY IDOCK:   -7.27 KCAL/MOL
REMARK 924 INTRA-LIGAND FREE ENERGY PREDICTED BY IDOCK:   -0.90 KCAL/MOL
REMARK 927      BINDING AFFINITY PREDICTED BY RF-SCORE:    0.00 PKD
ROOT
HETATM    1  C   UNL     1      -9.522  14.065  68.290  1.00  0.00    -0.216 C  
HETATM    2  C   UNL     1      -8.842  14.638  67.089  1.00  0.00    -0.238 C  
HETATM    3  C   UNL     1      -9.166  13.761  65.801  1.00  0.00     0.310 C  
HETATM    4  C   UNL     1     -11.200   6.791  71.094  1.00  0.00    -0.327 A  
HETATM    5  C   UNL     1     -10.248  14.670  65.268  1.00  0.00    -0.391 C  
HETATM    6  C   UNL     1     -10.443   5.905  71.894  1.00  0.00    -0.220 A  
HETATM    7  C   UNL     1      -9.106   6.155  72.189  1.00  0.00    -0.141 A  
HETATM    8  C   UNL     1     -11.437  14.425  66.360  1.00  0.00    -0.365 C  
HETATM    9  C   UNL     1     -10.963  13.637  67.889  1.00  0.00    -0.277 C  
HETATM   10  C   UNL     1      -8.479   7.289  71.687  1.00  0.00    -0.114 A  
HETATM   11  C   UNL     1      -9.225   8.182  70.897  1.00  0.00    -0.171 A  
HETATM   12  H   UNL     1     -11.986   9.105  69.483  1.00  0.00     0.000 HD 
HETATM   13  C   UNL     1     -10.566   7.950  70.614  1.00  0.00    -0.219 A  
HETATM   14  C   UNL     1     -11.204  12.147  68.515  1.00  0.00    -0.307 C  
HETATM   15  N   UNL     1     -11.033   9.011  69.834  1.00  0.00    -0.223 NA 
HETATM   16  C   UNL     1     -10.019   9.911  69.610  1.00  0.00    -0.231 A  
HETATM   17  C   UNL     1      -8.885   9.356  70.220  1.00  0.00    -0.269 A  
HETATM   18  C   UNL     1      -7.524   9.938  70.118  1.00  0.00    -0.178 C  
HETATM   19  C   UNL     1      -9.952  11.174  68.719  1.00  0.00    -0.198 C  
HETATM   20  C   UNL     1      -7.543  10.977  69.023  1.00  0.00    -0.134 C  
HETATM   21  C   UNL     1      -8.428  13.102  68.690  1.00  0.00     0.029 C  
HETATM   22  N   UNL     1      -8.748  11.841  69.235  1.00  0.00     0.436 NA 
ENDROOT
BRANCH   3  23
HETATM   23  O   UNL     1     -10.002  12.474  65.903  1.00  0.00    -0.253 OA 
BRANCH  23  24
HETATM   24  C   UNL     1     -10.363  11.388  65.161  1.00  0.00    -0.290 C  
HETATM   25  O   UNL     1     -11.281  11.329  64.369  1.00  0.00    -0.271 OA 
BRANCH  24  26
HETATM   26  C   UNL     1      -9.336  10.259  65.440  1.00  0.00    -0.258 C  
HETATM   27  C   UNL     1      -9.478   8.944  65.775  1.00  0.00    -0.272 C  
BRANCH  27  28
HETATM   28  C   UNL     1      -8.363   7.899  65.909  1.00  0.00    -0.134 A  
HETATM   29  C   UNL     1      -7.331   8.036  66.843  1.00  0.00    -0.090 A  
HETATM   30  C   UNL     1      -8.273   6.751  65.076  1.00  0.00    -0.096 A  
HETATM   31  C   UNL     1      -7.220   5.786  65.193  1.00  0.00    -0.070 A  
HETATM   32  C   UNL     1      -6.321   7.060  67.026  1.00  0.00    -0.048 A  
HETATM   33  C   UNL     1      -6.239   5.932  66.191  1.00  0.00    -0.040 A  
BRANCH  32  34
HETATM   34  O   UNL     1      -5.357   7.189  68.005  1.00  0.00    -0.018 OA 
HETATM   35  C   UNL     1      -5.871   7.168  69.335  1.00  0.00    -0.026 C  
ENDBRANCH  32  34
BRANCH  33  36
HETATM   36  O   UNL     1      -5.147   5.121  66.417  1.00  0.00    -0.007 OA 
HETATM   37  C   UNL     1      -5.324   3.801  66.916  1.00  0.00    -0.013 C  
ENDBRANCH  33  36
BRANCH  31  38
HETATM   38  O   UNL     1      -7.061   4.709  64.361  1.00  0.00    -0.049 OA 
HETATM   39  C   UNL     1      -7.474   4.780  63.011  1.00  0.00    -0.053 C  
ENDBRANCH  31  38
ENDBRANCH  27  28
ENDBRANCH  24  26
ENDBRANCH  23  24
ENDBRANCH   3  23
BRANCH   5  40
HETATM   40  O   UNL     1      -9.752  16.020  65.153  1.00  0.00    -0.345 OA 
HETATM   41  C   UNL     1     -10.309  17.018  65.982  1.00  0.00    -0.315 C  
ENDBRANCH   5  40
BRANCH   8  42
HETATM   42  C   UNL     1     -12.609  13.912  65.511  1.00  0.00    -0.526 C  
HETATM   43  O   UNL     1     -13.534  13.249  65.924  1.00  0.00     0.075 OA 
BRANCH  42  44
HETATM   44  O   UNL     1     -12.475  14.339  64.208  1.00  0.00    -0.657 OA 
HETATM   45  C   UNL     1     -12.627  13.456  63.089  1.00  0.00     0.277 C  
ENDBRANCH  42  44
ENDBRANCH   8  42
BRANCH   6  46
HETATM   46  O   UNL     1     -10.910   4.744  72.456  1.00  0.00    -0.201 OA 
HETATM   47  C   UNL     1     -10.066   4.102  73.387  1.00  0.00    -0.139 C  
ENDBRANCH   6  46
TORSDOF 11
ENDMDL
MODEL       51
REMARK 921   NORMALIZED FREE ENERGY PREDICTED BY IDOCK:   -3.71 KCAL/MOL
REMARK 922        TOTAL FREE ENERGY PREDICTED BY IDOCK:   -8.14 KCAL/MOL
REMARK 923 INTER-LIGAND FREE ENERGY PREDICTED BY IDOCK:   -7.34 KCAL/MOL
REMARK 924 INTRA-LIGAND FREE ENERGY PREDICTED BY IDOCK:   -0.80 KCAL/MOL
REMARK 927      BINDING AFFINITY PREDICTED BY RF-SCORE:    0.00 PKD
ROOT
HETATM    1  C   UNL     1      -7.264  10.480  67.145  1.00  0.00    -0.092 C  
HETATM    2  C   UNL     1      -7.916   9.240  67.666  1.00  0.00    -0.103 C  
HETATM    3  C   UNL     1      -9.358   9.576  68.247  1.00  0.00    -0.133 C  
HETATM    4  C   UNL     1      -6.930  18.172  69.222  1.00  0.00    -0.161 A  
HETATM    5  C   UNL     1     -10.122   9.121  67.026  1.00  0.00    -0.249 C  
HETATM    6  C   UNL     1      -6.068  18.860  70.106  1.00  0.00    -0.135 A  
HETATM    7  C   UNL     1      -5.180  18.178  70.932  1.00  0.00    -0.275 A  
HETATM    8  C   UNL     1      -9.726  10.284  65.950  1.00  0.00    -0.283 C  
HETATM    9  C   UNL     1      -8.326  11.309  66.366  1.00  0.00    -0.159 C  
HETATM   10  C   UNL     1      -5.130  16.790  70.910  1.00  0.00    -0.206 A  
HETATM   11  C   UNL     1      -5.977  16.095  70.028  1.00  0.00    -0.164 A  
HETATM   12  H   UNL     1      -8.243  16.031  67.719  1.00  0.00     0.000 HD 
HETATM   13  C   UNL     1      -6.854  16.769  69.186  1.00  0.00    -0.227 A  
HETATM   14  C   UNL     1      -8.167  12.859  66.859  1.00  0.00    -0.012 C  
HETATM   15  N   UNL     1      -7.538  15.819  68.424  1.00  0.00    -0.126 NA 
HETATM   16  C   UNL     1      -7.120  14.555  68.765  1.00  0.00    -0.112 A  
HETATM   17  C   UNL     1      -6.198  14.734  69.806  1.00  0.00    -0.144 A  
HETATM   18  C   UNL     1      -5.584  13.616  70.566  1.00  0.00    -0.155 C  
HETATM   19  C   UNL     1      -7.632  13.160  68.335  1.00  0.00    -0.133 C  
HETATM   20  C   UNL     1      -6.356  12.359  70.249  1.00  0.00     0.145 C  
HETATM   21  C   UNL     1      -6.623  10.921  68.440  1.00  0.00    -0.058 C  
HETATM   22  N   UNL     1      -6.526  12.290  68.762  1.00  0.00    -0.076 NA 
ENDROOT
BRANCH   3  23
HETATM   23  O   UNL     1      -9.880  11.023  68.296  1.00  0.00    -0.166 OA 
BRANCH  23  24
HETATM   24  C   UNL     1     -10.762  11.803  68.984  1.00  0.00    -0.169 C  
HETATM   25  O   UNL     1     -11.325  11.514  70.019  1.00  0.00    -0.244 OA 
BRANCH  24  26
HETATM   26  C   UNL     1     -10.857  13.170  68.254  1.00  0.00    -0.274 C  
HETATM   27  C   UNL     1     -10.925  14.455  68.707  1.00  0.00    -0.264 C  
BRANCH  27  28
HETATM   28  C   UNL     1     -10.897  15.735  67.862  1.00  0.00    -0.314 A  
HETATM   29  C   UNL     1     -11.048  15.705  66.471  1.00  0.00    -0.135 A  
HETATM   30  C   UNL     1     -10.677  17.024  68.416  1.00  0.00    -0.361 A  
HETATM   31  C   UNL     1     -10.635  18.216  67.621  1.00  0.00    -0.406 A  
HETATM   32  C   UNL     1     -11.082  16.874  65.674  1.00  0.00     0.178 A  
HETATM   33  C   UNL     1     -10.857  18.144  66.233  1.00  0.00     0.047 A  
BRANCH  32  34
HETATM   34  O   UNL     1     -11.304  16.817  64.313  1.00  0.00    -1.170 OA 
HETATM   35  C   UNL     1     -11.722  15.537  63.843  1.00  0.00     0.277 C  
ENDBRANCH  32  34
BRANCH  33  36
HETATM   36  O   UNL     1     -10.817  19.180  65.324  1.00  0.00    -0.528 OA 
HETATM   37  C   UNL     1      -9.769  20.140  65.375  1.00  0.00     0.365 C  
ENDBRANCH  33  36
BRANCH  31  38
HETATM   38  O   UNL     1     -10.352  19.464  68.110  1.00  0.00    -0.408 OA 
HETATM   39  C   UNL     1     -10.214  19.673  69.501  1.00  0.00     0.085 C  
ENDBRANCH  31  38
ENDBRANCH  27  28
ENDBRANCH  24  26
ENDBRANCH  23  24
ENDBRANCH   3  23
BRANCH   5  40
HETATM   40  O   UNL     1      -9.748   7.772  66.679  1.00  0.00    -0.204 OA 
HETATM   41  C   UNL     1     -10.758   6.789  66.599  1.00  0.00    -0.117 C  
ENDBRANCH   5  40
BRANCH   8  42
HETATM   42  C   UNL     1     -11.081  10.883  65.547  1.00  0.00     0.146 C  
HETATM   43  O   UNL     1     -12.034  11.013  66.281  1.00  0.00     0.325 OA 
BRANCH  42  44
HETATM   44  O   UNL     1     -11.049  11.284  64.228  1.00  0.00    -0.333 OA 
HETATM   45  C   UNL     1      -9.993  10.907  63.335  1.00  0.00    -0.361 C  
ENDBRANCH  42  44
ENDBRANCH   8  42
BRANCH   6  46
HETATM   46  O   UNL     1      -6.000  20.222  70.252  1.00  0.00    -0.331 OA 
HETATM   47  C   UNL     1      -5.603  20.709  71.515  1.00  0.00    -0.114 C  
ENDBRANCH   6  46
TORSDOF 11
ENDMDL
MODEL       52
REMARK 921   NORMALIZED FREE ENERGY PREDICTED BY IDOCK:   -3.66 KCAL/MOL
REMARK 922        TOTAL FREE ENERGY PREDICTED BY IDOCK:   -8.06 KCAL/MOL
REMARK 923 INTER-LIGAND FREE ENERGY PREDICTED BY IDOCK:   -7.13 KCAL/MOL
REMARK 924 INTRA-LIGAND FREE ENERGY PREDICTED BY IDOCK:   -0.92 KCAL/MOL
REMARK 927      BINDING AFFINITY PREDICTED BY RF-SCORE:    0.00 PKD
ROOT
HETATM    1  C   UNL     1      -7.901   6.872  67.351  1.00  0.00    -0.111 C  
HETATM    2  C   UNL     1      -7.370   5.727  68.150  1.00  0.00    -0.077 C  
HETATM    3  C   UNL     1      -7.694   5.933  69.694  1.00  0.00    -0.096 C  
HETATM    4  C   UNL     1      -8.632  14.757  68.287  1.00  0.00    -0.164 A  
HETATM    5  C   UNL     1      -8.897   5.021  69.720  1.00  0.00    -0.098 C  
HETATM    6  C   UNL     1      -7.734  15.814  68.011  1.00  0.00    -0.129 A  
HETATM    7  C   UNL     1      -6.412  15.569  67.654  1.00  0.00    -0.194 A  
HETATM    8  C   UNL     1      -9.975   5.891  68.855  1.00  0.00    -0.201 C  
HETATM    9  C   UNL     1      -9.316   7.236  67.885  1.00  0.00    -0.131 C  
HETATM   10  C   UNL     1      -5.940  14.265  67.569  1.00  0.00     0.083 A  
HETATM   11  C   UNL     1      -6.827  13.205  67.834  1.00  0.00    -0.135 A  
HETATM   12  H   UNL     1      -9.760  12.076  68.604  1.00  0.00     0.000 HD 
HETATM   13  C   UNL     1      -8.154  13.441  68.173  1.00  0.00    -0.155 A  
HETATM   14  C   UNL     1      -9.360   8.863  68.033  1.00  0.00    -0.153 C  
HETATM   15  N   UNL     1      -8.780  12.204  68.353  1.00  0.00    -0.168 NA 
HETATM   16  C   UNL     1      -7.880  11.188  68.140  1.00  0.00    -0.118 A  
HETATM   17  C   UNL     1      -6.656  11.820  67.882  1.00  0.00    -0.068 A  
HETATM   18  C   UNL     1      -5.372  11.095  67.717  1.00  0.00    -0.040 C  
HETATM   19  C   UNL     1      -8.006   9.658  68.332  1.00  0.00    -0.096 C  
HETATM   20  C   UNL     1      -5.573   9.677  68.192  1.00  0.00    -0.040 C  
HETATM   21  C   UNL     1      -6.690   7.769  67.470  1.00  0.00    -0.068 C  
HETATM   22  N   UNL     1      -6.842   9.166  67.580  1.00  0.00    -0.076 NA 
ENDROOT
BRANCH   3  23
HETATM   23  O   UNL     1      -8.386   7.211  70.199  1.00  0.00    -0.133 OA 
BRANCH  23  24
HETATM   24  C   UNL     1      -8.644   7.884  71.357  1.00  0.00    -0.123 C  
HETATM   25  O   UNL     1      -8.230   7.601  72.463  1.00  0.00    -0.105 OA 
BRANCH  24  26
HETATM   26  C   UNL     1      -9.493   9.133  71.002  1.00  0.00    -0.344 C  
HETATM   27  C   UNL     1     -10.831   9.390  71.073  1.00  0.00    -0.406 C  
BRANCH  27  28
HETATM   28  C   UNL     1     -11.531  10.727  70.796  1.00  0.00    -0.216 A  
HETATM   29  C   UNL     1     -11.365  11.411  69.587  1.00  0.00    -0.347 A  
HETATM   30  C   UNL     1     -12.355  11.382  71.750  1.00  0.00     0.089 A  
HETATM   31  C   UNL     1     -12.993  12.639  71.493  1.00  0.00    -0.282 A  
HETATM   32  C   UNL     1     -12.042  12.617  69.283  1.00  0.00    -0.166 A  
HETATM   33  C   UNL     1     -12.850  13.258  70.238  1.00  0.00     0.153 A  
BRANCH  32  34
HETATM   34  O   UNL     1     -11.914  13.230  68.054  1.00  0.00    -0.350 OA 
HETATM   35  C   UNL     1     -11.831  12.324  66.955  1.00  0.00    -0.259 C  
ENDBRANCH  32  34
BRANCH  33  36
HETATM   36  O   UNL     1     -13.363  14.475  69.841  1.00  0.00     0.340 OA 
HETATM   37  C   UNL     1     -12.593  15.661  69.988  1.00  0.00    -0.146 C  
ENDBRANCH  33  36
BRANCH  31  38
HETATM   38  O   UNL     1     -13.733  13.334  72.414  1.00  0.00    -0.577 OA 
HETATM   39  C   UNL     1     -13.151  14.390  73.151  1.00  0.00    -0.385 C  
ENDBRANCH  31  38
ENDBRANCH  27  28
ENDBRANCH  24  26
ENDBRANCH  23  24
ENDBRANCH   3  23
BRANCH   5  40
HETATM   40  O   UNL     1      -8.550   3.724  69.192  1.00  0.00    -0.074 OA 
HETATM   41  C   UNL     1      -9.240   2.590  69.674  1.00  0.00    -0.125 C  
ENDBRANCH   5  40
BRANCH   8  42
HETATM   42  C   UNL     1     -11.147   6.088  69.828  1.00  0.00    -0.406 C  
HETATM   43  O   UNL     1     -12.161   6.702  69.585  1.00  0.00    -0.085 OA 
BRANCH  42  44
HETATM   44  O   UNL     1     -10.892   5.437  71.016  1.00  0.00    -0.215 OA 
HETATM   45  C   UNL     1     -11.508   5.823  72.252  1.00  0.00    -0.262 C  
ENDBRANCH  42  44
ENDBRANCH   8  42
BRANCH   6  46
HETATM   46  O   UNL     1      -8.040  17.150  68.056  1.00  0.00    -0.199 OA 
HETATM   47  C   UNL     1      -7.155  17.983  68.773  1.00  0.00    -0.276 C  
ENDBRANCH   6  46
TORSDOF 11
ENDMDL
MODEL       53
REMARK 921   NORMALIZED FREE ENERGY PREDICTED BY IDOCK:   -3.64 KCAL/MOL
REMARK 922        TOTAL FREE ENERGY PREDICTED BY IDOCK:   -8.02 KCAL/MOL
REMARK 923 INTER-LIGAND FREE ENERGY PREDICTED BY IDOCK:   -7.29 KCAL/MOL
REMARK 924 INTRA-LIGAND FREE ENERGY PREDICTED BY IDOCK:   -0.72 KCAL/MOL
REMARK 927      BINDING AFFINITY PREDICTED BY RF-SCORE:    0.00 PKD
ROOT
HETATM    1  C   UNL     1     -11.720  16.148  68.169  1.00  0.00    -0.013 C  
HETATM    2  C   UNL     1     -11.285  17.426  68.810  1.00  0.00     0.418 C  
HETATM    3  C   UNL     1      -9.786  17.302  69.328  1.00  0.00    -0.087 C  
HETATM    4  C   UNL     1     -10.589   8.353  69.415  1.00  0.00    -0.204 A  
HETATM    5  C   UNL     1      -9.160  18.011  68.151  1.00  0.00    -0.276 C  
HETATM    6  C   UNL     1     -11.282   7.432  70.235  1.00  0.00    -0.247 A  
HETATM    7  C   UNL     1     -12.248   7.852  71.143  1.00  0.00    -0.273 A  
HETATM    8  C   UNL     1      -9.378  16.912  66.963  1.00  0.00    -0.245 C  
HETATM    9  C   UNL     1     -10.555  15.611  67.289  1.00  0.00    -0.305 C  
HETATM   10  C   UNL     1     -12.549   9.202  71.270  1.00  0.00    -0.351 A  
HETATM   11  C   UNL     1     -11.872  10.127  70.455  1.00  0.00    -0.373 A  
HETATM   12  H   UNL     1      -9.737  10.840  68.129  1.00  0.00     0.000 HD 
HETATM   13  C   UNL     1     -10.918   9.714  69.531  1.00  0.00    -0.208 A  
HETATM   14  C   UNL     1     -10.414  14.016  67.616  1.00  0.00    -0.245 C  
HETATM   15  N   UNL     1     -10.444  10.847  68.865  1.00  0.00    -0.194 NA 
HETATM   16  C   UNL     1     -11.070  11.971  69.346  1.00  0.00    -0.133 A  
HETATM   17  C   UNL     1     -11.908  11.521  70.376  1.00  0.00    -0.413 A  
HETATM   18  C   UNL     1     -12.686  12.423  71.261  1.00  0.00    -0.347 C  
HETATM   19  C   UNL     1     -10.834  13.473  69.059  1.00  0.00    -0.192 C  
HETATM   20  C   UNL     1     -12.166  13.826  71.068  1.00  0.00    -0.319 C  
HETATM   21  C   UNL     1     -12.225  15.467  69.420  1.00  0.00    -0.219 C  
HETATM   22  N   UNL     1     -12.063  14.077  69.595  1.00  0.00    -0.340 NA 
ENDROOT
BRANCH   3  23
HETATM   23  O   UNL     1      -9.011  15.978  69.214  1.00  0.00    -0.244 OA 
BRANCH  23  24
HETATM   24  C   UNL     1      -7.786  15.445  69.491  1.00  0.00    -0.204 C  
HETATM   25  O   UNL     1      -6.964  15.892  70.264  1.00  0.00     0.172 OA 
BRANCH  24  26
HETATM   26  C   UNL     1      -7.658  14.113  68.706  1.00  0.00    -0.125 C  
HETATM   27  C   UNL     1      -6.770  13.080  68.780  1.00  0.00    -0.100 C  
BRANCH  27  28
HETATM   28  C   UNL     1      -6.831  11.752  68.013  1.00  0.00    -0.074 A  
HETATM   29  C   UNL     1      -7.251  11.688  66.680  1.00  0.00    -0.025 A  
HETATM   30  C   UNL     1      -6.511  10.501  68.605  1.00  0.00    -0.051 A  
HETATM   31  C   UNL     1      -6.587   9.261  67.889  1.00  0.00    -0.063 A  
HETATM   32  C   UNL     1      -7.264  10.486  65.932  1.00  0.00    -0.135 A  
HETATM   33  C   UNL     1      -6.951   9.253  66.531  1.00  0.00    -0.081 A  
BRANCH  32  34
HETATM   34  O   UNL     1      -7.614  10.467  64.598  1.00  0.00    -0.088 OA 
HETATM   35  C   UNL     1      -8.988  10.754  64.350  1.00  0.00    -0.161 C  
ENDBRANCH  32  34
BRANCH  33  36
HETATM   36  O   UNL     1      -7.104   8.155  65.711  1.00  0.00    -0.062 OA 
HETATM   37  C   UNL     1      -5.977   7.581  65.061  1.00  0.00    -0.038 C  
ENDBRANCH  33  36
BRANCH  31  38
HETATM   38  O   UNL     1      -6.357   8.030  68.447  1.00  0.00    -0.047 OA 
HETATM   39  C   UNL     1      -7.438   7.186  68.788  1.00  0.00    -0.102 C  
ENDBRANCH  31  38
ENDBRANCH  27  28
ENDBRANCH  24  26
ENDBRANCH  23  24
ENDBRANCH   3  23
BRANCH   5  40
HETATM   40  O   UNL     1      -9.784  19.298  67.956  1.00  0.00    -0.315 OA 
HETATM   41  C   UNL     1     -10.181  19.666  66.652  1.00  0.00    -0.465 C  
ENDBRANCH   5  40
BRANCH   8  42
HETATM   42  C   UNL     1      -7.952  16.615  66.477  1.00  0.00    -0.307 C  
HETATM   43  O   UNL     1      -7.588  15.578  65.971  1.00  0.00     0.763 OA 
BRANCH  42  44
HETATM   44  O   UNL     1      -7.145  17.716  66.671  1.00  0.00    -0.183 OA 
HETATM   45  C   UNL     1      -6.714  18.554  65.591  1.00  0.00    -0.265 C  
ENDBRANCH  42  44
ENDBRANCH   8  42
BRANCH   6  46
HETATM   46  O   UNL     1     -11.097   6.072  70.235  1.00  0.00    -0.328 OA 
HETATM   47  C   UNL     1     -10.545   5.504  69.067  1.00  0.00    -0.201 C  
ENDBRANCH   6  46
TORSDOF 11
ENDMDL
MODEL       54
REMARK 921   NORMALIZED FREE ENERGY PREDICTED BY IDOCK:   -3.63 KCAL/MOL
REMARK 922        TOTAL FREE ENERGY PREDICTED BY IDOCK:   -8.00 KCAL/MOL
REMARK 923 INTER-LIGAND FREE ENERGY PREDICTED BY IDOCK:   -8.14 KCAL/MOL
REMARK 924 INTRA-LIGAND FREE ENERGY PREDICTED BY IDOCK:    0.15 KCAL/MOL
REMARK 927      BINDING AFFINITY PREDICTED BY RF-SCORE:    0.00 PKD
ROOT
HETATM    1  C   UNL     1     -11.605  10.365  66.933  1.00  0.00     0.922 C  
HETATM    2  C   UNL     1     -11.579  11.811  66.558  1.00  0.00    -0.256 C  
HETATM    3  C   UNL     1     -10.113  12.404  66.742  1.00  0.00    -0.214 C  
HETATM    4  C   UNL     1      -8.166   5.735  72.440  1.00  0.00    -0.107 A  
HETATM    5  C   UNL     1      -9.730  12.313  65.284  1.00  0.00    -0.113 C  
HETATM    6  C   UNL     1      -8.547   5.426  73.766  1.00  0.00    -0.113 A  
HETATM    7  C   UNL     1      -9.597   6.090  74.393  1.00  0.00    -0.213 A  
HETATM    8  C   UNL     1      -9.602  10.697  65.087  1.00  0.00    -0.304 C  
HETATM    9  C   UNL     1     -10.329   9.681  66.362  1.00  0.00    -0.246 C  
HETATM   10  C   UNL     1     -10.293   7.088  73.722  1.00  0.00    -0.408 A  
HETATM   11  C   UNL     1      -9.928   7.399  72.400  1.00  0.00    -0.221 A  
HETATM   12  H   UNL     1      -8.106   6.926  69.767  1.00  0.00     0.000 HD 
HETATM   13  C   UNL     1      -8.892   6.727  71.760  1.00  0.00    -0.128 A  
HETATM   14  C   UNL     1      -9.712   8.758  67.561  1.00  0.00    -0.214 C  
HETATM   15  N   UNL     1      -8.782   7.238  70.464  1.00  0.00    -0.147 NA 
HETATM   16  C   UNL     1      -9.721   8.222  70.266  1.00  0.00    -0.175 A  
HETATM   17  C   UNL     1     -10.384   8.358  71.493  1.00  0.00    -0.296 A  
HETATM   18  C   UNL     1     -11.401   9.403  71.770  1.00  0.00    -0.387 C  
HETATM   19  C   UNL     1      -9.950   9.190  69.081  1.00  0.00    -0.187 C  
HETATM   20  C   UNL     1     -11.330  10.426  70.663  1.00  0.00    -0.325 C  
HETATM   21  C   UNL     1     -11.882  10.552  68.407  1.00  0.00     0.136 C  
HETATM   22  N   UNL     1     -11.305   9.688  69.360  1.00  0.00    -0.074 NA 
ENDROOT
BRANCH   3  23
HETATM   23  O   UNL     1      -8.973  11.544  67.314  1.00  0.00    -0.156 OA 
BRANCH  23  24
HETATM   24  C   UNL     1      -7.784  11.671  67.970  1.00  0.00    -0.121 C  
HETATM   25  O   UNL     1      -7.015  10.774  68.248  1.00  0.00    -0.067 OA 
BRANCH  24  26
HETATM   26  C   UNL     1      -7.540  13.182  68.226  1.00  0.00    -0.139 C  
HETATM   27  C   UNL     1      -7.639  14.281  67.424  1.00  0.00    -0.185 C  
BRANCH  27  28
HETATM   28  C   UNL     1      -7.480  15.748  67.844  1.00  0.00    -0.147 A  
HETATM   29  C   UNL     1      -6.444  16.167  68.686  1.00  0.00    -0.120 A  
HETATM   30  C   UNL     1      -8.385  16.770  67.449  1.00  0.00    -0.197 A  
HETATM   31  C   UNL     1      -8.242  18.136  67.858  1.00  0.00    -0.249 A  
HETATM   32  C   UNL     1      -6.241  17.522  69.044  1.00  0.00    -0.212 A  
HETATM   33  C   UNL     1      -7.147  18.522  68.652  1.00  0.00    -0.280 A  
BRANCH  32  34
HETATM   34  O   UNL     1      -5.167  17.913  69.818  1.00  0.00    -0.182 OA 
HETATM   35  C   UNL     1      -5.198  17.416  71.154  1.00  0.00    -0.120 C  
ENDBRANCH  32  34
BRANCH  33  36
HETATM   36  O   UNL     1      -6.880  19.777  69.158  1.00  0.00    -0.329 OA 
HETATM   37  C   UNL     1      -6.235  20.754  68.351  1.00  0.00    -0.321 C  
ENDBRANCH  33  36
BRANCH  31  38
HETATM   38  O   UNL     1      -9.134  19.131  67.558  1.00  0.00    -0.289 OA 
HETATM   39  C   UNL     1     -10.431  18.814  67.093  1.00  0.00    -0.427 C  
ENDBRANCH  31  38
ENDBRANCH  27  28
ENDBRANCH  24  26
ENDBRANCH  23  24
ENDBRANCH   3  23
BRANCH   5  40
HETATM   40  O   UNL     1     -10.714  12.982  64.468  1.00  0.00    -0.340 OA 
HETATM   41  C   UNL     1     -11.121  14.285  64.831  1.00  0.00    -0.390 C  
ENDBRANCH   5  40
BRANCH   8  42
HETATM   42  C   UNL     1      -8.153  10.501  64.621  1.00  0.00    -0.064 C  
HETATM   43  O   UNL     1      -7.196  10.366  65.349  1.00  0.00    -0.143 OA 
BRANCH  42  44
HETATM   44  O   UNL     1      -8.097  10.471  63.244  1.00  0.00    -0.151 OA 
HETATM   45  C   UNL     1      -9.270  10.335  62.430  1.00  0.00    -0.287 C  
ENDBRANCH  42  44
ENDBRANCH   8  42
BRANCH   6  46
HETATM   46  O   UNL     1      -7.959   4.477  74.562  1.00  0.00    -0.087 OA 
HETATM   47  C   UNL     1      -8.167   3.128  74.204  1.00  0.00    -0.070 C  
ENDBRANCH   6  46
TORSDOF 11
ENDMDL
MODEL       55
REMARK 921   NORMALIZED FREE ENERGY PREDICTED BY IDOCK:   -3.62 KCAL/MOL
REMARK 922        TOTAL FREE ENERGY PREDICTED BY IDOCK:   -7.98 KCAL/MOL
REMARK 923 INTER-LIGAND FREE ENERGY PREDICTED BY IDOCK:   -7.91 KCAL/MOL
REMARK 924 INTRA-LIGAND FREE ENERGY PREDICTED BY IDOCK:   -0.07 KCAL/MOL
REMARK 927      BINDING AFFINITY PREDICTED BY RF-SCORE:    0.00 PKD
ROOT
HETATM    1  C   UNL     1      -9.254   4.072  66.981  1.00  0.00    -0.186 C  
HETATM    2  C   UNL     1      -8.080   3.284  67.464  1.00  0.00    -0.081 C  
HETATM    3  C   UNL     1      -7.298   4.092  68.589  1.00  0.00    -0.055 C  
HETATM    4  C   UNL     1     -10.910  11.742  65.561  1.00  0.00    -0.348 A  
HETATM    5  C   UNL     1      -7.910   3.356  69.757  1.00  0.00    -0.049 C  
HETATM    6  C   UNL     1     -10.714  12.538  64.409  1.00  0.00    -0.350 A  
HETATM    7  C   UNL     1      -9.983  12.073  63.320  1.00  0.00    -0.339 A  
HETATM    8  C   UNL     1      -9.447   3.908  69.712  1.00  0.00    -0.264 C  
HETATM    9  C   UNL     1      -9.956   4.722  68.208  1.00  0.00    -0.157 C  
HETATM   10  C   UNL     1      -9.418  10.804  63.349  1.00  0.00    -0.345 A  
HETATM   11  C   UNL     1      -9.613  10.000  64.486  1.00  0.00    -0.346 A  
HETATM   12  H   UNL     1     -10.870   9.484  67.423  1.00  0.00     0.000 HD 
HETATM   13  C   UNL     1     -10.357  10.450  65.570  1.00  0.00    -0.195 A  
HETATM   14  C   UNL     1     -10.254   6.279  67.810  1.00  0.00    -0.206 C  
HETATM   15  N   UNL     1     -10.390   9.430  66.525  1.00  0.00    -0.232 NA 
HETATM   16  C   UNL     1      -9.679   8.344  66.075  1.00  0.00    -0.076 A  
HETATM   17  C   UNL     1      -9.148   8.730  64.837  1.00  0.00     0.017 A  
HETATM   18  C   UNL     1      -8.204   7.900  64.048  1.00  0.00    -0.026 C  
HETATM   19  C   UNL     1      -9.289   7.019  66.773  1.00  0.00    -0.156 C  
HETATM   20  C   UNL     1      -7.698   6.794  64.942  1.00  0.00    -0.110 C  
HETATM   21  C   UNL     1      -8.535   4.848  65.902  1.00  0.00    -0.119 C  
HETATM   22  N   UNL     1      -8.882   6.188  65.631  1.00  0.00    -0.131 NA 
ENDROOT
BRANCH   3  23
HETATM   23  O   UNL     1      -7.724   5.515  68.989  1.00  0.00    -0.085 OA 
BRANCH  23  24
HETATM   24  C   UNL     1      -7.192   6.692  69.429  1.00  0.00    -0.090 C  
HETATM   25  O   UNL     1      -6.022   6.907  69.671  1.00  0.00    -0.022 OA 
BRANCH  24  26
HETATM   26  C   UNL     1      -8.335   7.740  69.484  1.00  0.00    -0.129 C  
HETATM   27  C   UNL     1      -9.212   8.098  70.465  1.00  0.00    -0.157 C  
BRANCH  27  28
HETATM   28  C   UNL     1     -10.228   9.247  70.422  1.00  0.00    -0.284 A  
HETATM   29  C   UNL     1      -9.961  10.443  69.747  1.00  0.00    -0.167 A  
HETATM   30  C   UNL     1     -11.480   9.199  71.091  1.00  0.00    -0.388 A  
HETATM   31  C   UNL     1     -12.419  10.282  71.062  1.00  0.00    -0.384 A  
HETATM   32  C   UNL     1     -10.901  11.497  69.645  1.00  0.00     0.008 A  
HETATM   33  C   UNL     1     -12.135  11.440  70.316  1.00  0.00    -0.374 A  
BRANCH  32  34
HETATM   34  O   UNL     1     -10.635  12.636  68.911  1.00  0.00    -0.212 OA 
HETATM   35  C   UNL     1      -9.272  12.771  68.516  1.00  0.00    -0.061 C  
ENDBRANCH  32  34
BRANCH  33  36
HETATM   36  O   UNL     1     -12.905  12.579  70.210  1.00  0.00     0.115 OA 
HETATM   37  C   UNL     1     -13.276  13.305  71.375  1.00  0.00    -0.223 C  
ENDBRANCH  33  36
BRANCH  31  38
HETATM   38  O   UNL     1     -13.601  10.300  71.754  1.00  0.00    -0.295 OA 
HETATM   39  C   UNL     1     -14.101   9.120  72.350  1.00  0.00    -0.359 C  
ENDBRANCH  31  38
ENDBRANCH  27  28
ENDBRANCH  24  26
ENDBRANCH  23  24
ENDBRANCH   3  23
BRANCH   5  40
HETATM   40  O   UNL     1      -7.736   1.933  69.596  1.00  0.00    -0.043 OA 
HETATM   41  C   UNL     1      -6.678   1.470  68.782  1.00  0.00    -0.029 C  
ENDBRANCH   5  40
BRANCH   8  42
HETATM   42  C   UNL     1      -9.641   4.554  71.091  1.00  0.00    -0.175 C  
HETATM   43  O   UNL     1     -10.631   5.151  71.451  1.00  0.00    -0.208 OA 
BRANCH  42  44
HETATM   44  O   UNL     1      -8.533   4.332  71.880  1.00  0.00    -0.102 OA 
HETATM   45  C   UNL     1      -8.163   5.210  72.952  1.00  0.00    -0.109 C  
ENDBRANCH  42  44
ENDBRANCH   8  42
BRANCH   6  46
HETATM   46  O   UNL     1     -11.198  13.809  64.229  1.00  0.00    -0.373 OA 
HETATM   47  C   UNL     1     -12.384  13.938  63.476  1.00  0.00    -0.019 C  
ENDBRANCH   6  46
TORSDOF 11
ENDMDL
MODEL       56
REMARK 921   NORMALIZED FREE ENERGY PREDICTED BY IDOCK:   -3.61 KCAL/MOL
REMARK 922        TOTAL FREE ENERGY PREDICTED BY IDOCK:   -7.97 KCAL/MOL
REMARK 923 INTER-LIGAND FREE ENERGY PREDICTED BY IDOCK:   -5.88 KCAL/MOL
REMARK 924 INTRA-LIGAND FREE ENERGY PREDICTED BY IDOCK:   -2.09 KCAL/MOL
REMARK 927      BINDING AFFINITY PREDICTED BY RF-SCORE:    0.00 PKD
ROOT
HETATM    1  C   UNL     1      -6.917  15.201  67.940  1.00  0.00    -0.167 C  
HETATM    2  C   UNL     1      -7.463  15.846  66.708  1.00  0.00    -0.184 C  
HETATM    3  C   UNL     1      -8.929  15.305  66.404  1.00  0.00    -0.304 C  
HETATM    4  C   UNL     1      -7.219   7.992  71.337  1.00  0.00    -0.068 A  
HETATM    5  C   UNL     1      -9.653  16.489  67.000  1.00  0.00    -0.242 C  
HETATM    6  C   UNL     1      -6.416   6.843  71.153  1.00  0.00    -0.041 A  
HETATM    7  C   UNL     1      -5.475   6.771  70.132  1.00  0.00    -0.019 A  
HETATM    8  C   UNL     1      -9.355  16.278  68.592  1.00  0.00    -0.219 C  
HETATM    9  C   UNL     1      -8.044  15.141  69.012  1.00  0.00    -0.191 C  
HETATM   10  C   UNL     1      -5.310   7.837  69.256  1.00  0.00    -0.022 A  
HETATM   11  C   UNL     1      -6.097   8.989  69.434  1.00  0.00    -0.040 A  
HETATM   12  H   UNL     1      -8.351  10.674  71.031  1.00  0.00     0.000 HD 
HETATM   13  C   UNL     1      -7.027   9.076  70.463  1.00  0.00    -0.069 A  
HETATM   14  C   UNL     1      -8.015  13.635  69.644  1.00  0.00     0.955 C  
HETATM   15  N   UNL     1      -7.631  10.335  70.394  1.00  0.00    -0.177 NA 
HETATM   16  C   UNL     1      -7.110  11.048  69.341  1.00  0.00    -0.128 A  
HETATM   17  C   UNL     1      -6.205  10.180  68.714  1.00  0.00    -0.047 A  
HETATM   18  C   UNL     1      -5.500  10.498  67.447  1.00  0.00    -0.040 C  
HETATM   19  C   UNL     1      -7.505  12.418  68.742  1.00  0.00    -0.056 C  
HETATM   20  C   UNL     1      -6.165  11.707  66.835  1.00  0.00    -0.149 C  
HETATM   21  C   UNL     1      -6.314  13.987  67.272  1.00  0.00     0.404 C  
HETATM   22  N   UNL     1      -6.331  12.733  67.915  1.00  0.00    -0.101 NA 
ENDROOT
BRANCH   3  23
HETATM   23  O   UNL     1      -9.568  14.207  67.272  1.00  0.00    -0.222 OA 
BRANCH  23  24
HETATM   24  C   UNL     1     -10.710  13.467  67.363  1.00  0.00    -0.262 C  
HETATM   25  O   UNL     1     -11.848  13.886  67.310  1.00  0.00    -0.364 OA 
BRANCH  24  26
HETATM   26  C   UNL     1     -10.301  11.973  67.463  1.00  0.00    -0.217 C  
HETATM   27  C   UNL     1     -10.696  10.961  68.288  1.00  0.00    -0.244 C  
BRANCH  27  28
HETATM   28  C   UNL     1     -10.290   9.484  68.198  1.00  0.00    -0.251 A  
HETATM   29  C   UNL     1      -9.325   9.038  67.290  1.00  0.00    -0.172 A  
HETATM   30  C   UNL     1     -10.887   8.468  68.991  1.00  0.00    -0.026 A  
HETATM   31  C   UNL     1     -10.517   7.086  68.892  1.00  0.00    -0.203 A  
HETATM   32  C   UNL     1      -8.891   7.691  67.224  1.00  0.00    -0.120 A  
HETATM   33  C   UNL     1      -9.494   6.693  68.010  1.00  0.00    -0.118 A  
BRANCH  32  34
HETATM   34  O   UNL     1      -7.886   7.295  66.367  1.00  0.00    -0.100 OA 
HETATM   35  C   UNL     1      -8.196   7.462  64.985  1.00  0.00    -0.098 C  
ENDBRANCH  32  34
BRANCH  33  36
HETATM   36  O   UNL     1      -9.042   5.413  67.768  1.00  0.00    -0.109 OA 
HETATM   37  C   UNL     1      -7.931   4.896  68.488  1.00  0.00    -0.085 C  
ENDBRANCH  33  36
BRANCH  31  38
HETATM   38  O   UNL     1     -11.121   6.071  69.586  1.00  0.00    -0.369 OA 
HETATM   39  C   UNL     1     -11.472   6.242  70.945  1.00  0.00    -0.312 C  
ENDBRANCH  31  38
ENDBRANCH  27  28
ENDBRANCH  24  26
ENDBRANCH  23  24
ENDBRANCH   3  23
BRANCH   5  40
HETATM   40  O   UNL     1      -9.168  17.715  66.415  1.00  0.00    -0.287 OA 
HETATM   41  C   UNL     1     -10.106  18.700  66.034  1.00  0.00    -0.297 C  
ENDBRANCH   5  40
BRANCH   8  42
HETATM   42  C   UNL     1     -10.755  16.168  69.212  1.00  0.00    -0.295 C  
HETATM   43  O   UNL     1     -11.767  16.639  68.743  1.00  0.00    -0.101 OA 
BRANCH  42  44
HETATM   44  O   UNL     1     -10.703  15.426  70.373  1.00  0.00    -0.306 OA 
HETATM   45  C   UNL     1     -11.774  14.565  70.784  1.00  0.00    -0.266 C  
ENDBRANCH  42  44
ENDBRANCH   8  42
BRANCH   6  46
HETATM   46  O   UNL     1      -6.462   5.710  71.925  1.00  0.00    -0.048 OA 
HETATM   47  C   UNL     1      -7.653   5.476  72.644  1.00  0.00    -0.098 C  
ENDBRANCH   6  46
TORSDOF 11
ENDMDL
MODEL       57
REMARK 921   NORMALIZED FREE ENERGY PREDICTED BY IDOCK:   -3.60 KCAL/MOL
REMARK 922        TOTAL FREE ENERGY PREDICTED BY IDOCK:   -7.96 KCAL/MOL
REMARK 923 INTER-LIGAND FREE ENERGY PREDICTED BY IDOCK:   -5.62 KCAL/MOL
REMARK 924 INTRA-LIGAND FREE ENERGY PREDICTED BY IDOCK:   -2.34 KCAL/MOL
REMARK 927      BINDING AFFINITY PREDICTED BY RF-SCORE:    0.00 PKD
ROOT
HETATM    1  C   UNL     1      -9.176   6.505  68.866  1.00  0.00    -0.129 C  
HETATM    2  C   UNL     1     -10.086   5.726  67.972  1.00  0.00    -0.198 C  
HETATM    3  C   UNL     1      -9.677   5.936  66.449  1.00  0.00    -0.134 C  
HETATM    4  C   UNL     1      -5.489  13.572  68.658  1.00  0.00    -0.083 A  
HETATM    5  C   UNL     1      -8.910   4.642  66.318  1.00  0.00    -0.113 C  
HETATM    6  C   UNL     1      -5.924  14.860  69.046  1.00  0.00    -0.096 A  
HETATM    7  C   UNL     1      -7.247  15.104  69.400  1.00  0.00    -0.198 A  
HETATM    8  C   UNL     1      -7.599   4.953  67.243  1.00  0.00    -0.087 C  
HETATM    9  C   UNL     1      -7.717   6.352  68.345  1.00  0.00    -0.104 C  
HETATM   10  C   UNL     1      -8.180  14.074  69.370  1.00  0.00     0.464 A  
HETATM   11  C   UNL     1      -7.756  12.787  68.993  1.00  0.00     0.203 A  
HETATM   12  H   UNL     1      -5.456  10.705  68.073  1.00  0.00     0.000 HD 
HETATM   13  C   UNL     1      -6.432  12.531  68.656  1.00  0.00    -0.078 A  
HETATM   14  C   UNL     1      -7.057   7.847  68.348  1.00  0.00    -0.081 C  
HETATM   15  N   UNL     1      -6.319  11.172  68.351  1.00  0.00    -0.049 NA 
HETATM   16  C   UNL     1      -7.541  10.558  68.483  1.00  0.00    -0.097 A  
HETATM   17  C   UNL     1      -8.439  11.581  68.820  1.00  0.00    -0.057 A  
HETATM   18  C   UNL     1      -9.906  11.386  68.937  1.00  0.00    -0.127 C  
HETATM   19  C   UNL     1      -8.002   9.120  68.148  1.00  0.00    -0.100 C  
HETATM   20  C   UNL     1     -10.247  10.048  68.328  1.00  0.00    -0.173 C  
HETATM   21  C   UNL     1      -9.953   7.801  68.851  1.00  0.00    -0.182 C  
HETATM   22  N   UNL     1      -9.280   9.040  68.870  1.00  0.00    -0.139 NA 
ENDROOT
BRANCH   3  23
HETATM   23  O   UNL     1      -8.541   6.896  66.054  1.00  0.00    -0.137 OA 
BRANCH  23  24
HETATM   24  C   UNL     1      -8.142   7.689  65.018  1.00  0.00    -0.133 C  
HETATM   25  O   UNL     1      -7.398   7.371  64.113  1.00  0.00    -0.077 OA 
BRANCH  24  26
HETATM   26  C   UNL     1      -8.876   9.049  65.150  1.00  0.00    -0.224 C  
HETATM   27  C   UNL     1      -8.528  10.323  64.805  1.00  0.00    -0.179 C  
BRANCH  27  28
HETATM   28  C   UNL     1      -9.410  11.575  64.887  1.00  0.00    -0.085 A  
HETATM   29  C   UNL     1     -10.517  11.755  64.051  1.00  0.00    -0.415 A  
HETATM   30  C   UNL     1      -9.147  12.650  65.778  1.00  0.00     0.265 A  
HETATM   31  C   UNL     1      -9.964  13.827  65.839  1.00  0.00    -0.293 A  
HETATM   32  C   UNL     1     -11.380  12.874  64.143  1.00  0.00    -0.393 A  
HETATM   33  C   UNL     1     -11.105  13.935  65.024  1.00  0.00    -0.353 A  
BRANCH  32  34
HETATM   34  O   UNL     1     -12.505  12.989  63.352  1.00  0.00    -0.710 OA 
HETATM   35  C   UNL     1     -13.161  11.750  63.088  1.00  0.00     0.397 C  
ENDBRANCH  32  34
BRANCH  33  36
HETATM   36  O   UNL     1     -11.972  15.003  64.934  1.00  0.00    -0.340 OA 
HETATM   37  C   UNL     1     -11.581  16.189  64.254  1.00  0.00    -0.062 C  
ENDBRANCH  33  36
BRANCH  31  38
HETATM   38  O   UNL     1      -9.699  14.913  66.632  1.00  0.00    -0.239 OA 
HETATM   39  C   UNL     1      -8.741  15.873  66.234  1.00  0.00    -0.337 C  
ENDBRANCH  31  38
ENDBRANCH  27  28
ENDBRANCH  24  26
ENDBRANCH  23  24
ENDBRANCH   3  23
BRANCH   5  40
HETATM   40  O   UNL     1      -9.733   3.531  66.729  1.00  0.00    -0.164 OA 
HETATM   41  C   UNL     1      -9.102   2.356  67.192  1.00  0.00    -0.136 C  
ENDBRANCH   5  40
BRANCH   8  42
HETATM   42  C   UNL     1      -6.421   4.780  66.273  1.00  0.00    -0.041 C  
HETATM   43  O   UNL     1      -5.282   5.127  66.488  1.00  0.00    -0.008 OA 
BRANCH  42  44
HETATM   44  O   UNL     1      -6.841   4.143  65.125  1.00  0.00    -0.050 OA 
HETATM   45  C   UNL     1      -6.023   4.055  63.951  1.00  0.00    -0.014 C  
ENDBRANCH  42  44
ENDBRANCH   8  42
BRANCH   6  46
HETATM   46  O   UNL     1      -5.132  15.978  69.120  1.00  0.00    -0.107 OA 
HETATM   47  C   UNL     1      -5.578  17.020  69.961  1.00  0.00    -0.225 C  
ENDBRANCH   6  46
TORSDOF 11
ENDMDL
MODEL       58
REMARK 921   NORMALIZED FREE ENERGY PREDICTED BY IDOCK:   -3.58 KCAL/MOL
REMARK 922        TOTAL FREE ENERGY PREDICTED BY IDOCK:   -7.92 KCAL/MOL
REMARK 923 INTER-LIGAND FREE ENERGY PREDICTED BY IDOCK:   -6.49 KCAL/MOL
REMARK 924 INTRA-LIGAND FREE ENERGY PREDICTED BY IDOCK:   -1.43 KCAL/MOL
REMARK 927      BINDING AFFINITY PREDICTED BY RF-SCORE:    0.00 PKD
ROOT
HETATM    1  C   UNL     1     -12.132  16.041  68.612  1.00  0.00     0.152 C  
HETATM    2  C   UNL     1     -11.369  17.267  68.996  1.00  0.00     0.659 C  
HETATM    3  C   UNL     1      -9.833  16.916  69.215  1.00  0.00    -0.152 C  
HETATM    4  C   UNL     1     -12.021   8.299  70.522  1.00  0.00     0.070 A  
HETATM    5  C   UNL     1      -9.372  17.400  67.861  1.00  0.00    -0.267 C  
HETATM    6  C   UNL     1     -12.657   7.590  71.567  1.00  0.00    -0.355 A  
HETATM    7  C   UNL     1     -13.323   8.252  72.594  1.00  0.00     0.003 A  
HETATM    8  C   UNL     1     -10.017  16.265  66.879  1.00  0.00    -0.263 C  
HETATM    9  C   UNL     1     -11.287  15.230  67.587  1.00  0.00    -0.315 C  
HETATM   10  C   UNL     1     -13.368   9.640  72.618  1.00  0.00    -0.161 A  
HETATM   11  C   UNL     1     -12.745  10.357  71.580  1.00  0.00    -0.564 A  
HETATM   12  H   UNL     1     -11.082  10.476  68.806  1.00  0.00     0.000 HD 
HETATM   13  C   UNL     1     -12.094   9.703  70.540  1.00  0.00    -0.129 A  
HETATM   14  C   UNL     1     -11.336  13.669  68.065  1.00  0.00    -0.316 C  
HETATM   15  N   UNL     1     -11.601  10.672  69.662  1.00  0.00    -0.275 NA 
HETATM   16  C   UNL     1     -11.919  11.927  70.122  1.00  0.00    -0.332 A  
HETATM   17  C   UNL     1     -12.574  11.722  71.345  1.00  0.00    -0.367 A  
HETATM   18  C   UNL     1     -12.985  12.821  72.254  1.00  0.00    -0.289 C  
HETATM   19  C   UNL     1     -11.513  13.332  69.618  1.00  0.00    -0.198 C  
HETATM   20  C   UNL     1     -12.301  14.085  71.796  1.00  0.00    -0.180 C  
HETATM   21  C   UNL     1     -12.455  15.568  70.010  1.00  0.00    -0.261 C  
HETATM   22  N   UNL     1     -12.483  14.191  70.313  1.00  0.00    -0.356 NA 
ENDROOT
BRANCH   3  23
HETATM   23  O   UNL     1      -9.323  15.468  69.105  1.00  0.00    -0.214 OA 
BRANCH  23  24
HETATM   24  C   UNL     1      -8.197  14.727  69.314  1.00  0.00    -0.065 C  
HETATM   25  O   UNL     1      -7.159  15.117  69.808  1.00  0.00    -0.187 OA 
BRANCH  24  26
HETATM   26  C   UNL     1      -8.502  13.267  68.887  1.00  0.00     0.247 C  
HETATM   27  C   UNL     1      -7.787  12.109  68.982  1.00  0.00     0.167 C  
BRANCH  27  28
HETATM   28  C   UNL     1      -8.264  10.697  68.620  1.00  0.00    -0.135 A  
HETATM   29  C   UNL     1      -8.809  10.400  67.366  1.00  0.00    -0.133 A  
HETATM   30  C   UNL     1      -8.227   9.609  69.533  1.00  0.00    -0.136 A  
HETATM   31  C   UNL     1      -8.690   8.295  69.196  1.00  0.00    -0.143 A  
HETATM   32  C   UNL     1      -9.206   9.095  66.986  1.00  0.00    -0.135 A  
HETATM   33  C   UNL     1      -9.170   8.028  67.901  1.00  0.00    -0.131 A  
BRANCH  32  34
HETATM   34  O   UNL     1      -9.673   8.820  65.717  1.00  0.00    -0.204 OA 
HETATM   35  C   UNL     1      -8.710   9.020  64.685  1.00  0.00    -0.135 C  
ENDBRANCH  32  34
BRANCH  33  36
HETATM   36  O   UNL     1      -9.681   6.839  67.426  1.00  0.00    -0.126 OA 
HETATM   37  C   UNL     1     -11.034   6.486  67.682  1.00  0.00    -0.337 C  
ENDBRANCH  33  36
BRANCH  31  38
HETATM   38  O   UNL     1      -8.738   7.243  70.073  1.00  0.00    -0.139 OA 
HETATM   39  C   UNL     1      -7.571   6.501  70.366  1.00  0.00    -0.096 C  
ENDBRANCH  31  38
ENDBRANCH  27  28
ENDBRANCH  24  26
ENDBRANCH  23  24
ENDBRANCH   3  23
BRANCH   5  40
HETATM   40  O   UNL     1      -9.809  18.758  67.643  1.00  0.00    -0.304 OA 
HETATM   41  C   UNL     1      -8.832  19.764  67.474  1.00  0.00    -0.326 C  
ENDBRANCH   5  40
BRANCH   8  42
HETATM   42  C   UNL     1      -8.798  15.675  66.156  1.00  0.00    -0.276 C  
HETATM   43  O   UNL     1      -7.702  16.186  66.103  1.00  0.00    -0.094 OA 
BRANCH  42  44
HETATM   44  O   UNL     1      -9.121  14.458  65.596  1.00  0.00     0.150 OA 
HETATM   45  C   UNL     1     -10.082  14.328  64.539  1.00  0.00     0.298 C  
ENDBRANCH  42  44
ENDBRANCH   8  42
BRANCH   6  46
HETATM   46  O   UNL     1     -12.697   6.224  71.692  1.00  0.00    -0.079 OA 
HETATM   47  C   UNL     1     -11.491   5.580  72.041  1.00  0.00    -0.058 C  
ENDBRANCH   6  46
TORSDOF 11
ENDMDL
MODEL       59
REMARK 921   NORMALIZED FREE ENERGY PREDICTED BY IDOCK:   -3.51 KCAL/MOL
REMARK 922        TOTAL FREE ENERGY PREDICTED BY IDOCK:   -7.80 KCAL/MOL
REMARK 923 INTER-LIGAND FREE ENERGY PREDICTED BY IDOCK:   -6.90 KCAL/MOL
REMARK 924 INTRA-LIGAND FREE ENERGY PREDICTED BY IDOCK:   -0.90 KCAL/MOL
REMARK 927      BINDING AFFINITY PREDICTED BY RF-SCORE:    0.00 PKD
ROOT
HETATM    1  C   UNL     1     -10.533   7.865  66.827  1.00  0.00    -0.317 C  
HETATM    2  C   UNL     1      -9.316   7.541  66.024  1.00  0.00    -0.061 C  
HETATM    3  C   UNL     1      -8.000   7.870  66.856  1.00  0.00    -0.108 C  
HETATM    4  C   UNL     1     -12.722  13.495  72.034  1.00  0.00    -0.267 A  
HETATM    5  C   UNL     1      -7.740   6.449  67.295  1.00  0.00    -0.100 C  
HETATM    6  C   UNL     1     -13.296  14.772  71.837  1.00  0.00    -0.359 A  
HETATM    7  C   UNL     1     -13.414  15.326  70.566  1.00  0.00    -0.128 A  
HETATM    8  C   UNL     1      -8.962   6.211  68.351  1.00  0.00    -0.115 C  
HETATM    9  C   UNL     1     -10.306   7.384  68.290  1.00  0.00    -0.231 C  
HETATM   10  C   UNL     1     -12.955  14.631  69.454  1.00  0.00     0.662 A  
HETATM   11  C   UNL     1     -12.390  13.356  69.637  1.00  0.00    -0.187 A  
HETATM   12  H   UNL     1     -11.515  10.877  71.525  1.00  0.00     0.000 HD 
HETATM   13  C   UNL     1     -12.285  12.787  70.901  1.00  0.00    -0.191 A  
HETATM   14  C   UNL     1     -10.789   8.601  69.267  1.00  0.00    -0.082 C  
HETATM   15  N   UNL     1     -11.708  11.522  70.759  1.00  0.00    -0.070 NA 
HETATM   16  C   UNL     1     -11.438  11.276  69.434  1.00  0.00    -0.301 A  
HETATM   17  C   UNL     1     -11.806  12.446  68.754  1.00  0.00    -0.358 A  
HETATM   18  C   UNL     1     -11.568  12.668  67.306  1.00  0.00    -0.428 C  
HETATM   19  C   UNL     1     -10.694  10.109  68.744  1.00  0.00    -0.220 C  
HETATM   20  C   UNL     1     -10.612  11.605  66.823  1.00  0.00    -0.244 C  
HETATM   21  C   UNL     1     -10.655   9.315  66.418  1.00  0.00     0.033 C  
HETATM   22  N   UNL     1     -11.097  10.285  67.341  1.00  0.00    -0.261 NA 
ENDROOT
BRANCH   3  23
HETATM   23  O   UNL     1      -8.081   8.511  68.253  1.00  0.00    -0.116 OA 
BRANCH  23  24
HETATM   24  C   UNL     1      -7.331   9.251  69.119  1.00  0.00    -0.071 C  
HETATM   25  O   UNL     1      -6.527   8.825  69.922  1.00  0.00    -0.037 OA 
BRANCH  24  26
HETATM   26  C   UNL     1      -7.623  10.750  68.839  1.00  0.00    -0.121 C  
HETATM   27  C   UNL     1      -7.181  11.900  69.423  1.00  0.00     0.114 C  
BRANCH  27  28
HETATM   28  C   UNL     1      -7.464  13.337  68.964  1.00  0.00     0.077 A  
HETATM   29  C   UNL     1      -6.461  14.312  68.931  1.00  0.00    -0.092 A  
HETATM   30  C   UNL     1      -8.756  13.788  68.585  1.00  0.00    -0.051 A  
HETATM   31  C   UNL     1      -9.020  15.136  68.173  1.00  0.00    -0.174 A  
HETATM   32  C   UNL     1      -6.682  15.629  68.460  1.00  0.00    -0.114 A  
HETATM   33  C   UNL     1      -7.967  16.065  68.093  1.00  0.00    -0.142 A  
BRANCH  32  34
HETATM   34  O   UNL     1      -5.656  16.548  68.371  1.00  0.00    -0.112 OA 
HETATM   35  C   UNL     1      -5.128  16.708  67.056  1.00  0.00    -0.073 C  
ENDBRANCH  32  34
BRANCH  33  36
HETATM   36  O   UNL     1      -8.051  17.399  67.752  1.00  0.00    -0.207 OA 
HETATM   37  C   UNL     1      -8.341  18.376  68.743  1.00  0.00    -0.232 C  
ENDBRANCH  33  36
BRANCH  31  38
HETATM   38  O   UNL     1     -10.264  15.624  67.872  1.00  0.00    -0.234 OA 
HETATM   39  C   UNL     1     -10.480  16.345  66.676  1.00  0.00    -0.274 C  
ENDBRANCH  31  38
ENDBRANCH  27  28
ENDBRANCH  24  26
ENDBRANCH  23  24
ENDBRANCH   3  23
BRANCH   5  40
HETATM   40  O   UNL     1      -7.704   5.573  66.149  1.00  0.00    -0.093 OA 
HETATM   41  C   UNL     1      -7.640   4.179  66.365  1.00  0.00    -0.089 C  
ENDBRANCH   5  40
BRANCH   8  42
HETATM   42  C   UNL     1      -8.245   5.866  69.664  1.00  0.00    -0.110 C  
HETATM   43  O   UNL     1      -7.054   5.690  69.785  1.00  0.00    -0.060 OA 
BRANCH  42  44
HETATM   44  O   UNL     1      -9.153   5.811  70.701  1.00  0.00    -0.147 OA 
HETATM   45  C   UNL     1      -9.321   4.643  71.516  1.00  0.00    -0.148 C  
ENDBRANCH  42  44
ENDBRANCH   8  42
BRANCH   6  46
HETATM   46  O   UNL     1     -13.787  15.584  72.827  1.00  0.00    -0.529 OA 
HETATM   47  C   UNL     1     -12.893  15.947  73.856  1.00  0.00    -0.539 C  
ENDBRANCH   6  46
TORSDOF 11
ENDMDL
MODEL       60
REMARK 921   NORMALIZED FREE ENERGY PREDICTED BY IDOCK:   -3.50 KCAL/MOL
REMARK 922        TOTAL FREE ENERGY PREDICTED BY IDOCK:   -7.80 KCAL/MOL
REMARK 923 INTER-LIGAND FREE ENERGY PREDICTED BY IDOCK:   -6.14 KCAL/MOL
REMARK 924 INTRA-LIGAND FREE ENERGY PREDICTED BY IDOCK:   -1.66 KCAL/MOL
REMARK 927      BINDING AFFINITY PREDICTED BY RF-SCORE:    0.00 PKD
ROOT
HETATM    1  C   UNL     1      -5.908   5.477  67.746  1.00  0.00    -0.017 C  
HETATM    2  C   UNL     1      -6.615   4.269  68.270  1.00  0.00    -0.046 C  
HETATM    3  C   UNL     1      -8.162   4.330  67.903  1.00  0.00    -0.094 C  
HETATM    4  C   UNL     1      -7.535  13.237  66.896  1.00  0.00     0.413 A  
HETATM    5  C   UNL     1      -8.071   3.408  66.711  1.00  0.00    -0.088 C  
HETATM    6  C   UNL     1      -7.381  14.323  67.788  1.00  0.00    -0.174 A  
HETATM    7  C   UNL     1      -7.039  14.124  69.122  1.00  0.00    -0.099 A  
HETATM    8  C   UNL     1      -7.259   4.343  65.645  1.00  0.00    -0.072 C  
HETATM    9  C   UNL     1      -6.434   5.778  66.313  1.00  0.00    -0.043 C  
HETATM   10  C   UNL     1      -6.850  12.838  69.611  1.00  0.00     0.178 A  
HETATM   11  C   UNL     1      -6.993  11.750  68.731  1.00  0.00    -0.103 A  
HETATM   12  H   UNL     1      -7.577  10.527  65.792  1.00  0.00     0.000 HD 
HETATM   13  C   UNL     1      -7.316  11.941  67.392  1.00  0.00    -0.145 A  
HETATM   14  C   UNL     1      -6.728   7.384  66.246  1.00  0.00    -0.060 C  
HETATM   15  N   UNL     1      -7.365  10.687  66.777  1.00  0.00    -0.113 NA 
HETATM   16  C   UNL     1      -7.086   9.703  67.694  1.00  0.00    -0.088 A  
HETATM   17  C   UNL     1      -6.919  10.368  68.917  1.00  0.00    -0.067 A  
HETATM   18  C   UNL     1      -6.725   9.673  70.214  1.00  0.00    -0.099 C  
HETATM   19  C   UNL     1      -7.134   8.161  67.583  1.00  0.00    -0.087 C  
HETATM   20  C   UNL     1      -7.064   8.216  70.017  1.00  0.00    -0.048 C  
HETATM   21  C   UNL     1      -6.141   6.371  68.943  1.00  0.00    -0.029 C  
HETATM   22  N   UNL     1      -6.373   7.751  68.772  1.00  0.00    -0.042 NA 
ENDROOT
BRANCH   3  23
HETATM   23  O   UNL     1      -8.761   5.550  67.182  1.00  0.00    -0.110 OA 
BRANCH  23  24
HETATM   24  C   UNL     1      -9.954   6.019  66.717  1.00  0.00    -0.174 C  
HETATM   25  O   UNL     1     -10.719   5.435  65.977  1.00  0.00    -0.170 OA 
BRANCH  24  26
HETATM   26  C   UNL     1     -10.208   7.404  67.369  1.00  0.00    -0.315 C  
HETATM   27  C   UNL     1     -10.562   8.617  66.852  1.00  0.00    -0.270 C  
BRANCH  27  28
HETATM   28  C   UNL     1     -10.897   9.892  67.636  1.00  0.00    -0.318 A  
HETATM   29  C   UNL     1     -10.803  11.162  67.056  1.00  0.00    -0.338 A  
HETATM   30  C   UNL     1     -11.283   9.882  69.004  1.00  0.00    -0.131 A  
HETATM   31  C   UNL     1     -11.579  11.077  69.737  1.00  0.00    -0.325 A  
HETATM   32  C   UNL     1     -11.159  12.350  67.739  1.00  0.00    -0.247 A  
HETATM   33  C   UNL     1     -11.534  12.327  69.094  1.00  0.00    -0.296 A  
BRANCH  32  34
HETATM   34  O   UNL     1     -11.124  13.581  67.116  1.00  0.00    -0.282 OA 
HETATM   35  C   UNL     1     -11.384  13.534  65.715  1.00  0.00    -0.305 C  
ENDBRANCH  32  34
BRANCH  33  36
HETATM   36  O   UNL     1     -11.754  13.567  69.655  1.00  0.00    -0.291 OA 
HETATM   37  C   UNL     1     -10.709  14.531  69.699  1.00  0.00    -0.103 C  
ENDBRANCH  33  36
BRANCH  31  38
HETATM   38  O   UNL     1     -11.882  11.111  71.073  1.00  0.00    -0.250 OA 
HETATM   39  C   UNL     1     -12.782  10.173  71.627  1.00  0.00    -0.447 C  
ENDBRANCH  31  38
ENDBRANCH  27  28
ENDBRANCH  24  26
ENDBRANCH  23  24
ENDBRANCH   3  23
BRANCH   5  40
HETATM   40  O   UNL     1      -7.437   2.168  67.088  1.00  0.00    -0.059 OA 
HETATM   41  C   UNL     1      -6.580   1.538  66.159  1.00  0.00    -0.023 C  
ENDBRANCH   5  40
BRANCH   8  42
HETATM   42  C   UNL     1      -8.214   4.440  64.447  1.00  0.00    -0.104 C  
HETATM   43  O   UNL     1      -8.239   5.345  63.644  1.00  0.00    -0.120 OA 
BRANCH  42  44
HETATM   44  O   UNL     1      -9.025   3.326  64.395  1.00  0.00    -0.110 OA 
HETATM   45  C   UNL     1      -9.438   2.733  63.156  1.00  0.00    -0.094 C  
ENDBRANCH  42  44
ENDBRANCH   8  42
BRANCH   6  46
HETATM   46  O   UNL     1      -7.539  15.647  67.465  1.00  0.00    -0.143 OA 
HETATM   47  C   UNL     1      -7.514  16.571  68.531  1.00  0.00    -0.193 C  
ENDBRANCH   6  46
TORSDOF 11
ENDMDL
MODEL       61
REMARK 921   NORMALIZED FREE ENERGY PREDICTED BY IDOCK:   -3.50 KCAL/MOL
REMARK 922        TOTAL FREE ENERGY PREDICTED BY IDOCK:   -7.79 KCAL/MOL
REMARK 923 INTER-LIGAND FREE ENERGY PREDICTED BY IDOCK:   -6.09 KCAL/MOL
REMARK 924 INTRA-LIGAND FREE ENERGY PREDICTED BY IDOCK:   -1.70 KCAL/MOL
REMARK 927      BINDING AFFINITY PREDICTED BY RF-SCORE:    0.00 PKD
ROOT
HETATM    1  C   UNL     1      -8.058  11.123  65.629  1.00  0.00     0.085 C  
HETATM    2  C   UNL     1      -9.210  11.184  64.680  1.00  0.00    -0.138 C  
HETATM    3  C   UNL     1     -10.583  11.013  65.465  1.00  0.00    -0.200 C  
HETATM    4  C   UNL     1      -6.183   7.054  72.226  1.00  0.00    -0.044 A  
HETATM    5  C   UNL     1     -10.915  12.485  65.514  1.00  0.00    -0.287 C  
HETATM    6  C   UNL     1      -5.564   5.795  72.397  1.00  0.00    -0.026 A  
HETATM    7  C   UNL     1      -5.325   4.950  71.318  1.00  0.00    -0.004 A  
HETATM    8  C   UNL     1      -9.792  13.030  66.568  1.00  0.00    -0.263 C  
HETATM    9  C   UNL     1      -8.420  11.939  66.903  1.00  0.00    -0.174 C  
HETATM   10  C   UNL     1      -5.704   5.328  70.036  1.00  0.00    -0.016 A  
HETATM   11  C   UNL     1      -6.314   6.582  69.852  1.00  0.00    -0.039 A  
HETATM   12  H   UNL     1      -7.405   9.409  70.990  1.00  0.00     0.000 HD 
HETATM   13  C   UNL     1      -6.539   7.441  70.922  1.00  0.00    -0.043 A  
HETATM   14  C   UNL     1      -7.992  11.023  68.187  1.00  0.00    -0.119 C  
HETATM   15  N   UNL     1      -7.133   8.604  70.426  1.00  0.00    -0.041 NA 
HETATM   16  C   UNL     1      -7.295   8.504  69.065  1.00  0.00    -0.081 A  
HETATM   17  C   UNL     1      -6.843   7.220  68.728  1.00  0.00    -0.073 A  
HETATM   18  C   UNL     1      -6.952   6.638  67.367  1.00  0.00    -0.078 C  
HETATM   19  C   UNL     1      -8.006   9.431  68.051  1.00  0.00    -0.092 C  
HETATM   20  C   UNL     1      -7.889   7.505  66.563  1.00  0.00    -0.102 C  
HETATM   21  C   UNL     1      -7.867   9.624  65.604  1.00  0.00    -0.107 C  
HETATM   22  N   UNL     1      -7.482   8.932  66.771  1.00  0.00    -0.082 NA 
ENDROOT
BRANCH   3  23
HETATM   23  O   UNL     1     -10.606  10.740  66.979  1.00  0.00    -0.235 OA 
BRANCH  23  24
HETATM   24  C   UNL     1     -11.468  10.384  67.975  1.00  0.00    -0.082 C  
HETATM   25  O   UNL     1     -12.398  11.043  68.393  1.00  0.00    -0.528 OA 
BRANCH  24  26
HETATM   26  C   UNL     1     -11.105   8.944  68.425  1.00  0.00     0.207 C  
HETATM   27  C   UNL     1     -11.014   7.762  67.751  1.00  0.00     0.008 C  
BRANCH  27  28
HETATM   28  C   UNL     1     -10.524   6.418  68.306  1.00  0.00    -0.270 A  
HETATM   29  C   UNL     1     -10.308   5.311  67.478  1.00  0.00    -0.221 A  
HETATM   30  C   UNL     1     -10.296   6.188  69.690  1.00  0.00    -0.277 A  
HETATM   31  C   UNL     1      -9.856   4.925  70.206  1.00  0.00    -0.236 A  
HETATM   32  C   UNL     1      -9.804   4.077  67.955  1.00  0.00    -0.015 A  
HETATM   33  C   UNL     1      -9.589   3.860  69.327  1.00  0.00    -0.162 A  
BRANCH  32  34
HETATM   34  O   UNL     1      -9.534   3.027  67.101  1.00  0.00    -0.176 OA 
HETATM   35  C   UNL     1      -8.421   3.247  66.238  1.00  0.00    -0.108 C  
ENDBRANCH  32  34
BRANCH  33  36
HETATM   36  O   UNL     1      -9.195   2.580  69.657  1.00  0.00    -0.111 OA 
HETATM   37  C   UNL     1      -8.231   2.367  70.680  1.00  0.00    -0.048 C  
ENDBRANCH  33  36
BRANCH  31  38
HETATM   38  O   UNL     1      -9.697   4.646  71.538  1.00  0.00    -0.157 OA 
HETATM   39  C   UNL     1      -9.378   5.676  72.452  1.00  0.00    -0.143 C  
ENDBRANCH  31  38
ENDBRANCH  27  28
ENDBRANCH  24  26
ENDBRANCH  23  24
ENDBRANCH   3  23
BRANCH   5  40
HETATM   40  O   UNL     1     -10.874  13.049  64.187  1.00  0.00    -0.378 OA 
HETATM   41  C   UNL     1     -12.022  13.710  63.698  1.00  0.00    -0.321 C  
ENDBRANCH   5  40
BRANCH   8  42
HETATM   42  C   UNL     1     -10.626  13.657  67.695  1.00  0.00    -0.241 C  
HETATM   43  O   UNL     1     -11.808  13.905  67.634  1.00  0.00    -0.348 OA 
BRANCH  42  44
HETATM   44  O   UNL     1      -9.838  13.871  68.806  1.00  0.00    -0.203 OA 
HETATM   45  C   UNL     1      -9.916  15.072  69.585  1.00  0.00    -0.103 C  
ENDBRANCH  42  44
ENDBRANCH   8  42
BRANCH   6  46
HETATM   46  O   UNL     1      -5.138   5.274  73.593  1.00  0.00    -0.012 OA 
HETATM   47  C   UNL     1      -5.381   3.901  73.812  1.00  0.00    -0.003 C  
ENDBRANCH   6  46
TORSDOF 11
ENDMDL
MODEL       62
REMARK 921   NORMALIZED FREE ENERGY PREDICTED BY IDOCK:   -3.31 KCAL/MOL
REMARK 922        TOTAL FREE ENERGY PREDICTED BY IDOCK:   -7.48 KCAL/MOL
REMARK 923 INTER-LIGAND FREE ENERGY PREDICTED BY IDOCK:   -7.61 KCAL/MOL
REMARK 924 INTRA-LIGAND FREE ENERGY PREDICTED BY IDOCK:    0.13 KCAL/MOL
REMARK 927      BINDING AFFINITY PREDICTED BY RF-SCORE:    0.00 PKD
ROOT
HETATM    1  C   UNL     1      -6.113   8.524  68.861  1.00  0.00    -0.044 C  
HETATM    2  C   UNL     1      -5.781   9.981  68.824  1.00  0.00    -0.034 C  
HETATM    3  C   UNL     1      -6.950  10.796  68.116  1.00  0.00    -0.072 C  
HETATM    4  C   UNL     1      -9.701   3.265  64.060  1.00  0.00    -0.154 A  
HETATM    5  C   UNL     1      -7.600  11.269  69.394  1.00  0.00     0.050 C  
HETATM    6  C   UNL     1      -9.193   2.467  63.009  1.00  0.00    -0.091 A  
HETATM    7  C   UNL     1      -7.900   2.640  62.527  1.00  0.00    -0.066 A  
HETATM    8  C   UNL     1      -8.229   9.874  69.967  1.00  0.00    -0.187 C  
HETATM    9  C   UNL     1      -7.614   8.366  69.239  1.00  0.00    -0.089 C  
HETATM   10  C   UNL     1      -7.075   3.617  63.070  1.00  0.00    -0.048 A  
HETATM   11  C   UNL     1      -7.567   4.411  64.122  1.00  0.00    -0.071 A  
HETATM   12  H   UNL     1      -9.892   5.234  66.216  1.00  0.00     0.000 HD 
HETATM   13  C   UNL     1      -8.852   4.233  64.622  1.00  0.00    -0.141 A  
HETATM   14  C   UNL     1      -8.247   7.270  68.205  1.00  0.00    -0.125 C  
HETATM   15  N   UNL     1      -9.040   5.145  65.664  1.00  0.00    -0.157 NA 
HETATM   16  C   UNL     1      -7.906   5.902  65.835  1.00  0.00    -0.105 A  
HETATM   17  C   UNL     1      -7.021   5.483  64.832  1.00  0.00    -0.053 A  
HETATM   18  C   UNL     1      -5.710   6.126  64.566  1.00  0.00    -0.022 C  
HETATM   19  C   UNL     1      -7.622   7.123  66.742  1.00  0.00    -0.093 C  
HETATM   20  C   UNL     1      -5.677   7.439  65.308  1.00  0.00    -0.037 C  
HETATM   21  C   UNL     1      -5.531   8.159  67.515  1.00  0.00    -0.038 C  
HETATM   22  N   UNL     1      -6.153   7.186  66.706  1.00  0.00    -0.037 NA 
ENDROOT
BRANCH   3  23
HETATM   23  O   UNL     1      -8.169  10.077  67.512  1.00  0.00    -0.113 OA 
BRANCH  23  24
HETATM   24  C   UNL     1      -9.161  10.272  66.596  1.00  0.00    -0.144 C  
HETATM   25  O   UNL     1      -9.824   9.409  66.058  1.00  0.00    -0.269 OA 
BRANCH  24  26
HETATM   26  C   UNL     1      -9.355  11.801  66.423  1.00  0.00    -0.229 C  
HETATM   27  C   UNL     1      -8.921  12.874  67.145  1.00  0.00    -0.219 C  
BRANCH  27  28
HETATM   28  C   UNL     1      -9.092  14.357  66.789  1.00  0.00    -0.278 A  
HETATM   29  C   UNL     1      -9.953  14.778  65.770  1.00  0.00    -0.375 A  
HETATM   30  C   UNL     1      -8.366  15.396  67.431  1.00  0.00    -0.204 A  
HETATM   31  C   UNL     1      -8.516  16.779  67.084  1.00  0.00    -0.186 A  
HETATM   32  C   UNL     1     -10.171  16.141  65.458  1.00  0.00    -0.331 A  
HETATM   33  C   UNL     1      -9.443  17.160  66.097  1.00  0.00    -0.201 A  
BRANCH  32  34
HETATM   34  O   UNL     1     -11.082  16.528  64.496  1.00  0.00    -0.821 OA 
HETATM   35  C   UNL     1     -11.929  15.476  64.038  1.00  0.00     0.054 C  
ENDBRANCH  32  34
BRANCH  33  36
HETATM   36  O   UNL     1      -9.685  18.431  65.622  1.00  0.00    -0.408 OA 
HETATM   37  C   UNL     1     -10.410  19.366  66.410  1.00  0.00    -0.483 C  
ENDBRANCH  33  36
BRANCH  31  38
HETATM   38  O   UNL     1      -7.781  17.798  67.630  1.00  0.00    -0.203 OA 
HETATM   39  C   UNL     1      -6.456  18.036  67.199  1.00  0.00    -0.172 C  
ENDBRANCH  31  38
ENDBRANCH  27  28
ENDBRANCH  24  26
ENDBRANCH  23  24
ENDBRANCH   3  23
BRANCH   5  40
HETATM   40  O   UNL     1      -6.628  11.925  70.234  1.00  0.00    -0.082 OA 
HETATM   41  C   UNL     1      -6.040  13.125  69.776  1.00  0.00    -0.126 C  
ENDBRANCH   5  40
BRANCH   8  42
HETATM   42  C   UNL     1      -9.732  10.171  70.074  1.00  0.00    -0.093 C  
HETATM   43  O   UNL     1     -10.315  11.051  69.483  1.00  0.00    -0.164 OA 
BRANCH  42  44
HETATM   44  O   UNL     1     -10.335   9.266  70.922  1.00  0.00    -0.248 OA 
HETATM   45  C   UNL     1     -11.618   9.507  71.517  1.00  0.00    -0.395 C  
ENDBRANCH  42  44
ENDBRANCH   8  42
BRANCH   6  46
HETATM   46  O   UNL     1      -9.879   1.470  62.364  1.00  0.00    -0.087 OA 
HETATM   47  C   UNL     1     -11.287   1.504  62.453  1.00  0.00    -0.219 C  
ENDBRANCH   6  46
TORSDOF 11
ENDMDL
MODEL       63
REMARK 921   NORMALIZED FREE ENERGY PREDICTED BY IDOCK:   -3.20 KCAL/MOL
REMARK 922        TOTAL FREE ENERGY PREDICTED BY IDOCK:   -7.29 KCAL/MOL
REMARK 923 INTER-LIGAND FREE ENERGY PREDICTED BY IDOCK:   -6.93 KCAL/MOL
REMARK 924 INTRA-LIGAND FREE ENERGY PREDICTED BY IDOCK:   -0.36 KCAL/MOL
REMARK 927      BINDING AFFINITY PREDICTED BY RF-SCORE:    0.00 PKD
ROOT
HETATM    1  C   UNL     1      -8.447   8.630  64.734  1.00  0.00    -0.168 C  
HETATM    2  C   UNL     1      -7.062   8.187  64.390  1.00  0.00    -0.078 C  
HETATM    3  C   UNL     1      -6.204   7.976  65.714  1.00  0.00    -0.041 C  
HETATM    4  C   UNL     1     -11.842  13.360  70.183  1.00  0.00    -0.342 A  
HETATM    5  C   UNL     1      -6.365   6.476  65.762  1.00  0.00    -0.039 C  
HETATM    6  C   UNL     1     -12.084  14.753  70.184  1.00  0.00    -0.327 A  
HETATM    7  C   UNL     1     -11.560  15.582  69.197  1.00  0.00    -0.374 A  
HETATM    8  C   UNL     1      -7.945   6.337  66.153  1.00  0.00    -0.112 C  
HETATM    9  C   UNL     1      -8.946   7.800  65.952  1.00  0.00    -0.155 C  
HETATM   10  C   UNL     1     -10.770  15.051  68.185  1.00  0.00    -0.256 A  
HETATM   11  C   UNL     1     -10.528  13.666  68.169  1.00  0.00    -0.250 A  
HETATM   12  H   UNL     1     -10.923  10.696  69.393  1.00  0.00     0.000 HD 
HETATM   13  C   UNL     1     -11.064  12.828  69.140  1.00  0.00    -0.189 A  
HETATM   14  C   UNL     1      -9.625   8.858  66.996  1.00  0.00    -0.232 C  
HETATM   15  N   UNL     1     -10.670  11.519  68.847  1.00  0.00    -0.205 NA 
HETATM   16  C   UNL     1      -9.892  11.507  67.715  1.00  0.00    -0.177 A  
HETATM   17  C   UNL     1      -9.757  12.851  67.338  1.00  0.00    -0.201 A  
HETATM   18  C   UNL     1      -8.887  13.313  66.229  1.00  0.00     0.214 C  
HETATM   19  C   UNL     1      -9.098  10.366  67.035  1.00  0.00    -0.139 C  
HETATM   20  C   UNL     1      -7.979  12.172  65.842  1.00  0.00     0.966 C  
HETATM   21  C   UNL     1      -8.170  10.115  64.772  1.00  0.00    -0.161 C  
HETATM   22  N   UNL     1      -8.824  10.941  65.710  1.00  0.00    -0.188 NA 
ENDROOT
BRANCH   3  23
HETATM   23  O   UNL     1      -6.789   8.296  67.101  1.00  0.00    -0.068 OA 
BRANCH  23  24
HETATM   24  C   UNL     1      -6.401   8.451  68.399  1.00  0.00    -0.055 C  
HETATM   25  O   UNL     1      -5.292   8.757  68.788  1.00  0.00    -0.033 OA 
BRANCH  24  26
HETATM   26  C   UNL     1      -7.651   8.251  69.296  1.00  0.00    -0.094 C  
HETATM   27  C   UNL     1      -8.241   9.035  70.245  1.00  0.00    -0.150 C  
BRANCH  27  28
HETATM   28  C   UNL     1      -9.558   8.760  70.981  1.00  0.00    -0.290 A  
HETATM   29  C   UNL     1     -10.727   9.473  70.695  1.00  0.00    -0.375 A  
HETATM   30  C   UNL     1      -9.677   7.802  72.024  1.00  0.00    -0.224 A  
HETATM   31  C   UNL     1     -10.905   7.560  72.722  1.00  0.00    -0.346 A  
HETATM   32  C   UNL     1     -11.969   9.202  71.320  1.00  0.00    -0.325 A  
HETATM   33  C   UNL     1     -12.072   8.256  72.355  1.00  0.00    -0.369 A  
BRANCH  32  34
HETATM   34  O   UNL     1     -13.120   9.874  70.964  1.00  0.00    -0.367 OA 
HETATM   35  C   UNL     1     -13.336  11.085  71.685  1.00  0.00    -0.243 C  
ENDBRANCH  32  34
BRANCH  33  36
HETATM   36  O   UNL     1     -13.317   8.170  72.939  1.00  0.00     0.165 OA 
HETATM   37  C   UNL     1     -14.358   7.437  72.306  1.00  0.00    -0.064 C  
ENDBRANCH  33  36
BRANCH  31  38
HETATM   38  O   UNL     1     -11.038   6.700  73.779  1.00  0.00    -0.031 OA 
HETATM   39  C   UNL     1     -10.314   5.486  73.811  1.00  0.00    -0.247 C  
ENDBRANCH  31  38
ENDBRANCH  27  28
ENDBRANCH  24  26
ENDBRANCH  23  24
ENDBRANCH   3  23
BRANCH   5  40
HETATM   40  O   UNL     1      -5.964   5.891  64.506  1.00  0.00    -0.024 OA 
HETATM   41  C   UNL     1      -6.286   4.540  64.254  1.00  0.00    -0.033 C  
ENDBRANCH   5  40
BRANCH   8  42
HETATM   42  C   UNL     1      -7.925   5.541  67.467  1.00  0.00    -0.101 C  
HETATM   43  O   UNL     1      -6.943   5.039  67.965  1.00  0.00    -0.058 OA 
BRANCH  42  44
HETATM   44  O   UNL     1      -9.188   5.503  68.018  1.00  0.00    -0.108 OA 
HETATM   45  C   UNL     1      -9.444   4.949  69.316  1.00  0.00    -0.142 C  
ENDBRANCH  42  44
ENDBRANCH   8  42
BRANCH   6  46
HETATM   46  O   UNL     1     -12.834  15.429  71.113  1.00  0.00    -0.388 OA 
HETATM   47  C   UNL     1     -14.081  14.867  71.457  1.00  0.00    -0.505 C  
ENDBRANCH   6  46
TORSDOF 11
ENDMDL
MODEL       64
REMARK 921   NORMALIZED FREE ENERGY PREDICTED BY IDOCK:   -3.19 KCAL/MOL
REMARK 922        TOTAL FREE ENERGY PREDICTED BY IDOCK:   -7.28 KCAL/MOL
REMARK 923 INTER-LIGAND FREE ENERGY PREDICTED BY IDOCK:   -6.09 KCAL/MOL
REMARK 924 INTRA-LIGAND FREE ENERGY PREDICTED BY IDOCK:   -1.20 KCAL/MOL
REMARK 927      BINDING AFFINITY PREDICTED BY RF-SCORE:    0.00 PKD
ROOT
HETATM    1  C   UNL     1      -8.572  14.866  68.122  1.00  0.00    -0.159 C  
HETATM    2  C   UNL     1      -8.421  15.470  66.764  1.00  0.00    -0.314 C  
HETATM    3  C   UNL     1      -8.914  14.450  65.647  1.00  0.00     0.854 C  
HETATM    4  C   UNL     1      -7.727   7.641  71.389  1.00  0.00    -0.081 A  
HETATM    5  C   UNL     1     -10.275  15.077  65.461  1.00  0.00    -0.378 C  
HETATM    6  C   UNL     1      -6.593   6.991  71.928  1.00  0.00    -0.052 A  
HETATM    7  C   UNL     1      -5.316   7.528  71.796  1.00  0.00    -0.035 A  
HETATM    8  C   UNL     1     -11.005  14.681  66.868  1.00  0.00    -0.324 C  
HETATM    9  C   UNL     1      -9.939  14.126  68.187  1.00  0.00    -0.232 C  
HETATM   10  C   UNL     1      -5.128   8.724  71.114  1.00  0.00    -0.028 A  
HETATM   11  C   UNL     1      -6.250   9.384  70.580  1.00  0.00    -0.064 A  
HETATM   12  H   UNL     1      -9.437   9.616  70.069  1.00  0.00     0.000 HD 
HETATM   13  C   UNL     1      -7.531   8.863  70.724  1.00  0.00    -0.099 A  
HETATM   14  C   UNL     1      -9.655  12.670  68.873  1.00  0.00     0.218 C  
HETATM   15  N   UNL     1      -8.426   9.745  70.112  1.00  0.00    -0.196 NA 
HETATM   16  C   UNL     1      -7.744  10.811  69.579  1.00  0.00    -0.066 A  
HETATM   17  C   UNL     1      -6.388  10.546  69.818  1.00  0.00    -0.091 A  
HETATM   18  C   UNL     1      -5.279  11.383  69.297  1.00  0.00    -0.044 C  
HETATM   19  C   UNL     1      -8.220  11.989  68.695  1.00  0.00    -0.052 C  
HETATM   20  C   UNL     1      -5.846  12.308  68.249  1.00  0.00    -0.057 C  
HETATM   21  C   UNL     1      -7.228  14.178  68.179  1.00  0.00    -0.128 C  
HETATM   22  N   UNL     1      -7.091  12.924  68.810  1.00  0.00    -0.103 NA 
ENDROOT
BRANCH   3  23
HETATM   23  O   UNL     1      -9.383  13.032  66.016  1.00  0.00    -0.152 OA 
BRANCH  23  24
HETATM   24  C   UNL     1      -9.573  11.804  65.453  1.00  0.00    -0.190 C  
HETATM   25  O   UNL     1      -9.309  11.486  64.312  1.00  0.00    -0.133 OA 
BRANCH  24  26
HETATM   26  C   UNL     1     -10.109  10.853  66.556  1.00  0.00    -0.269 C  
HETATM   27  C   UNL     1     -10.164   9.493  66.655  1.00  0.00    -0.310 C  
BRANCH  27  28
HETATM   28  C   UNL     1     -10.620   8.673  67.869  1.00  0.00    -0.223 A  
HETATM   29  C   UNL     1     -10.569   7.275  67.877  1.00  0.00    -0.266 A  
HETATM   30  C   UNL     1     -11.160   9.263  69.043  1.00  0.00     0.023 A  
HETATM   31  C   UNL     1     -11.601   8.493  70.168  1.00  0.00     0.097 A  
HETATM   32  C   UNL     1     -10.930   6.497  69.003  1.00  0.00    -0.321 A  
HETATM   33  C   UNL     1     -11.469   7.092  70.157  1.00  0.00    -0.205 A  
BRANCH  32  34
HETATM   34  O   UNL     1     -10.800   5.123  69.006  1.00  0.00    -0.014 OA 
HETATM   35  C   UNL     1      -9.476   4.661  68.746  1.00  0.00    -0.151 C  
ENDBRANCH  32  34
BRANCH  33  36
HETATM   36  O   UNL     1     -11.871   6.205  71.134  1.00  0.00    -0.244 OA 
HETATM   37  C   UNL     1     -11.158   6.117  72.361  1.00  0.00    -0.275 C  
ENDBRANCH  33  36
BRANCH  31  38
HETATM   38  O   UNL     1     -12.194   9.022  71.284  1.00  0.00    -0.302 OA 
HETATM   39  C   UNL     1     -12.085  10.402  71.567  1.00  0.00    -0.270 C  
ENDBRANCH  31  38
ENDBRANCH  27  28
ENDBRANCH  24  26
ENDBRANCH  23  24
ENDBRANCH   3  23
BRANCH   5  40
HETATM   40  O   UNL     1     -10.141  16.486  65.184  1.00  0.00    -0.536 OA 
HETATM   41  C   UNL     1     -11.035  17.386  65.804  1.00  0.00     0.163 C  
ENDBRANCH   5  40
BRANCH   8  42
HETATM   42  C   UNL     1     -12.236  13.877  66.424  1.00  0.00    -0.449 C  
HETATM   43  O   UNL     1     -12.863  13.116  67.126  1.00  0.00     0.314 OA 
BRANCH  42  44
HETATM   44  O   UNL     1     -12.546  14.168  65.113  1.00  0.00    -0.524 OA 
HETATM   45  C   UNL     1     -12.496  13.181  64.074  1.00  0.00    -0.270 C  
ENDBRANCH  42  44
ENDBRANCH   8  42
BRANCH   6  46
HETATM   46  O   UNL     1      -6.610   5.806  72.620  1.00  0.00    -0.063 OA 
HETATM   47  C   UNL     1      -7.542   4.835  72.198  1.00  0.00    -0.084 C  
ENDBRANCH   6  46
TORSDOF 11
ENDMDL
MODEL       65
REMARK 921   NORMALIZED FREE ENERGY PREDICTED BY IDOCK:   -3.10 KCAL/MOL
REMARK 922        TOTAL FREE ENERGY PREDICTED BY IDOCK:   -7.13 KCAL/MOL
REMARK 923 INTER-LIGAND FREE ENERGY PREDICTED BY IDOCK:   -6.63 KCAL/MOL
REMARK 924 INTRA-LIGAND FREE ENERGY PREDICTED BY IDOCK:   -0.50 KCAL/MOL
REMARK 927      BINDING AFFINITY PREDICTED BY RF-SCORE:    0.00 PKD
ROOT
HETATM    1  C   UNL     1     -11.372   9.721  67.619  1.00  0.00     0.269 C  
HETATM    2  C   UNL     1     -11.207  11.184  67.362  1.00  0.00    -0.363 C  
HETATM    3  C   UNL     1      -9.672  11.592  67.448  1.00  0.00    -0.179 C  
HETATM    4  C   UNL     1      -8.035   4.253  72.368  1.00  0.00    -0.088 A  
HETATM    5  C   UNL     1      -9.432  11.594  65.958  1.00  0.00    -0.229 C  
HETATM    6  C   UNL     1      -8.332   3.868  73.696  1.00  0.00    -0.088 A  
HETATM    7  C   UNL     1      -9.237   4.583  74.474  1.00  0.00    -0.120 A  
HETATM    8  C   UNL     1      -9.515   9.998  65.619  1.00  0.00    -0.278 C  
HETATM    9  C   UNL     1     -10.242   8.955  66.872  1.00  0.00    -0.347 C  
HETATM   10  C   UNL     1      -9.865   5.710  73.958  1.00  0.00    -0.190 A  
HETATM   11  C   UNL     1      -9.583   6.098  72.636  1.00  0.00    -0.160 A  
HETATM   12  H   UNL     1      -8.070   5.670  69.808  1.00  0.00     0.000 HD 
HETATM   13  C   UNL     1      -8.695   5.378  71.845  1.00  0.00    -0.135 A  
HETATM   14  C   UNL     1      -9.635   7.864  67.926  1.00  0.00    -0.169 C  
HETATM   15  N   UNL     1      -8.640   5.990  70.590  1.00  0.00    -0.133 NA 
HETATM   16  C   UNL     1      -9.469   7.085  70.566  1.00  0.00    -0.166 A  
HETATM   17  C   UNL     1     -10.001   7.181  71.860  1.00  0.00    -0.180 A  
HETATM   18  C   UNL     1     -10.858   8.302  72.319  1.00  0.00    -0.408 C  
HETATM   19  C   UNL     1      -9.686   8.178  69.492  1.00  0.00    -0.170 C  
HETATM   20  C   UNL     1     -10.764   9.409  71.297  1.00  0.00    -0.350 C  
HETATM   21  C   UNL     1     -11.493   9.802  69.123  1.00  0.00     0.099 C  
HETATM   22  N   UNL     1     -10.942   8.795  69.942  1.00  0.00    -0.218 NA 
ENDROOT
BRANCH   3  23
HETATM   23  O   UNL     1      -8.595  10.562  67.835  1.00  0.00    -0.121 OA 
BRANCH  23  24
HETATM   24  C   UNL     1      -7.506  10.428  68.645  1.00  0.00    -0.088 C  
HETATM   25  O   UNL     1      -6.986   9.386  68.986  1.00  0.00    -0.057 OA 
BRANCH  24  26
HETATM   26  C   UNL     1      -6.991  11.851  68.989  1.00  0.00    -0.098 C  
HETATM   27  C   UNL     1      -6.587  12.898  68.214  1.00  0.00    -0.091 C  
BRANCH  27  28
HETATM   28  C   UNL     1      -6.208  14.307  68.689  1.00  0.00    -0.088 A  
HETATM   29  C   UNL     1      -6.108  15.384  67.802  1.00  0.00    -0.173 A  
HETATM   30  C   UNL     1      -5.893  14.610  70.041  1.00  0.00    -0.131 A  
HETATM   31  C   UNL     1      -5.523  15.924  70.478  1.00  0.00    -0.142 A  
HETATM   32  C   UNL     1      -5.816  16.705  68.220  1.00  0.00    -0.118 A  
HETATM   33  C   UNL     1      -5.500  16.990  69.560  1.00  0.00    -0.170 A  
BRANCH  32  34
HETATM   34  O   UNL     1      -5.795  17.759  67.331  1.00  0.00    -0.141 OA 
HETATM   35  C   UNL     1      -5.601  17.373  65.972  1.00  0.00    -0.055 C  
ENDBRANCH  32  34
BRANCH  33  36
HETATM   36  O   UNL     1      -5.136  18.297  69.804  1.00  0.00    -0.178 OA 
HETATM   37  C   UNL     1      -6.034  19.181  70.464  1.00  0.00    -0.092 C  
ENDBRANCH  33  36
BRANCH  31  38
HETATM   38  O   UNL     1      -5.142  16.236  71.756  1.00  0.00    -0.268 OA 
HETATM   39  C   UNL     1      -5.148  15.248  72.767  1.00  0.00     0.275 C  
ENDBRANCH  31  38
ENDBRANCH  27  28
ENDBRANCH  24  26
ENDBRANCH  23  24
ENDBRANCH   3  23
BRANCH   5  40
HETATM   40  O   UNL     1     -10.397  12.439  65.299  1.00  0.00    -0.271 OA 
HETATM   41  C   UNL     1     -10.509  12.370  63.893  1.00  0.00    -0.439 C  
ENDBRANCH   5  40
BRANCH   8  42
HETATM   42  C   UNL     1      -8.145   9.687  64.998  1.00  0.00    -0.127 C  
HETATM   43  O   UNL     1      -7.080   9.799  65.561  1.00  0.00    -0.097 OA 
BRANCH  42  44
HETATM   44  O   UNL     1      -8.303   9.229  63.707  1.00  0.00    -0.160 OA 
HETATM   45  C   UNL     1      -7.234   9.244  62.750  1.00  0.00    -0.100 C  
ENDBRANCH  42  44
ENDBRANCH   8  42
BRANCH   6  46
HETATM   46  O   UNL     1      -7.793   2.790  74.351  1.00  0.00    -0.057 OA 
HETATM   47  C   UNL     1      -8.299   1.518  74.008  1.00  0.00    -0.046 C  
ENDBRANCH   6  46
TORSDOF 11
ENDMDL
MODEL       66
REMARK 921   NORMALIZED FREE ENERGY PREDICTED BY IDOCK:   -3.08 KCAL/MOL
REMARK 922        TOTAL FREE ENERGY PREDICTED BY IDOCK:   -7.10 KCAL/MOL
REMARK 923 INTER-LIGAND FREE ENERGY PREDICTED BY IDOCK:   -7.18 KCAL/MOL
REMARK 924 INTRA-LIGAND FREE ENERGY PREDICTED BY IDOCK:    0.08 KCAL/MOL
REMARK 927      BINDING AFFINITY PREDICTED BY RF-SCORE:    0.00 PKD
ROOT
HETATM    1  C   UNL     1      -6.009   7.443  67.110  1.00  0.00    -0.042 C  
HETATM    2  C   UNL     1      -5.948   6.541  68.299  1.00  0.00    -0.021 C  
HETATM    3  C   UNL     1      -7.368   5.873  68.560  1.00  0.00    -0.085 C  
HETATM    4  C   UNL     1     -11.295  12.488  63.916  1.00  0.00    -0.504 A  
HETATM    5  C   UNL     1      -7.039   4.555  67.901  1.00  0.00    -0.064 C  
HETATM    6  C   UNL     1     -11.542  13.858  64.166  1.00  0.00    -0.298 A  
HETATM    7  C   UNL     1     -10.935  14.523  65.227  1.00  0.00    -0.366 A  
HETATM    8  C   UNL     1      -6.965   4.993  66.329  1.00  0.00    -0.067 C  
HETATM    9  C   UNL     1      -6.839   6.742  65.996  1.00  0.00    -0.063 C  
HETATM   10  C   UNL     1     -10.071  13.844  66.077  1.00  0.00    -0.324 A  
HETATM   11  C   UNL     1      -9.812  12.483  65.834  1.00  0.00    -0.257 A  
HETATM   12  H   UNL     1     -10.201   9.780  64.098  1.00  0.00     0.000 HD 
HETATM   13  C   UNL     1     -10.399  11.815  64.765  1.00  0.00    -0.288 A  
HETATM   14  C   UNL     1      -7.879   7.858  65.410  1.00  0.00    -0.112 C  
HETATM   15  N   UNL     1      -9.936  10.496  64.773  1.00  0.00    -0.325 NA 
HETATM   16  C   UNL     1      -9.072  10.309  65.824  1.00  0.00    -0.170 A  
HETATM   17  C   UNL     1      -9.051  11.530  66.513  1.00  0.00    -0.199 A  
HETATM   18  C   UNL     1      -8.338  11.740  67.798  1.00  0.00    -0.146 C  
HETATM   19  C   UNL     1      -8.386   9.033  66.367  1.00  0.00    -0.115 C  
HETATM   20  C   UNL     1      -7.957  10.387  68.346  1.00  0.00    -0.110 C  
HETATM   21  C   UNL     1      -6.446   8.693  67.837  1.00  0.00    -0.057 C  
HETATM   22  N   UNL     1      -7.340   9.599  67.231  1.00  0.00    -0.087 NA 
ENDROOT
BRANCH   3  23
HETATM   23  O   UNL     1      -8.590   6.239  67.700  1.00  0.00    -0.115 OA 
BRANCH  23  24
HETATM   24  C   UNL     1      -9.953   6.237  67.748  1.00  0.00    -0.127 C  
HETATM   25  O   UNL     1     -10.689   5.374  67.315  1.00  0.00    -0.216 OA 
BRANCH  24  26
HETATM   26  C   UNL     1     -10.403   7.497  68.535  1.00  0.00    -0.224 C  
HETATM   27  C   UNL     1     -10.886   8.709  68.138  1.00  0.00    -0.018 C  
BRANCH  27  28
HETATM   28  C   UNL     1     -11.409   9.836  69.038  1.00  0.00    -0.013 A  
HETATM   29  C   UNL     1     -11.283  11.183  68.684  1.00  0.00    -0.314 A  
HETATM   30  C   UNL     1     -12.013   9.599  70.302  1.00  0.00    -0.101 A  
HETATM   31  C   UNL     1     -12.484  10.656  71.149  1.00  0.00    -0.418 A  
HETATM   32  C   UNL     1     -11.805  12.239  69.469  1.00  0.00    -0.315 A  
HETATM   33  C   UNL     1     -12.396  11.993  70.721  1.00  0.00    -0.308 A  
BRANCH  32  34
HETATM   34  O   UNL     1     -11.729  13.554  69.058  1.00  0.00    -0.282 OA 
HETATM   35  C   UNL     1     -10.741  14.323  69.740  1.00  0.00     0.072 C  
ENDBRANCH  32  34
BRANCH  33  36
HETATM   36  O   UNL     1     -12.766  13.122  71.420  1.00  0.00    -0.357 OA 
HETATM   37  C   UNL     1     -13.794  13.055  72.401  1.00  0.00    -0.427 C  
ENDBRANCH  33  36
BRANCH  31  38
HETATM   38  O   UNL     1     -13.004  10.469  72.403  1.00  0.00    -0.252 OA 
HETATM   39  C   UNL     1     -13.524   9.211  72.783  1.00  0.00    -0.191 C  
ENDBRANCH  31  38
ENDBRANCH  27  28
ENDBRANCH  24  26
ENDBRANCH  23  24
ENDBRANCH   3  23
BRANCH   5  40
HETATM   40  O   UNL     1      -5.833   4.002  68.469  1.00  0.00    -0.024 OA 
HETATM   41  C   UNL     1      -5.209   2.920  67.810  1.00  0.00    -0.012 C  
ENDBRANCH   5  40
BRANCH   8  42
HETATM   42  C   UNL     1      -8.027   4.112  65.656  1.00  0.00    -0.097 C  
HETATM   43  O   UNL     1      -8.921   4.514  64.946  1.00  0.00    -0.141 OA 
BRANCH  42  44
HETATM   44  O   UNL     1      -7.801   2.785  65.953  1.00  0.00    -0.079 OA 
HETATM   45  C   UNL     1      -8.865   1.874  66.259  1.00  0.00    -0.116 C  
ENDBRANCH  42  44
ENDBRANCH   8  42
BRANCH   6  46
HETATM   46  O   UNL     1     -12.370  14.664  63.427  1.00  0.00    -0.500 OA 
HETATM   47  C   UNL     1     -12.727  15.904  63.998  1.00  0.00     1.097 C  
ENDBRANCH   6  46
TORSDOF 11
ENDMDL
MODEL       67
REMARK 921   NORMALIZED FREE ENERGY PREDICTED BY IDOCK:   -2.99 KCAL/MOL
REMARK 922        TOTAL FREE ENERGY PREDICTED BY IDOCK:   -6.95 KCAL/MOL
REMARK 923 INTER-LIGAND FREE ENERGY PREDICTED BY IDOCK:   -6.82 KCAL/MOL
REMARK 924 INTRA-LIGAND FREE ENERGY PREDICTED BY IDOCK:   -0.13 KCAL/MOL
REMARK 927      BINDING AFFINITY PREDICTED BY RF-SCORE:    0.00 PKD
ROOT
HETATM    1  C   UNL     1      -7.996  14.295  67.827  1.00  0.00    -0.174 C  
HETATM    2  C   UNL     1      -8.702  15.062  66.756  1.00  0.00    -0.293 C  
HETATM    3  C   UNL     1     -10.106  14.388  66.427  1.00  0.00    -0.286 C  
HETATM    4  C   UNL     1      -7.159   6.638  69.891  1.00  0.00    -0.068 A  
HETATM    5  C   UNL     1     -10.930  15.343  67.257  1.00  0.00    -0.317 C  
HETATM    6  C   UNL     1      -6.233   5.657  69.468  1.00  0.00    -0.032 A  
HETATM    7  C   UNL     1      -5.362   5.889  68.408  1.00  0.00    -0.004 A  
HETATM    8  C   UNL     1     -10.499  14.905  68.770  1.00  0.00    -0.242 C  
HETATM    9  C   UNL     1      -9.031  13.901  68.920  1.00  0.00     0.101 C  
HETATM   10  C   UNL     1      -5.392   7.101  67.731  1.00  0.00    -0.020 A  
HETATM   11  C   UNL     1      -6.304   8.088  68.147  1.00  0.00    -0.054 A  
HETATM   12  H   UNL     1      -8.637   9.154  70.121  1.00  0.00     0.000 HD 
HETATM   13  C   UNL     1      -7.165   7.872  69.217  1.00  0.00    -0.080 A  
HETATM   14  C   UNL     1      -8.769  12.327  69.271  1.00  0.00     0.871 C  
HETATM   15  N   UNL     1      -7.925   9.030  69.401  1.00  0.00    -0.097 NA 
HETATM   16  C   UNL     1      -7.570   9.976  68.470  1.00  0.00    -0.087 A  
HETATM   17  C   UNL     1      -6.609   9.360  67.657  1.00  0.00    -0.063 A  
HETATM   18  C   UNL     1      -6.039   9.983  66.437  1.00  0.00    -0.067 C  
HETATM   19  C   UNL     1      -8.174  11.363  68.144  1.00  0.00    -0.143 C  
HETATM   20  C   UNL     1      -6.890  11.177  66.082  1.00  0.00    -0.004 C  
HETATM   21  C   UNL     1      -7.293  13.307  66.925  1.00  0.00     0.512 C  
HETATM   22  N   UNL     1      -7.108  11.970  67.334  1.00  0.00    -0.125 NA 
ENDROOT
BRANCH   3  23
HETATM   23  O   UNL     1     -10.541  13.081  67.112  1.00  0.00    -0.244 OA 
BRANCH  23  24
HETATM   24  C   UNL     1     -11.444  12.068  66.975  1.00  0.00    -0.338 C  
HETATM   25  O   UNL     1     -12.349  12.014  66.167  1.00  0.00    -0.449 OA 
BRANCH  24  26
HETATM   26  C   UNL     1     -11.061  10.949  67.979  1.00  0.00    -0.351 C  
HETATM   27  C   UNL     1     -11.681  10.452  69.088  1.00  0.00    -0.191 C  
BRANCH  27  28
HETATM   28  C   UNL     1     -11.239   9.250  69.932  1.00  0.00    -0.145 A  
HETATM   29  C   UNL     1     -11.386   7.935  69.478  1.00  0.00     0.249 A  
HETATM   30  C   UNL     1     -10.695   9.378  71.238  1.00  0.00    -0.421 A  
HETATM   31  C   UNL     1     -10.300   8.251  72.030  1.00  0.00    -0.279 A  
HETATM   32  C   UNL     1     -10.937   6.810  70.211  1.00  0.00    -0.291 A  
HETATM   33  C   UNL     1     -10.405   6.950  71.505  1.00  0.00    -0.203 A  
BRANCH  32  34
HETATM   34  O   UNL     1     -11.030   5.530  69.704  1.00  0.00    -0.306 OA 
HETATM   35  C   UNL     1     -10.082   5.237  68.681  1.00  0.00    -0.168 C  
ENDBRANCH  32  34
BRANCH  33  36
HETATM   36  O   UNL     1     -10.105   5.763  72.140  1.00  0.00    -0.177 OA 
HETATM   37  C   UNL     1     -11.094   5.091  72.910  1.00  0.00    -0.279 C  
ENDBRANCH  33  36
BRANCH  31  38
HETATM   38  O   UNL     1      -9.841   8.333  73.319  1.00  0.00    -0.220 OA 
HETATM   39  C   UNL     1      -8.479   8.093  73.611  1.00  0.00    -0.243 C  
ENDBRANCH  31  38
ENDBRANCH  27  28
ENDBRANCH  24  26
ENDBRANCH  23  24
ENDBRANCH   3  23
BRANCH   5  40
HETATM   40  O   UNL     1     -10.644  16.706  66.879  1.00  0.00    -0.302 OA 
HETATM   41  C   UNL     1     -10.577  17.688  67.891  1.00  0.00    -0.387 C  
ENDBRANCH   5  40
BRANCH   8  42
HETATM   42  C   UNL     1     -11.829  14.502  69.424  1.00  0.00    -0.325 C  
HETATM   43  O   UNL     1     -12.309  13.391  69.405  1.00  0.00    -0.236 OA 
BRANCH  42  44
HETATM   44  O   UNL     1     -12.390  15.585  70.066  1.00  0.00    -0.369 OA 
HETATM   45  C   UNL     1     -12.742  15.558  71.455  1.00  0.00    -0.434 C  
ENDBRANCH  42  44
ENDBRANCH   8  42
BRANCH   6  46
HETATM   46  O   UNL     1      -6.083   4.413  70.026  1.00  0.00    -0.017 OA 
HETATM   47  C   UNL     1      -5.771   3.354  69.147  1.00  0.00    -0.022 C  
ENDBRANCH   6  46
TORSDOF 11
ENDMDL
MODEL       68
REMARK 921   NORMALIZED FREE ENERGY PREDICTED BY IDOCK:   -2.95 KCAL/MOL
REMARK 922        TOTAL FREE ENERGY PREDICTED BY IDOCK:   -6.89 KCAL/MOL
REMARK 923 INTER-LIGAND FREE ENERGY PREDICTED BY IDOCK:   -4.75 KCAL/MOL
REMARK 924 INTRA-LIGAND FREE ENERGY PREDICTED BY IDOCK:   -2.14 KCAL/MOL
REMARK 927      BINDING AFFINITY PREDICTED BY RF-SCORE:    0.00 PKD
ROOT
HETATM    1  C   UNL     1      -9.358   6.828  69.228  1.00  0.00    -0.144 C  
HETATM    2  C   UNL     1     -10.246   5.996  68.362  1.00  0.00    -0.220 C  
HETATM    3  C   UNL     1      -9.798   6.110  66.839  1.00  0.00    -0.159 C  
HETATM    4  C   UNL     1      -5.656  13.869  68.676  1.00  0.00    -0.086 A  
HETATM    5  C   UNL     1      -9.029   4.811  66.809  1.00  0.00    -0.111 C  
HETATM    6  C   UNL     1      -6.099  15.179  68.972  1.00  0.00    -0.098 A  
HETATM    7  C   UNL     1      -7.430  15.444  69.277  1.00  0.00    -0.207 A  
HETATM    8  C   UNL     1      -7.743   5.179  67.746  1.00  0.00    -0.088 C  
HETATM    9  C   UNL     1      -7.887   6.644  68.755  1.00  0.00    -0.111 C  
HETATM   10  C   UNL     1      -8.363  14.414  69.287  1.00  0.00     0.151 A  
HETATM   11  C   UNL     1      -7.933  13.106  69.002  1.00  0.00     0.279 A  
HETATM   12  H   UNL     1      -5.613  10.971  68.272  1.00  0.00     0.000 HD 
HETATM   13  C   UNL     1      -6.601  12.830  68.715  1.00  0.00    -0.090 A  
HETATM   14  C   UNL     1      -7.224   8.136  68.683  1.00  0.00    -0.084 C  
HETATM   15  N   UNL     1      -6.481  11.455  68.498  1.00  0.00    -0.054 NA 
HETATM   16  C   UNL     1      -7.708  10.850  68.636  1.00  0.00    -0.122 A  
HETATM   17  C   UNL     1      -8.612  11.892  68.886  1.00  0.00     0.151 A  
HETATM   18  C   UNL     1     -10.082  11.704  68.977  1.00  0.00    -0.034 C  
HETATM   19  C   UNL     1      -8.162   9.394  68.379  1.00  0.00    -0.117 C  
HETATM   20  C   UNL     1     -10.410  10.331  68.445  1.00  0.00    -0.177 C  
HETATM   21  C   UNL     1     -10.132   8.121  69.114  1.00  0.00    -0.202 C  
HETATM   22  N   UNL     1      -9.459   9.359  69.072  1.00  0.00    -0.156 NA 
ENDROOT
BRANCH   3  23
HETATM   23  O   UNL     1      -8.651   7.044  66.415  1.00  0.00    -0.122 OA 
BRANCH  23  24
HETATM   24  C   UNL     1      -8.219   7.763  65.339  1.00  0.00    -0.139 C  
HETATM   25  O   UNL     1      -7.411   7.402  64.508  1.00  0.00    -0.075 OA 
BRANCH  24  26
HETATM   26  C   UNL     1      -9.009   9.098  65.312  1.00  0.00    -0.246 C  
HETATM   27  C   UNL     1      -8.628  10.392  65.101  1.00  0.00    -0.189 C  
BRANCH  27  28
HETATM   28  C   UNL     1      -9.544  11.617  64.985  1.00  0.00    -0.187 A  
HETATM   29  C   UNL     1      -9.386  12.738  65.807  1.00  0.00     0.075 A  
HETATM   30  C   UNL     1     -10.633  11.686  64.075  1.00  0.00    -0.426 A  
HETATM   31  C   UNL     1     -11.497  12.826  63.981  1.00  0.00    -0.417 A  
HETATM   32  C   UNL     1     -10.181  13.903  65.684  1.00  0.00    -0.328 A  
HETATM   33  C   UNL     1     -11.259  13.957  64.783  1.00  0.00    -0.369 A  
BRANCH  32  34
HETATM   34  O   UNL     1      -9.954  15.020  66.461  1.00  0.00    -0.245 OA 
HETATM   35  C   UNL     1      -8.845  15.811  66.037  1.00  0.00    -0.225 C  
ENDBRANCH  32  34
BRANCH  33  36
HETATM   36  O   UNL     1     -12.008  15.113  64.843  1.00  0.00    -0.293 OA 
HETATM   37  C   UNL     1     -11.622  16.258  64.092  1.00  0.00     0.200 C  
ENDBRANCH  33  36
BRANCH  31  38
HETATM   38  O   UNL     1     -12.598  12.898  63.169  1.00  0.00    -0.636 OA 
HETATM   39  C   UNL     1     -13.464  11.788  63.036  1.00  0.00     1.389 C  
ENDBRANCH  31  38
ENDBRANCH  27  28
ENDBRANCH  24  26
ENDBRANCH  23  24
ENDBRANCH   3  23
BRANCH   5  40
HETATM   40  O   UNL     1      -9.865   3.727  67.267  1.00  0.00    -0.163 OA 
HETATM   41  C   UNL     1      -9.247   2.578  67.807  1.00  0.00    -0.197 C  
ENDBRANCH   5  40
BRANCH   8  42
HETATM   42  C   UNL     1      -6.541   4.946  66.819  1.00  0.00    -0.050 C  
HETATM   43  O   UNL     1      -5.404   5.294  67.048  1.00  0.00    -0.008 OA 
BRANCH  42  44
HETATM   44  O   UNL     1      -6.935   4.254  65.694  1.00  0.00    -0.059 OA 
HETATM   45  C   UNL     1      -6.110   4.149  64.526  1.00  0.00    -0.022 C  
ENDBRANCH  42  44
ENDBRANCH   8  42
BRANCH   6  46
HETATM   46  O   UNL     1      -5.308  16.300  68.997  1.00  0.00    -0.109 OA 
HETATM   47  C   UNL     1      -5.668  17.314  69.909  1.00  0.00    -0.236 C  
ENDBRANCH   6  46
TORSDOF 11
ENDMDL
MODEL       69
REMARK 921   NORMALIZED FREE ENERGY PREDICTED BY IDOCK:   -2.88 KCAL/MOL
REMARK 922        TOTAL FREE ENERGY PREDICTED BY IDOCK:   -6.78 KCAL/MOL
REMARK 923 INTER-LIGAND FREE ENERGY PREDICTED BY IDOCK:   -5.44 KCAL/MOL
REMARK 924 INTRA-LIGAND FREE ENERGY PREDICTED BY IDOCK:   -1.34 KCAL/MOL
REMARK 927      BINDING AFFINITY PREDICTED BY RF-SCORE:    0.00 PKD
ROOT
HETATM    1  C   UNL     1      -8.908  14.559  68.174  1.00  0.00    -0.177 C  
HETATM    2  C   UNL     1      -8.598  15.245  66.884  1.00  0.00    -0.289 C  
HETATM    3  C   UNL     1      -8.691  14.216  65.674  1.00  0.00     1.514 C  
HETATM    4  C   UNL     1      -7.534   7.405  71.419  1.00  0.00    -0.080 A  
HETATM    5  C   UNL     1     -10.074  14.629  65.230  1.00  0.00    -0.360 C  
HETATM    6  C   UNL     1      -6.435   6.917  72.163  1.00  0.00    -0.053 A  
HETATM    7  C   UNL     1      -5.263   7.655  72.297  1.00  0.00    -0.036 A  
HETATM    8  C   UNL     1     -10.987  14.053  66.457  1.00  0.00    -0.306 C  
HETATM    9  C   UNL     1     -10.121  13.609  67.953  1.00  0.00    -0.244 C  
HETATM   10  C   UNL     1      -5.146   8.897  71.686  1.00  0.00    -0.038 A  
HETATM   11  C   UNL     1      -6.236   9.397  70.951  1.00  0.00    -0.074 A  
HETATM   12  H   UNL     1      -9.257   9.148  69.819  1.00  0.00     0.000 HD 
HETATM   13  C   UNL     1      -7.417   8.675  70.828  1.00  0.00    -0.080 A  
HETATM   14  C   UNL     1      -9.739  12.185  68.657  1.00  0.00    -0.090 C  
HETATM   15  N   UNL     1      -8.310   9.433  70.065  1.00  0.00    -0.159 NA 
HETATM   16  C   UNL     1      -7.722  10.619  69.697  1.00  0.00    -0.070 A  
HETATM   17  C   UNL     1      -6.413  10.559  70.197  1.00  0.00    -0.144 A  
HETATM   18  C   UNL     1      -5.377  11.586  69.922  1.00  0.00    -0.070 C  
HETATM   19  C   UNL     1      -8.205  11.748  68.756  1.00  0.00    -0.027 C  
HETATM   20  C   UNL     1      -5.875  12.460  68.798  1.00  0.00    -0.063 C  
HETATM   21  C   UNL     1      -7.506  14.089  68.486  1.00  0.00    -0.124 C  
HETATM   22  N   UNL     1      -7.290  12.843  69.110  1.00  0.00     0.066 NA 
ENDROOT
BRANCH   3  23
HETATM   23  O   UNL     1      -8.982  12.725  65.917  1.00  0.00     0.116 OA 
BRANCH  23  24
HETATM   24  C   UNL     1      -9.003  11.533  65.255  1.00  0.00     0.064 C  
HETATM   25  O   UNL     1      -8.718  11.350  64.089  1.00  0.00     0.188 OA 
BRANCH  24  26
HETATM   26  C   UNL     1      -9.373  10.427  66.279  1.00  0.00    -0.202 C  
HETATM   27  C   UNL     1     -10.422   9.559  66.361  1.00  0.00    -0.168 C  
BRANCH  27  28
HETATM   28  C   UNL     1     -10.605   8.424  67.376  1.00  0.00    -0.313 A  
HETATM   29  C   UNL     1     -10.816   8.676  68.736  1.00  0.00    -0.009 A  
HETATM   30  C   UNL     1     -10.532   7.049  67.023  1.00  0.00    -0.386 A  
HETATM   31  C   UNL     1     -10.686   5.992  67.979  1.00  0.00    -0.282 A  
HETATM   32  C   UNL     1     -11.043   7.651  69.685  1.00  0.00    -0.062 A  
HETATM   33  C   UNL     1     -10.962   6.294  69.325  1.00  0.00    -0.369 A  
BRANCH  32  34
HETATM   34  O   UNL     1     -11.320   7.935  71.007  1.00  0.00    -0.266 OA 
HETATM   35  C   UNL     1     -11.907   9.217  71.217  1.00  0.00    -0.343 C  
ENDBRANCH  32  34
BRANCH  33  36
HETATM   36  O   UNL     1     -11.104   5.407  70.371  1.00  0.00    -0.149 OA 
HETATM   37  C   UNL     1      -9.963   4.765  70.926  1.00  0.00    -0.213 C  
ENDBRANCH  33  36
BRANCH  31  38
HETATM   38  O   UNL     1     -10.549   4.660  67.688  1.00  0.00     0.101 OA 
HETATM   39  C   UNL     1      -9.317   4.152  67.218  1.00  0.00    -0.176 C  
ENDBRANCH  31  38
ENDBRANCH  27  28
ENDBRANCH  24  26
ENDBRANCH  23  24
ENDBRANCH   3  23
BRANCH   5  40
HETATM   40  O   UNL     1     -10.122  16.054  65.010  1.00  0.00    -0.463 OA 
HETATM   41  C   UNL     1     -11.368  16.651  64.718  1.00  0.00     0.023 C  
ENDBRANCH   5  40
BRANCH   8  42
HETATM   42  C   UNL     1     -11.959  13.088  65.764  1.00  0.00    -0.429 C  
HETATM   43  O   UNL     1     -12.638  12.257  66.324  1.00  0.00    -0.184 OA 
BRANCH  42  44
HETATM   44  O   UNL     1     -11.972  13.321  64.405  1.00  0.00    -0.370 OA 
HETATM   45  C   UNL     1     -12.144  12.269  63.446  1.00  0.00    -0.516 C  
ENDBRANCH  42  44
ENDBRANCH   8  42
BRANCH   6  46
HETATM   46  O   UNL     1      -6.390   5.711  72.816  1.00  0.00    -0.056 OA 
HETATM   47  C   UNL     1      -6.309   5.753  74.224  1.00  0.00    -0.070 C  
ENDBRANCH   6  46
TORSDOF 11
ENDMDL
MODEL       70
REMARK 921   NORMALIZED FREE ENERGY PREDICTED BY IDOCK:   -2.78 KCAL/MOL
REMARK 922        TOTAL FREE ENERGY PREDICTED BY IDOCK:   -6.60 KCAL/MOL
REMARK 923 INTER-LIGAND FREE ENERGY PREDICTED BY IDOCK:   -6.35 KCAL/MOL
REMARK 924 INTRA-LIGAND FREE ENERGY PREDICTED BY IDOCK:   -0.26 KCAL/MOL
REMARK 927      BINDING AFFINITY PREDICTED BY RF-SCORE:    0.00 PKD
ROOT
HETATM    1  C   UNL     1     -10.263  11.117  68.504  1.00  0.00    -0.209 C  
HETATM    2  C   UNL     1      -9.889  12.517  68.140  1.00  0.00    -0.221 C  
HETATM    3  C   UNL     1      -8.809  12.514  66.971  1.00  0.00    -0.212 C  
HETATM    4  C   UNL     1      -6.543   4.091  69.130  1.00  0.00    -0.040 A  
HETATM    5  C   UNL     1      -9.791  12.791  65.857  1.00  0.00    -0.238 C  
HETATM    6  C   UNL     1      -5.841   3.503  70.207  1.00  0.00    -0.018 A  
HETATM    7  C   UNL     1      -5.545   4.223  71.360  1.00  0.00    -0.008 A  
HETATM    8  C   UNL     1     -10.609  11.378  65.796  1.00  0.00    -0.315 C  
HETATM    9  C   UNL     1     -10.423  10.289  67.197  1.00  0.00    -0.311 C  
HETATM   10  C   UNL     1      -5.930   5.553  71.473  1.00  0.00    -0.029 A  
HETATM   11  C   UNL     1      -6.636   6.147  70.411  1.00  0.00    -0.048 A  
HETATM   12  H   UNL     1      -8.029   6.009  67.493  1.00  0.00     0.000 HD 
HETATM   13  C   UNL     1      -6.952   5.429  69.262  1.00  0.00    -0.056 A  
HETATM   14  C   UNL     1      -9.635   8.877  67.434  1.00  0.00    -0.201 C  
HETATM   15  N   UNL     1      -7.666   6.274  68.408  1.00  0.00    -0.102 NA 
HETATM   16  C   UNL     1      -7.807   7.513  68.984  1.00  0.00    -0.120 A  
HETATM   17  C   UNL     1      -7.110   7.443  70.198  1.00  0.00    -0.064 A  
HETATM   18  C   UNL     1      -6.895   8.606  71.095  1.00  0.00    -0.071 C  
HETATM   19  C   UNL     1      -8.385   8.837  68.429  1.00  0.00    -0.126 C  
HETATM   20  C   UNL     1      -7.251   9.857  70.329  1.00  0.00    -0.154 C  
HETATM   21  C   UNL     1      -9.177  10.887  69.529  1.00  0.00     0.247 C  
HETATM   22  N   UNL     1      -8.570   9.621  69.659  1.00  0.00    -0.170 NA 
ENDROOT
BRANCH   3  23
HETATM   23  O   UNL     1      -8.233  11.197  66.423  1.00  0.00    -0.162 OA 
BRANCH  23  24
HETATM   24  C   UNL     1      -7.088  10.692  65.879  1.00  0.00    -0.115 C  
HETATM   25  O   UNL     1      -5.993  11.215  65.892  1.00  0.00    -0.123 OA 
BRANCH  24  26
HETATM   26  C   UNL     1      -7.413   9.285  65.311  1.00  0.00    -0.098 C  
HETATM   27  C   UNL     1      -6.682   8.136  65.219  1.00  0.00    -0.052 C  
BRANCH  27  28
HETATM   28  C   UNL     1      -7.173   6.766  64.734  1.00  0.00    -0.082 A  
HETATM   29  C   UNL     1      -8.364   6.200  65.202  1.00  0.00    -0.129 A  
HETATM   30  C   UNL     1      -6.444   5.962  63.817  1.00  0.00    -0.029 A  
HETATM   31  C   UNL     1      -6.898   4.675  63.380  1.00  0.00    -0.043 A  
HETATM   32  C   UNL     1      -8.869   4.964  64.730  1.00  0.00    -0.147 A  
HETATM   33  C   UNL     1      -8.134   4.175  63.828  1.00  0.00    -0.091 A  
BRANCH  32  34
HETATM   34  O   UNL     1     -10.082   4.466  65.158  1.00  0.00    -0.200 OA 
HETATM   35  C   UNL     1     -10.159   4.244  66.564  1.00  0.00    -0.129 C  
ENDBRANCH  32  34
BRANCH  33  36
HETATM   36  O   UNL     1      -8.699   2.952  63.535  1.00  0.00    -0.086 OA 
HETATM   37  C   UNL     1      -9.768   2.859  62.602  1.00  0.00    -0.092 C  
ENDBRANCH  33  36
BRANCH  31  38
HETATM   38  O   UNL     1      -6.187   3.842  62.556  1.00  0.00    -0.017 OA 
HETATM   39  C   UNL     1      -5.405   2.796  63.097  1.00  0.00    -0.008 C  
ENDBRANCH  31  38
ENDBRANCH  27  28
ENDBRANCH  24  26
ENDBRANCH  23  24
ENDBRANCH   3  23
BRANCH   5  40
HETATM   40  O   UNL     1     -10.568  13.968  66.160  1.00  0.00    -0.283 OA 
HETATM   41  C   UNL     1     -10.681  14.974  65.175  1.00  0.00    -0.415 C  
ENDBRANCH   5  40
BRANCH   8  42
HETATM   42  C   UNL     1     -10.389  10.894  64.355  1.00  0.00    -0.361 C  
HETATM   43  O   UNL     1      -9.658   9.987  64.027  1.00  0.00    -0.285 OA 
BRANCH  42  44
HETATM   44  O   UNL     1     -11.169  11.624  63.484  1.00  0.00    -0.410 OA 
HETATM   45  C   UNL     1     -12.374  12.282  63.899  1.00  0.00    -0.509 C  
ENDBRANCH  42  44
ENDBRANCH   8  42
BRANCH   6  46
HETATM   46  O   UNL     1      -5.388   2.209  70.248  1.00  0.00    -0.007 OA 
HETATM   47  C   UNL     1      -5.447   1.474  69.045  1.00  0.00    -0.013 C  
ENDBRANCH   6  46
TORSDOF 11
ENDMDL
MODEL       71
REMARK 921   NORMALIZED FREE ENERGY PREDICTED BY IDOCK:   -2.77 KCAL/MOL
REMARK 922        TOTAL FREE ENERGY PREDICTED BY IDOCK:   -6.60 KCAL/MOL
REMARK 923 INTER-LIGAND FREE ENERGY PREDICTED BY IDOCK:   -6.00 KCAL/MOL
REMARK 924 INTRA-LIGAND FREE ENERGY PREDICTED BY IDOCK:   -0.59 KCAL/MOL
REMARK 927      BINDING AFFINITY PREDICTED BY RF-SCORE:    0.00 PKD
ROOT
HETATM    1  C   UNL     1     -10.716  11.400  68.370  1.00  0.00    -0.237 C  
HETATM    2  C   UNL     1     -10.087  12.725  68.082  1.00  0.00    -0.239 C  
HETATM    3  C   UNL     1      -8.831  12.543  67.122  1.00  0.00    -0.202 C  
HETATM    4  C   UNL     1      -8.212   3.932  69.612  1.00  0.00    -0.067 A  
HETATM    5  C   UNL     1      -9.553  12.932  65.854  1.00  0.00    -0.124 C  
HETATM    6  C   UNL     1      -7.801   3.273  70.794  1.00  0.00    -0.046 A  
HETATM    7  C   UNL     1      -7.611   3.968  71.984  1.00  0.00    -0.066 A  
HETATM    8  C   UNL     1     -10.542  11.650  65.644  1.00  0.00    -0.324 C  
HETATM    9  C   UNL     1     -10.762  10.575  67.051  1.00  0.00    -0.310 C  
HETATM   10  C   UNL     1      -7.815   5.341  72.032  1.00  0.00    -0.108 A  
HETATM   11  C   UNL     1      -8.231   6.007  70.865  1.00  0.00    -0.125 A  
HETATM   12  H   UNL     1      -9.098   6.006  67.747  1.00  0.00     0.000 HD 
HETATM   13  C   UNL     1      -8.442   5.317  69.676  1.00  0.00    -0.098 A  
HETATM   14  C   UNL     1     -10.239   9.071  67.418  1.00  0.00    -0.308 C  
HETATM   15  N   UNL     1      -8.866   6.236  68.713  1.00  0.00    -0.123 NA 
HETATM   16  C   UNL     1      -8.926   7.495  69.260  1.00  0.00    -0.136 A  
HETATM   17  C   UNL     1      -8.469   7.352  70.578  1.00  0.00    -0.137 A  
HETATM   18  C   UNL     1      -8.249   8.492  71.503  1.00  0.00    -0.199 C  
HETATM   19  C   UNL     1      -9.202   8.875  68.618  1.00  0.00    -0.137 C  
HETATM   20  C   UNL     1      -8.283   9.764  70.692  1.00  0.00     0.146 C  
HETATM   21  C   UNL     1      -9.870  11.040  69.569  1.00  0.00     0.161 C  
HETATM   22  N   UNL     1      -9.484   9.704  69.799  1.00  0.00    -0.206 NA 
ENDROOT
BRANCH   3  23
HETATM   23  O   UNL     1      -8.363  11.146  66.679  1.00  0.00    -0.149 OA 
BRANCH  23  24
HETATM   24  C   UNL     1      -7.261  10.509  66.189  1.00  0.00    -0.136 C  
HETATM   25  O   UNL     1      -6.168  11.002  66.001  1.00  0.00    -0.129 OA 
BRANCH  24  26
HETATM   26  C   UNL     1      -7.625   9.014  65.991  1.00  0.00    -0.094 C  
HETATM   27  C   UNL     1      -6.864   7.894  65.819  1.00  0.00    -0.056 C  
BRANCH  27  28
HETATM   28  C   UNL     1      -7.359   6.443  65.751  1.00  0.00    -0.080 A  
HETATM   29  C   UNL     1      -6.542   5.367  66.115  1.00  0.00    -0.048 A  
HETATM   30  C   UNL     1      -8.651   6.087  65.280  1.00  0.00    -0.103 A  
HETATM   31  C   UNL     1      -9.103   4.728  65.203  1.00  0.00    -0.155 A  
HETATM   32  C   UNL     1      -6.991   4.024  66.116  1.00  0.00    -0.062 A  
HETATM   33  C   UNL     1      -8.270   3.683  65.642  1.00  0.00    -0.097 A  
BRANCH  32  34
HETATM   34  O   UNL     1      -6.185   2.991  66.549  1.00  0.00    -0.024 OA 
HETATM   35  C   UNL     1      -5.549   2.267  65.498  1.00  0.00    -0.016 C  
ENDBRANCH  32  34
BRANCH  33  36
HETATM   36  O   UNL     1      -8.533   2.330  65.605  1.00  0.00    -0.089 OA 
HETATM   37  C   UNL     1      -9.285   1.717  66.644  1.00  0.00     0.028 C  
ENDBRANCH  33  36
BRANCH  31  38
HETATM   38  O   UNL     1     -10.312   4.343  64.686  1.00  0.00    -0.123 OA 
HETATM   39  C   UNL     1     -10.439   4.036  63.313  1.00  0.00    -0.120 C  
ENDBRANCH  31  38
ENDBRANCH  27  28
ENDBRANCH  24  26
ENDBRANCH  23  24
ENDBRANCH   3  23
BRANCH   5  40
HETATM   40  O   UNL     1     -10.193  14.215  66.019  1.00  0.00    -0.287 OA 
HETATM   41  C   UNL     1     -10.898  14.764  64.926  1.00  0.00    -0.416 C  
ENDBRANCH   5  40
BRANCH   8  42
HETATM   42  C   UNL     1     -10.145  11.108  64.262  1.00  0.00    -0.326 C  
HETATM   43  O   UNL     1      -9.035  10.747  63.946  1.00  0.00    -0.183 OA 
BRANCH  42  44
HETATM   44  O   UNL     1     -11.248  11.063  63.436  1.00  0.00    -0.077 OA 
HETATM   45  C   UNL     1     -12.469  11.749  63.744  1.00  0.00    -0.327 C  
ENDBRANCH  42  44
ENDBRANCH   8  42
BRANCH   6  46
HETATM   46  O   UNL     1      -7.553   1.929  70.909  1.00  0.00    -0.033 OA 
HETATM   47  C   UNL     1      -6.405   1.553  71.639  1.00  0.00    -0.014 C  
ENDBRANCH   6  46
TORSDOF 11
ENDMDL
MODEL       72
REMARK 921   NORMALIZED FREE ENERGY PREDICTED BY IDOCK:   -2.72 KCAL/MOL
REMARK 922        TOTAL FREE ENERGY PREDICTED BY IDOCK:   -6.50 KCAL/MOL
REMARK 923 INTER-LIGAND FREE ENERGY PREDICTED BY IDOCK:   -5.18 KCAL/MOL
REMARK 924 INTRA-LIGAND FREE ENERGY PREDICTED BY IDOCK:   -1.32 KCAL/MOL
REMARK 927      BINDING AFFINITY PREDICTED BY RF-SCORE:    0.00 PKD
ROOT
HETATM    1  C   UNL     1      -7.755   6.433  67.664  1.00  0.00    -0.102 C  
HETATM    2  C   UNL     1      -8.878   5.640  67.078  1.00  0.00    -0.111 C  
HETATM    3  C   UNL     1      -9.231   6.176  65.622  1.00  0.00     0.080 C  
HETATM    4  C   UNL     1      -5.384  14.047  67.620  1.00  0.00     0.070 A  
HETATM    5  C   UNL     1      -8.467   5.108  64.878  1.00  0.00    -0.149 C  
HETATM    6  C   UNL     1      -5.737  15.136  68.449  1.00  0.00    -0.109 A  
HETATM    7  C   UNL     1      -6.773  15.039  69.373  1.00  0.00    -0.158 A  
HETATM    8  C   UNL     1      -6.924   5.527  65.212  1.00  0.00    -0.060 C  
HETATM    9  C   UNL     1      -6.685   6.672  66.560  1.00  0.00    -0.056 C  
HETATM   10  C   UNL     1      -7.495  13.858  69.493  1.00  0.00     0.284 A  
HETATM   11  C   UNL     1      -7.148  12.765  68.678  1.00  0.00    -0.100 A  
HETATM   12  H   UNL     1      -5.299  11.383  66.410  1.00  0.00     0.000 HD 
HETATM   13  C   UNL     1      -6.102  12.848  67.766  1.00  0.00    -0.143 A  
HETATM   14  C   UNL     1      -6.268   8.250  66.642  1.00  0.00    -0.054 C  
HETATM   15  N   UNL     1      -5.987  11.610  67.127  1.00  0.00    -0.111 NA 
HETATM   16  C   UNL     1      -6.939  10.744  67.609  1.00  0.00    -0.082 A  
HETATM   17  C   UNL     1      -7.695  11.489  68.525  1.00  0.00    -0.134 A  
HETATM   18  C   UNL     1      -8.916  10.979  69.197  1.00  0.00    -0.000 C  
HETATM   19  C   UNL     1      -7.337   9.316  67.166  1.00  0.00    -0.091 C  
HETATM   20  C   UNL     1      -9.344   9.717  68.488  1.00  0.00    -0.142 C  
HETATM   21  C   UNL     1      -8.594   7.525  68.287  1.00  0.00    -0.124 C  
HETATM   22  N   UNL     1      -8.130   8.856  68.316  1.00  0.00    -0.109 NA 
ENDROOT
BRANCH   3  23
HETATM   23  O   UNL     1      -8.515   7.401  65.029  1.00  0.00    -0.094 OA 
BRANCH  23  24
HETATM   24  C   UNL     1      -8.697   8.382  64.098  1.00  0.00     0.212 C  
HETATM   25  O   UNL     1      -8.513   8.284  62.902  1.00  0.00    -0.133 OA 
BRANCH  24  26
HETATM   26  C   UNL     1      -9.266   9.628  64.826  1.00  0.00    -0.298 C  
HETATM   27  C   UNL     1     -10.301  10.471  64.541  1.00  0.00    -0.275 C  
BRANCH  27  28
HETATM   28  C   UNL     1     -10.834  11.609  65.420  1.00  0.00    -0.336 A  
HETATM   29  C   UNL     1     -11.476  11.362  66.639  1.00  0.00    -0.124 A  
HETATM   30  C   UNL     1     -10.755  12.978  65.048  1.00  0.00    -0.333 A  
HETATM   31  C   UNL     1     -11.271  14.037  65.864  1.00  0.00    -0.308 A  
HETATM   32  C   UNL     1     -11.928  12.395  67.496  1.00  0.00    -0.183 A  
HETATM   33  C   UNL     1     -11.849  13.746  67.113  1.00  0.00    -0.406 A  
BRANCH  32  34
HETATM   34  O   UNL     1     -12.492  12.121  68.725  1.00  0.00    -0.022 OA 
HETATM   35  C   UNL     1     -12.228  10.806  69.209  1.00  0.00    -0.114 C  
ENDBRANCH  32  34
BRANCH  33  36
HETATM   36  O   UNL     1     -12.420  14.634  68.000  1.00  0.00    -0.032 OA 
HETATM   37  C   UNL     1     -11.599  15.455  68.821  1.00  0.00    -0.368 C  
ENDBRANCH  33  36
BRANCH  31  38
HETATM   38  O   UNL     1     -11.277  15.359  65.504  1.00  0.00    -0.310 OA 
HETATM   39  C   UNL     1     -10.063  16.054  65.305  1.00  0.00    -0.123 C  
ENDBRANCH  31  38
ENDBRANCH  27  28
ENDBRANCH  24  26
ENDBRANCH  23  24
ENDBRANCH   3  23
BRANCH   5  40
HETATM   40  O   UNL     1      -8.884   3.799  65.318  1.00  0.00    -0.114 OA 
HETATM   41  C   UNL     1      -8.534   2.678  64.534  1.00  0.00    -0.088 C  
ENDBRANCH   5  40
BRANCH   8  42
HETATM   42  C   UNL     1      -6.304   5.763  63.827  1.00  0.00    -0.025 C  
HETATM   43  O   UNL     1      -5.720   6.765  63.483  1.00  0.00    -0.033 OA 
BRANCH  42  44
HETATM   44  O   UNL     1      -6.482   4.650  63.032  1.00  0.00    -0.025 OA 
HETATM   45  C   UNL     1      -5.381   3.880  62.530  1.00  0.00    -0.005 C  
ENDBRANCH  42  44
ENDBRANCH   8  42
BRANCH   6  46
HETATM   46  O   UNL     1      -5.129  16.365  68.449  1.00  0.00    -0.095 OA 
HETATM   47  C   UNL     1      -5.226  17.123  67.262  1.00  0.00    -0.144 C  
ENDBRANCH   6  46
TORSDOF 11
ENDMDL
MODEL       73
REMARK 921   NORMALIZED FREE ENERGY PREDICTED BY IDOCK:   -2.62 KCAL/MOL
REMARK 922        TOTAL FREE ENERGY PREDICTED BY IDOCK:   -6.34 KCAL/MOL
REMARK 923 INTER-LIGAND FREE ENERGY PREDICTED BY IDOCK:   -6.41 KCAL/MOL
REMARK 924 INTRA-LIGAND FREE ENERGY PREDICTED BY IDOCK:    0.07 KCAL/MOL
REMARK 927      BINDING AFFINITY PREDICTED BY RF-SCORE:    0.00 PKD
ROOT
HETATM    1  C   UNL     1      -9.735   8.731  67.557  1.00  0.00    -0.214 C  
HETATM    2  C   UNL     1      -8.981   7.559  67.018  1.00  0.00    -0.143 C  
HETATM    3  C   UNL     1      -7.487   7.979  66.664  1.00  0.00    -0.089 C  
HETATM    4  C   UNL     1     -10.061  16.573  66.147  1.00  0.00    -0.365 A  
HETATM    5  C   UNL     1      -6.872   7.430  67.929  1.00  0.00    -0.074 C  
HETATM    6  C   UNL     1     -10.825  17.320  65.221  1.00  0.00     0.004 A  
HETATM    7  C   UNL     1     -11.575  16.698  64.228  1.00  0.00     0.525 A  
HETATM    8  C   UNL     1      -7.444   8.479  69.044  1.00  0.00    -0.089 C  
HETATM    9  C   UNL     1      -8.812   9.508  68.539  1.00  0.00    -0.124 C  
HETATM   10  C   UNL     1     -11.580  15.313  64.120  1.00  0.00    -0.078 A  
HETATM   11  C   UNL     1     -10.830  14.558  65.040  1.00  0.00    -0.425 A  
HETATM   12  H   UNL     1      -8.881  14.332  67.613  1.00  0.00     0.000 HD 
HETATM   13  C   UNL     1     -10.093  15.171  66.047  1.00  0.00    -0.302 A  
HETATM   14  C   UNL     1      -8.958  11.093  68.170  1.00  0.00    -0.159 C  
HETATM   15  N   UNL     1      -9.481  14.170  66.805  1.00  0.00    -0.269 NA 
HETATM   16  C   UNL     1      -9.808  12.934  66.301  1.00  0.00    -0.273 A  
HETATM   17  C   UNL     1     -10.594  13.188  65.168  1.00  0.00    -0.332 A  
HETATM   18  C   UNL     1     -11.066  12.132  64.237  1.00  0.00    -0.403 C  
HETATM   19  C   UNL     1      -9.308  11.516  66.669  1.00  0.00    -0.189 C  
HETATM   20  C   UNL     1     -10.299  10.868  64.540  1.00  0.00    -0.348 C  
HETATM   21  C   UNL     1     -10.219   9.275  66.233  1.00  0.00    -0.203 C  
HETATM   22  N   UNL     1     -10.320  10.666  66.024  1.00  0.00    -0.245 NA 
ENDROOT
BRANCH   3  23
HETATM   23  O   UNL     1      -7.013   9.435  66.813  1.00  0.00    -0.080 OA 
BRANCH  23  24
HETATM   24  C   UNL     1      -6.073  10.294  66.324  1.00  0.00    -0.082 C  
HETATM   25  O   UNL     1      -5.187  10.022  65.540  1.00  0.00    -0.046 OA 
BRANCH  24  26
HETATM   26  C   UNL     1      -6.385  11.708  66.881  1.00  0.00    -0.142 C  
HETATM   27  C   UNL     1      -5.612  12.649  67.496  1.00  0.00    -0.121 C  
BRANCH  27  28
HETATM   28  C   UNL     1      -6.029  14.071  67.894  1.00  0.00    -0.144 A  
HETATM   29  C   UNL     1      -7.110  14.311  68.749  1.00  0.00    -0.105 A  
HETATM   30  C   UNL     1      -5.384  15.235  67.398  1.00  0.00     0.196 A  
HETATM   31  C   UNL     1      -5.788  16.562  67.759  1.00  0.00    -0.130 A  
HETATM   32  C   UNL     1      -7.482  15.608  69.177  1.00  0.00    -0.201 A  
HETATM   33  C   UNL     1      -6.839  16.753  68.674  1.00  0.00    -0.175 A  
BRANCH  32  34
HETATM   34  O   UNL     1      -8.508  15.807  70.078  1.00  0.00     0.156 OA 
HETATM   35  C   UNL     1      -9.761  15.267  69.664  1.00  0.00    -0.200 C  
ENDBRANCH  32  34
BRANCH  33  36
HETATM   36  O   UNL     1      -7.373  17.951  69.099  1.00  0.00    -0.222 OA 
HETATM   37  C   UNL     1      -8.215  18.708  68.239  1.00  0.00    -0.323 C  
ENDBRANCH  33  36
BRANCH  31  38
HETATM   38  O   UNL     1      -5.238  17.706  67.244  1.00  0.00    -0.120 OA 
HETATM   39  C   UNL     1      -5.707  18.240  66.023  1.00  0.00    -0.188 C  
ENDBRANCH  31  38
ENDBRANCH  27  28
ENDBRANCH  24  26
ENDBRANCH  23  24
ENDBRANCH   3  23
BRANCH   5  40
HETATM   40  O   UNL     1      -7.242   6.047  68.103  1.00  0.00    -0.076 OA 
HETATM   41  C   UNL     1      -6.414   5.050  67.542  1.00  0.00    -0.045 C  
ENDBRANCH   5  40
BRANCH   8  42
HETATM   42  C   UNL     1      -6.173   9.069  69.673  1.00  0.00    -0.039 C  
HETATM   43  O   UNL     1      -5.185   9.411  69.063  1.00  0.00    -0.036 OA 
BRANCH  42  44
HETATM   44  O   UNL     1      -6.328   9.182  71.038  1.00  0.00    -0.057 OA 
HETATM   45  C   UNL     1      -5.280   8.854  71.961  1.00  0.00    -0.049 C  
ENDBRANCH  42  44
ENDBRANCH   8  42
BRANCH   6  46
HETATM   46  O   UNL     1     -10.919  18.688  65.190  1.00  0.00    -0.543 OA 
HETATM   47  C   UNL     1      -9.796  19.415  65.640  1.00  0.00     0.157 C  
ENDBRANCH   6  46
TORSDOF 11
ENDMDL
MODEL       74
REMARK 921   NORMALIZED FREE ENERGY PREDICTED BY IDOCK:   -2.62 KCAL/MOL
REMARK 922        TOTAL FREE ENERGY PREDICTED BY IDOCK:   -6.34 KCAL/MOL
REMARK 923 INTER-LIGAND FREE ENERGY PREDICTED BY IDOCK:   -6.22 KCAL/MOL
REMARK 924 INTRA-LIGAND FREE ENERGY PREDICTED BY IDOCK:   -0.12 KCAL/MOL
REMARK 927      BINDING AFFINITY PREDICTED BY RF-SCORE:    0.00 PKD
ROOT
HETATM    1  C   UNL     1      -7.139  15.304  68.193  1.00  0.00    -0.126 C  
HETATM    2  C   UNL     1      -7.462  16.076  66.955  1.00  0.00    -0.264 C  
HETATM    3  C   UNL     1      -8.770  15.490  66.264  1.00  0.00    -0.248 C  
HETATM    4  C   UNL     1      -7.498   7.693  70.545  1.00  0.00    -0.079 A  
HETATM    5  C   UNL     1      -9.713  16.531  66.817  1.00  0.00    -0.258 C  
HETATM    6  C   UNL     1      -6.571   6.633  70.413  1.00  0.00    -0.048 A  
HETATM    7  C   UNL     1      -5.428   6.763  69.630  1.00  0.00    -0.015 A  
HETATM    8  C   UNL     1      -9.749  16.123  68.398  1.00  0.00    -0.219 C  
HETATM    9  C   UNL     1      -8.461  15.026  68.965  1.00  0.00    -0.200 C  
HETATM   10  C   UNL     1      -5.177   7.947  68.949  1.00  0.00    -0.023 A  
HETATM   11  C   UNL     1      -6.088   9.011  69.079  1.00  0.00    -0.043 A  
HETATM   12  H   UNL     1      -8.781  10.313  70.313  1.00  0.00     0.000 HD 
HETATM   13  C   UNL     1      -7.223   8.896  69.874  1.00  0.00    -0.052 A  
HETATM   14  C   UNL     1      -8.429  13.452  69.403  1.00  0.00     0.959 C  
HETATM   15  N   UNL     1      -7.912  10.111  69.821  1.00  0.00    -0.171 NA 
HETATM   16  C   UNL     1      -7.243  10.994  69.007  1.00  0.00    -0.111 A  
HETATM   17  C   UNL     1      -6.147  10.280  68.501  1.00  0.00    -0.043 A  
HETATM   18  C   UNL     1      -5.218  10.814  67.475  1.00  0.00    -0.036 C  
HETATM   19  C   UNL     1      -7.625  12.405  68.501  1.00  0.00    -0.122 C  
HETATM   20  C   UNL     1      -5.844  12.050  66.878  1.00  0.00    -0.071 C  
HETATM   21  C   UNL     1      -6.295  14.234  67.539  1.00  0.00    -0.006 C  
HETATM   22  N   UNL     1      -6.334  12.905  68.007  1.00  0.00    -0.093 NA 
ENDROOT
BRANCH   3  23
HETATM   23  O   UNL     1      -9.477  14.244  66.826  1.00  0.00    -0.253 OA 
BRANCH  23  24
HETATM   24  C   UNL     1     -10.600  13.493  66.636  1.00  0.00    -0.280 C  
HETATM   25  O   UNL     1     -11.516  13.744  65.880  1.00  0.00    -0.311 OA 
BRANCH  24  26
HETATM   26  C   UNL     1     -10.464  12.209  67.497  1.00  0.00    -0.229 C  
HETATM   27  C   UNL     1     -11.384  11.380  68.070  1.00  0.00    -0.372 C  
BRANCH  27  28
HETATM   28  C   UNL     1     -11.108  10.062  68.805  1.00  0.00    -0.219 A  
HETATM   29  C   UNL     1     -11.223   9.955  70.196  1.00  0.00    -0.347 A  
HETATM   30  C   UNL     1     -10.681   8.880  68.143  1.00  0.00    -0.148 A  
HETATM   31  C   UNL     1     -10.408   7.656  68.837  1.00  0.00    -0.212 A  
HETATM   32  C   UNL     1     -11.029   8.739  70.894  1.00  0.00    -0.262 A  
HETATM   33  C   UNL     1     -10.600   7.577  70.228  1.00  0.00    -0.229 A  
BRANCH  32  34
HETATM   34  O   UNL     1     -11.220   8.648  72.258  1.00  0.00    -0.353 OA 
HETATM   35  C   UNL     1     -10.015   8.523  73.009  1.00  0.00     0.119 C  
ENDBRANCH  32  34
BRANCH  33  36
HETATM   36  O   UNL     1     -10.354   6.496  71.048  1.00  0.00    -0.201 OA 
HETATM   37  C   UNL     1     -11.418   5.645  71.453  1.00  0.00     0.089 C  
ENDBRANCH  33  36
BRANCH  31  38
HETATM   38  O   UNL     1      -9.924   6.521  68.241  1.00  0.00    -0.136 OA 
HETATM   39  C   UNL     1      -8.860   6.595  67.314  1.00  0.00    -0.116 C  
ENDBRANCH  31  38
ENDBRANCH  27  28
ENDBRANCH  24  26
ENDBRANCH  23  24
ENDBRANCH   3  23
BRANCH   5  40
HETATM   40  O   UNL     1      -9.229  17.855  66.508  1.00  0.00    -0.271 OA 
HETATM   41  C   UNL     1     -10.170  18.884  66.286  1.00  0.00    -0.438 C  
ENDBRANCH   5  40
BRANCH   8  42
HETATM   42  C   UNL     1     -11.234  15.840  68.667  1.00  0.00    -0.351 C  
HETATM   43  O   UNL     1     -12.148  16.151  67.937  1.00  0.00     0.280 OA 
BRANCH  42  44
HETATM   44  O   UNL     1     -11.379  15.149  69.851  1.00  0.00    -0.251 OA 
HETATM   45  C   UNL     1     -12.658  14.926  70.459  1.00  0.00    -0.360 C  
ENDBRANCH  42  44
ENDBRANCH   8  42
BRANCH   6  46
HETATM   46  O   UNL     1      -6.677   5.404  71.012  1.00  0.00    -0.041 OA 
HETATM   47  C   UNL     1      -7.547   4.473  70.407  1.00  0.00    -0.053 C  
ENDBRANCH   6  46
TORSDOF 11
ENDMDL
MODEL       75
REMARK 921   NORMALIZED FREE ENERGY PREDICTED BY IDOCK:   -2.45 KCAL/MOL
REMARK 922        TOTAL FREE ENERGY PREDICTED BY IDOCK:   -6.07 KCAL/MOL
REMARK 923 INTER-LIGAND FREE ENERGY PREDICTED BY IDOCK:   -4.26 KCAL/MOL
REMARK 924 INTRA-LIGAND FREE ENERGY PREDICTED BY IDOCK:   -1.81 KCAL/MOL
REMARK 927      BINDING AFFINITY PREDICTED BY RF-SCORE:    0.00 PKD
ROOT
HETATM    1  C   UNL     1      -9.930   6.943  70.430  1.00  0.00    -0.190 C  
HETATM    2  C   UNL     1     -10.418   5.766  69.650  1.00  0.00    -0.363 C  
HETATM    3  C   UNL     1      -9.887   5.837  68.151  1.00  0.00    -0.135 C  
HETATM    4  C   UNL     1      -8.640  14.690  69.048  1.00  0.00    -0.097 A  
HETATM    5  C   UNL     1      -8.744   4.870  68.350  1.00  0.00    -0.101 C  
HETATM    6  C   UNL     1      -9.504  15.806  69.127  1.00  0.00    -0.255 A  
HETATM    7  C   UNL     1     -10.873  15.651  69.322  1.00  0.00    -0.250 A  
HETATM    8  C   UNL     1      -7.739   5.752  69.287  1.00  0.00    -0.089 C  
HETATM    9  C   UNL     1      -8.440   7.198  70.064  1.00  0.00    -0.140 C  
HETATM   10  C   UNL     1     -11.425  14.381  69.434  1.00  0.00    -0.330 A  
HETATM   11  C   UNL     1     -10.573  13.263  69.365  1.00  0.00     0.190 A  
HETATM   12  H   UNL     1      -7.634  11.942  69.072  1.00  0.00     0.000 HD 
HETATM   13  C   UNL     1      -9.202  13.410  69.189  1.00  0.00     0.582 A  
HETATM   14  C   UNL     1      -8.285   8.805  69.809  1.00  0.00    -0.117 C  
HETATM   15  N   UNL     1      -8.629  12.135  69.181  1.00  0.00     0.414 NA 
HETATM   16  C   UNL     1      -9.605  11.181  69.343  1.00  0.00     0.217 A  
HETATM   17  C   UNL     1     -10.814  11.888  69.392  1.00  0.00    -0.089 A  
HETATM   18  C   UNL     1     -12.148  11.239  69.436  1.00  0.00    -0.384 C  
HETATM   19  C   UNL     1      -9.543   9.637  69.278  1.00  0.00    -0.185 C  
HETATM   20  C   UNL     1     -11.968   9.781  69.092  1.00  0.00     0.638 C  
HETATM   21  C   UNL     1     -11.063   7.884  70.089  1.00  0.00    -0.201 C  
HETATM   22  N   UNL     1     -10.820   9.260  69.902  1.00  0.00    -0.233 NA 
ENDROOT
BRANCH   3  23
HETATM   23  O   UNL     1      -9.064   7.038  67.655  1.00  0.00    -0.124 OA 
BRANCH  23  24
HETATM   24  C   UNL     1      -8.633   7.614  66.496  1.00  0.00    -0.138 C  
HETATM   25  O   UNL     1      -7.867   7.126  65.690  1.00  0.00    -0.098 OA 
BRANCH  24  26
HETATM   26  C   UNL     1      -9.361   8.975  66.341  1.00  0.00    -0.264 C  
HETATM   27  C   UNL     1      -8.950  10.197  65.895  1.00  0.00    -0.182 C  
BRANCH  27  28
HETATM   28  C   UNL     1      -9.818  11.444  65.683  1.00  0.00    -0.274 A  
HETATM   29  C   UNL     1     -11.138  11.355  65.227  1.00  0.00    -0.198 A  
HETATM   30  C   UNL     1      -9.340  12.765  65.890  1.00  0.00     0.005 A  
HETATM   31  C   UNL     1     -10.150  13.928  65.674  1.00  0.00    -0.313 A  
HETATM   32  C   UNL     1     -11.979  12.484  65.076  1.00  0.00    -0.427 A  
HETATM   33  C   UNL     1     -11.492  13.787  65.278  1.00  0.00    -0.312 A  
BRANCH  32  34
HETATM   34  O   UNL     1     -13.299  12.358  64.694  1.00  0.00    -0.778 OA 
HETATM   35  C   UNL     1     -13.482  11.748  63.418  1.00  0.00     0.923 C  
ENDBRANCH  32  34
BRANCH  33  36
HETATM   36  O   UNL     1     -12.392  14.793  64.996  1.00  0.00    -0.319 OA 
HETATM   37  C   UNL     1     -12.364  15.448  63.734  1.00  0.00     0.471 C  
ENDBRANCH  33  36
BRANCH  31  38
HETATM   38  O   UNL     1      -9.700  15.217  65.792  1.00  0.00    -0.327 OA 
HETATM   39  C   UNL     1      -8.366  15.478  66.180  1.00  0.00     0.236 C  
ENDBRANCH  31  38
ENDBRANCH  27  28
ENDBRANCH  24  26
ENDBRANCH  23  24
ENDBRANCH   3  23
BRANCH   5  40
HETATM   40  O   UNL     1      -9.230   3.635  68.917  1.00  0.00    -0.133 OA 
HETATM   41  C   UNL     1      -9.188   2.466  68.127  1.00  0.00    -0.205 C  
ENDBRANCH   5  40
BRANCH   8  42
HETATM   42  C   UNL     1      -6.443   5.819  68.467  1.00  0.00    -0.042 C  
HETATM   43  O   UNL     1      -5.502   6.543  68.703  1.00  0.00    -0.014 OA 
BRANCH  42  44
HETATM   44  O   UNL     1      -6.489   4.909  67.432  1.00  0.00    -0.042 OA 
HETATM   45  C   UNL     1      -5.342   4.153  67.021  1.00  0.00    -0.013 C  
ENDBRANCH  42  44
ENDBRANCH   8  42
BRANCH   6  46
HETATM   46  O   UNL     1      -9.119  17.119  69.029  1.00  0.00    -0.230 OA 
HETATM   47  C   UNL     1     -10.145  18.073  68.862  1.00  0.00    -0.344 C  
ENDBRANCH   6  46
TORSDOF 11
ENDMDL
MODEL       76
REMARK 921   NORMALIZED FREE ENERGY PREDICTED BY IDOCK:   -2.35 KCAL/MOL
REMARK 922        TOTAL FREE ENERGY PREDICTED BY IDOCK:   -5.90 KCAL/MOL
REMARK 923 INTER-LIGAND FREE ENERGY PREDICTED BY IDOCK:   -5.44 KCAL/MOL
REMARK 924 INTRA-LIGAND FREE ENERGY PREDICTED BY IDOCK:   -0.46 KCAL/MOL
REMARK 927      BINDING AFFINITY PREDICTED BY RF-SCORE:    0.00 PKD
ROOT
HETATM    1  C   UNL     1      -9.890   5.402  68.344  1.00  0.00    -0.197 C  
HETATM    2  C   UNL     1      -8.805   4.661  69.056  1.00  0.00    -0.122 C  
HETATM    3  C   UNL     1      -8.309   5.488  70.321  1.00  0.00    -0.110 C  
HETATM    4  C   UNL     1     -11.566  13.010  66.640  1.00  0.00    -0.410 A  
HETATM    5  C   UNL     1      -9.114   4.711  71.335  1.00  0.00    -0.131 C  
HETATM    6  C   UNL     1     -11.174  13.828  65.556  1.00  0.00    -0.299 A  
HETATM    7  C   UNL     1     -10.215  13.409  64.639  1.00  0.00    -0.338 A  
HETATM    8  C   UNL     1     -10.632   5.195  70.976  1.00  0.00    -0.201 C  
HETATM    9  C   UNL     1     -10.858   6.005  69.402  1.00  0.00    -0.433 C  
HETATM   10  C   UNL     1      -9.610  12.166  64.779  1.00  0.00     0.026 A  
HETATM   11  C   UNL     1      -9.998  11.340  65.849  1.00  0.00    -0.277 A  
HETATM   12  H   UNL     1     -11.807  10.733  68.462  1.00  0.00     0.000 HD 
HETATM   13  C   UNL     1     -10.969  11.743  66.758  1.00  0.00    -0.288 A  
HETATM   14  C   UNL     1     -11.138   7.552  68.958  1.00  0.00     0.106 C  
HETATM   15  N   UNL     1     -11.150  10.711  67.683  1.00  0.00    -0.314 NA 
HETATM   16  C   UNL     1     -10.314   9.662  67.385  1.00  0.00    -0.247 A  
HETATM   17  C   UNL     1      -9.558  10.088  66.284  1.00  0.00    -0.256 A  
HETATM   18  C   UNL     1      -8.434   9.310  65.704  1.00  0.00    -0.149 C  
HETATM   19  C   UNL     1     -10.015   8.348  68.144  1.00  0.00    -0.191 C  
HETATM   20  C   UNL     1      -8.074   8.216  66.678  1.00  0.00    -0.103 C  
HETATM   21  C   UNL     1      -9.001   6.223  67.439  1.00  0.00    -0.109 C  
HETATM   22  N   UNL     1      -9.345   7.549  67.107  1.00  0.00    -0.137 NA 
ENDROOT
BRANCH   3  23
HETATM   23  O   UNL     1      -8.873   6.886  70.630  1.00  0.00    -0.148 OA 
BRANCH  23  24
HETATM   24  C   UNL     1      -8.785   7.877  71.563  1.00  0.00    -0.125 C  
HETATM   25  O   UNL     1      -8.930   7.752  72.762  1.00  0.00    -0.148 OA 
BRANCH  24  26
HETATM   26  C   UNL     1      -8.379   9.184  70.832  1.00  0.00    -0.231 C  
HETATM   27  C   UNL     1      -7.215   9.594  70.252  1.00  0.00    -0.137 C  
BRANCH  27  28
HETATM   28  C   UNL     1      -6.985  10.882  69.452  1.00  0.00    -0.125 A  
HETATM   29  C   UNL     1      -6.350  10.874  68.205  1.00  0.00    -0.057 A  
HETATM   30  C   UNL     1      -7.357  12.167  69.929  1.00  0.00     0.992 A  
HETATM   31  C   UNL     1      -7.124  13.371  69.186  1.00  0.00    -0.007 A  
HETATM   32  C   UNL     1      -6.175  12.039  67.420  1.00  0.00    -0.136 A  
HETATM   33  C   UNL     1      -6.542  13.306  67.907  1.00  0.00    -0.145 A  
BRANCH  32  34
HETATM   34  O   UNL     1      -5.609  11.988  66.163  1.00  0.00    -0.075 OA 
HETATM   35  C   UNL     1      -5.220  10.679  65.751  1.00  0.00    -0.107 C  
ENDBRANCH  32  34
BRANCH  33  36
HETATM   36  O   UNL     1      -6.219  14.361  67.079  1.00  0.00    -0.036 OA 
HETATM   37  C   UNL     1      -7.205  15.323  66.726  1.00  0.00     0.464 C  
ENDBRANCH  33  36
BRANCH  31  38
HETATM   38  O   UNL     1      -7.402  14.631  69.646  1.00  0.00    -0.143 OA 
HETATM   39  C   UNL     1      -6.627  15.203  70.680  1.00  0.00     0.248 C  
ENDBRANCH  31  38
ENDBRANCH  27  28
ENDBRANCH  24  26
ENDBRANCH  23  24
ENDBRANCH   3  23
BRANCH   5  40
HETATM   40  O   UNL     1      -8.845   3.299  71.208  1.00  0.00    -0.078 OA 
HETATM   41  C   UNL     1      -9.292   2.431  72.229  1.00  0.00    -0.093 C  
ENDBRANCH   5  40
BRANCH   8  42
HETATM   42  C   UNL     1     -11.136   5.815  72.288  1.00  0.00    -0.276 C  
HETATM   43  O   UNL     1     -11.834   6.800  72.374  1.00  0.00    -0.259 OA 
BRANCH  42  44
HETATM   44  O   UNL     1     -10.701   5.069  73.363  1.00  0.00    -0.219 OA 
HETATM   45  C   UNL     1      -9.717   5.552  74.287  1.00  0.00    -0.177 C  
ENDBRANCH  42  44
ENDBRANCH   8  42
BRANCH   6  46
HETATM   46  O   UNL     1     -11.668  15.079  65.284  1.00  0.00    -0.302 OA 
HETATM   47  C   UNL     1     -11.068  16.162  65.959  1.00  0.00     0.064 C  
ENDBRANCH   6  46
TORSDOF 11
ENDMDL
MODEL       77
REMARK 921   NORMALIZED FREE ENERGY PREDICTED BY IDOCK:   -2.35 KCAL/MOL
REMARK 922        TOTAL FREE ENERGY PREDICTED BY IDOCK:   -5.90 KCAL/MOL
REMARK 923 INTER-LIGAND FREE ENERGY PREDICTED BY IDOCK:   -5.37 KCAL/MOL
REMARK 924 INTRA-LIGAND FREE ENERGY PREDICTED BY IDOCK:   -0.53 KCAL/MOL
REMARK 927      BINDING AFFINITY PREDICTED BY RF-SCORE:    0.00 PKD
ROOT
HETATM    1  C   UNL     1      -6.606   7.975  69.538  1.00  0.00    -0.038 C  
HETATM    2  C   UNL     1      -5.957   9.321  69.583  1.00  0.00    -0.036 C  
HETATM    3  C   UNL     1      -6.738  10.342  68.646  1.00  0.00    -0.053 C  
HETATM    4  C   UNL     1     -10.181   3.438  64.040  1.00  0.00    -0.212 A  
HETATM    5  C   UNL     1      -7.522  10.999  69.758  1.00  0.00     0.135 C  
HETATM    6  C   UNL     1      -9.653   2.506  63.117  1.00  0.00    -0.095 A  
HETATM    7  C   UNL     1      -8.282   2.371  62.925  1.00  0.00    -0.073 A  
HETATM    8  C   UNL     1      -8.552   9.801  70.172  1.00  0.00    -0.214 C  
HETATM    9  C   UNL     1      -8.150   8.165  69.583  1.00  0.00    -0.118 C  
HETATM   10  C   UNL     1      -7.394   3.165  63.640  1.00  0.00    -0.058 A  
HETATM   11  C   UNL     1      -7.907   4.090  64.567  1.00  0.00    -0.085 A  
HETATM   12  H   UNL     1     -10.378   5.489  66.118  1.00  0.00     0.000 HD 
HETATM   13  C   UNL     1      -9.275   4.219  64.778  1.00  0.00    -0.156 A  
HETATM   14  C   UNL     1      -8.778   7.193  68.429  1.00  0.00    -0.125 C  
HETATM   15  N   UNL     1      -9.471   5.192  65.762  1.00  0.00    -0.158 NA 
HETATM   16  C   UNL     1      -8.259   5.688  66.178  1.00  0.00    -0.110 A  
HETATM   17  C   UNL     1      -7.298   5.044  65.386  1.00  0.00    -0.072 A  
HETATM   18  C   UNL     1      -5.851   5.372  65.412  1.00  0.00    -0.021 C  
HETATM   19  C   UNL     1      -7.907   6.853  67.133  1.00  0.00    -0.109 C  
HETATM   20  C   UNL     1      -5.683   6.676  66.153  1.00  0.00    -0.025 C  
HETATM   21  C   UNL     1      -5.850   7.436  68.346  1.00  0.00    -0.023 C  
HETATM   22  N   UNL     1      -6.488   6.591  67.415  1.00  0.00    -0.037 NA 
ENDROOT
BRANCH   3  23
HETATM   23  O   UNL     1      -7.931   9.884  67.789  1.00  0.00    -0.104 OA 
BRANCH  23  24
HETATM   24  C   UNL     1      -8.744  10.330  66.788  1.00  0.00    -0.126 C  
HETATM   25  O   UNL     1      -9.592   9.685  66.207  1.00  0.00    -0.186 OA 
BRANCH  24  26
HETATM   26  C   UNL     1      -8.455  11.841  66.578  1.00  0.00    -0.125 C  
HETATM   27  C   UNL     1      -9.231  12.955  66.708  1.00  0.00    -0.230 C  
BRANCH  27  28
HETATM   28  C   UNL     1      -8.778  14.416  66.580  1.00  0.00    -0.131 A  
HETATM   29  C   UNL     1      -7.497  14.828  66.963  1.00  0.00     0.095 A  
HETATM   30  C   UNL     1      -9.629  15.452  66.110  1.00  0.00    -0.362 A  
HETATM   31  C   UNL     1      -9.207  16.818  66.008  1.00  0.00    -0.201 A  
HETATM   32  C   UNL     1      -7.035  16.157  66.804  1.00  0.00    -0.072 A  
HETATM   33  C   UNL     1      -7.888  17.174  66.343  1.00  0.00    -0.317 A  
BRANCH  32  34
HETATM   34  O   UNL     1      -5.742  16.517  67.124  1.00  0.00    -0.148 OA 
HETATM   35  C   UNL     1      -5.563  16.902  68.485  1.00  0.00    -0.131 C  
ENDBRANCH  32  34
BRANCH  33  36
HETATM   36  O   UNL     1      -7.334  18.437  66.336  1.00  0.00    -0.221 OA 
HETATM   37  C   UNL     1      -7.830  19.443  67.210  1.00  0.00    -0.257 C  
ENDBRANCH  33  36
BRANCH  31  38
HETATM   38  O   UNL     1     -10.021  17.853  65.630  1.00  0.00    -0.539 OA 
HETATM   39  C   UNL     1     -11.028  18.329  66.501  1.00  0.00     0.206 C  
ENDBRANCH  31  38
ENDBRANCH  27  28
ENDBRANCH  24  26
ENDBRANCH  23  24
ENDBRANCH   3  23
BRANCH   5  40
HETATM   40  O   UNL     1      -6.627  11.460  70.792  1.00  0.00    -0.064 OA 
HETATM   41  C   UNL     1      -5.834  12.601  70.540  1.00  0.00    -0.129 C  
ENDBRANCH   5  40
BRANCH   8  42
HETATM   42  C   UNL     1      -9.939  10.424  69.956  1.00  0.00     0.039 C  
HETATM   43  O   UNL     1     -10.147  11.522  69.491  1.00  0.00     0.134 OA 
BRANCH  42  44
HETATM   44  O   UNL     1     -10.923   9.538  70.340  1.00  0.00    -0.239 OA 
HETATM   45  C   UNL     1     -11.023   9.033  71.678  1.00  0.00    -0.365 C  
ENDBRANCH  42  44
ENDBRANCH   8  42
BRANCH   6  46
HETATM   46  O   UNL     1     -10.393   1.658  62.333  1.00  0.00    -0.093 OA 
HETATM   47  C   UNL     1     -11.754   1.501  62.671  1.00  0.00    -0.125 C  
ENDBRANCH   6  46
TORSDOF 11
ENDMDL
MODEL       78
REMARK 921   NORMALIZED FREE ENERGY PREDICTED BY IDOCK:   -2.25 KCAL/MOL
REMARK 922        TOTAL FREE ENERGY PREDICTED BY IDOCK:   -5.74 KCAL/MOL
REMARK 923 INTER-LIGAND FREE ENERGY PREDICTED BY IDOCK:   -5.03 KCAL/MOL
REMARK 924 INTRA-LIGAND FREE ENERGY PREDICTED BY IDOCK:   -0.71 KCAL/MOL
REMARK 927      BINDING AFFINITY PREDICTED BY RF-SCORE:    0.00 PKD
ROOT
HETATM    1  C   UNL     1      -9.821   3.847  70.180  1.00  0.00    -0.163 C  
HETATM    2  C   UNL     1      -9.328   3.011  71.316  1.00  0.00    -0.208 C  
HETATM    3  C   UNL     1      -8.092   3.717  72.026  1.00  0.00    -0.072 C  
HETATM    4  C   UNL     1      -6.588   8.507  64.574  1.00  0.00    -0.066 A  
HETATM    5  C   UNL     1      -8.887   4.297  73.172  1.00  0.00    -0.099 C  
HETATM    6  C   UNL     1      -6.080   8.202  63.291  1.00  0.00    -0.072 A  
HETATM    7  C   UNL     1      -5.918   6.887  62.867  1.00  0.00    -0.040 A  
HETATM    8  C   UNL     1      -9.757   5.448  72.406  1.00  0.00    -0.180 C  
HETATM    9  C   UNL     1      -9.831   5.337  70.627  1.00  0.00    -0.264 C  
HETATM   10  C   UNL     1      -6.249   5.835  63.712  1.00  0.00    -0.025 A  
HETATM   11  C   UNL     1      -6.762   6.126  64.989  1.00  0.00    -0.043 A  
HETATM   12  H   UNL     1      -7.723   8.224  67.257  1.00  0.00     0.000 HD 
HETATM   13  C   UNL     1      -6.944   7.437  65.413  1.00  0.00    -0.059 A  
HETATM   14  C   UNL     1      -9.157   6.198  69.412  1.00  0.00    -0.135 C  
HETATM   15  N   UNL     1      -7.484   7.404  66.701  1.00  0.00    -0.087 NA 
HETATM   16  C   UNL     1      -7.644   6.101  67.109  1.00  0.00    -0.092 A  
HETATM   17  C   UNL     1      -7.135   5.317  66.064  1.00  0.00    -0.068 A  
HETATM   18  C   UNL     1      -6.994   3.841  66.133  1.00  0.00    -0.062 C  
HETATM   19  C   UNL     1      -8.069   5.503  68.471  1.00  0.00    -0.099 C  
HETATM   20  C   UNL     1      -7.172   3.423  67.572  1.00  0.00    -0.058 C  
HETATM   21  C   UNL     1      -8.908   3.284  69.115  1.00  0.00    -0.104 C  
HETATM   22  N   UNL     1      -8.391   4.116  68.101  1.00  0.00    -0.092 NA 
ENDROOT
BRANCH   3  23
HETATM   23  O   UNL     1      -7.509   5.034  71.485  1.00  0.00    -0.081 OA 
BRANCH  23  24
HETATM   24  C   UNL     1      -6.375   5.789  71.547  1.00  0.00    -0.044 C  
HETATM   25  O   UNL     1      -5.294   5.433  71.969  1.00  0.00    -0.015 OA 
BRANCH  24  26
HETATM   26  C   UNL     1      -6.684   7.165  70.900  1.00  0.00    -0.052 C  
HETATM   27  C   UNL     1      -6.293   8.437  71.204  1.00  0.00    -0.039 C  
BRANCH  27  28
HETATM   28  C   UNL     1      -6.584   9.710  70.399  1.00  0.00    -0.096 A  
HETATM   29  C   UNL     1      -5.875  10.897  70.612  1.00  0.00    -0.107 A  
HETATM   30  C   UNL     1      -7.610   9.789  69.419  1.00  0.00    -0.104 A  
HETATM   31  C   UNL     1      -7.890  10.986  68.681  1.00  0.00    -0.136 A  
HETATM   32  C   UNL     1      -6.084  12.069  69.846  1.00  0.00    -0.150 A  
HETATM   33  C   UNL     1      -7.107  12.137  68.883  1.00  0.00    -0.098 A  
BRANCH  32  34
HETATM   34  O   UNL     1      -5.319  13.202  70.031  1.00  0.00    -0.088 OA 
HETATM   35  C   UNL     1      -5.828  14.095  71.020  1.00  0.00    -0.217 C  
ENDBRANCH  32  34
BRANCH  33  36
HETATM   36  O   UNL     1      -7.262  13.371  68.288  1.00  0.00    -0.090 OA 
HETATM   37  C   UNL     1      -8.313  14.237  68.695  1.00  0.00    -0.135 C  
ENDBRANCH  33  36
BRANCH  31  38
HETATM   38  O   UNL     1      -8.917  11.120  67.784  1.00  0.00    -0.135 OA 
HETATM   39  C   UNL     1      -9.522   9.977  67.212  1.00  0.00    -0.154 C  
ENDBRANCH  31  38
ENDBRANCH  27  28
ENDBRANCH  24  26
ENDBRANCH  23  24
ENDBRANCH   3  23
BRANCH   5  40
HETATM   40  O   UNL     1      -9.639   3.258  73.832  1.00  0.00    -0.094 OA 
HETATM   41  C   UNL     1     -11.014   3.469  74.075  1.00  0.00    -0.139 C  
ENDBRANCH   5  40
BRANCH   8  42
HETATM   42  C   UNL     1      -9.355   6.744  73.124  1.00  0.00    -0.133 C  
HETATM   43  O   UNL     1      -8.678   6.808  74.125  1.00  0.00    -0.138 OA 
BRANCH  42  44
HETATM   44  O   UNL     1      -9.852   7.836  72.445  1.00  0.00    -0.177 OA 
HETATM   45  C   UNL     1     -11.220   7.922  72.024  1.00  0.00    -0.287 C  
ENDBRANCH  42  44
ENDBRANCH   8  42
BRANCH   6  46
HETATM   46  O   UNL     1      -5.702   9.122  62.346  1.00  0.00    -0.086 OA 
HETATM   47  C   UNL     1      -5.891  10.483  62.670  1.00  0.00    -0.146 C  
ENDBRANCH   6  46
TORSDOF 11
ENDMDL
MODEL       79
REMARK 921   NORMALIZED FREE ENERGY PREDICTED BY IDOCK:   -2.04 KCAL/MOL
REMARK 922        TOTAL FREE ENERGY PREDICTED BY IDOCK:   -5.39 KCAL/MOL
REMARK 923 INTER-LIGAND FREE ENERGY PREDICTED BY IDOCK:   -4.30 KCAL/MOL
REMARK 924 INTRA-LIGAND FREE ENERGY PREDICTED BY IDOCK:   -1.09 KCAL/MOL
REMARK 927      BINDING AFFINITY PREDICTED BY RF-SCORE:    0.00 PKD
ROOT
HETATM    1  C   UNL     1     -11.096  17.496  69.215  1.00  0.00     0.731 C  
HETATM    2  C   UNL     1     -10.034  18.441  69.673  1.00  0.00     0.396 C  
HETATM    3  C   UNL     1      -8.620  17.712  69.701  1.00  0.00     1.004 C  
HETATM    4  C   UNL     1     -12.767   9.753  70.140  1.00  0.00     0.300 A  
HETATM    5  C   UNL     1      -8.139  18.263  68.380  1.00  0.00    -0.307 C  
HETATM    6  C   UNL     1     -13.491   9.072  71.145  1.00  0.00    -0.098 A  
HETATM    7  C   UNL     1     -13.910   9.718  72.304  1.00  0.00    -0.227 A  
HETATM    8  C   UNL     1      -9.102  17.462  67.331  1.00  0.00    -0.236 C  
HETATM    9  C   UNL     1     -10.541  16.664  68.023  1.00  0.00    -0.338 C  
HETATM   10  C   UNL     1     -13.612  11.061  72.502  1.00  0.00     0.557 A  
HETATM   11  C   UNL     1     -12.898  11.751  71.506  1.00  0.00    -0.450 A  
HETATM   12  H   UNL     1     -11.432  11.870  68.624  1.00  0.00     0.000 HD 
HETATM   13  C   UNL     1     -12.493  11.118  70.337  1.00  0.00    -0.299 A  
HETATM   14  C   UNL     1     -10.941  15.105  68.308  1.00  0.00    -0.276 C  
HETATM   15  N   UNL     1     -11.833  12.058  69.542  1.00  0.00    -0.323 NA 
HETATM   16  C   UNL     1     -11.805  13.275  70.181  1.00  0.00    -0.263 A  
HETATM   17  C   UNL     1     -12.412  13.058  71.426  1.00  0.00    -0.248 A  
HETATM   18  C   UNL     1     -12.486  14.081  72.498  1.00  0.00    -0.120 C  
HETATM   19  C   UNL     1     -11.099  14.603  69.817  1.00  0.00    -0.234 C  
HETATM   20  C   UNL     1     -11.542  15.202  72.136  1.00  0.00    -0.400 C  
HETATM   21  C   UNL     1     -11.438  16.918  70.569  1.00  0.00     0.701 C  
HETATM   22  N   UNL     1     -11.784  15.557  70.701  1.00  0.00    -0.322 NA 
ENDROOT
BRANCH   3  23
HETATM   23  O   UNL     1      -8.489  16.216  69.367  1.00  0.00    -0.227 OA 
BRANCH  23  24
HETATM   24  C   UNL     1      -7.597  15.188  69.463  1.00  0.00    -0.207 C  
HETATM   25  O   UNL     1      -6.751  15.045  70.322  1.00  0.00    -0.143 OA 
BRANCH  24  26
HETATM   26  C   UNL     1      -7.909  14.181  68.324  1.00  0.00    -0.138 C  
HETATM   27  C   UNL     1      -7.450  12.925  68.052  1.00  0.00    -0.125 C  
BRANCH  27  28
HETATM   28  C   UNL     1      -7.937  11.985  66.942  1.00  0.00    -0.112 A  
HETATM   29  C   UNL     1      -7.170  10.899  66.504  1.00  0.00    -0.142 A  
HETATM   30  C   UNL     1      -9.168  12.168  66.257  1.00  0.00    -0.183 A  
HETATM   31  C   UNL     1      -9.611  11.296  65.208  1.00  0.00    -0.232 A  
HETATM   32  C   UNL     1      -7.619   9.984  65.522  1.00  0.00    -0.136 A  
HETATM   33  C   UNL     1      -8.836  10.179  64.847  1.00  0.00    -0.190 A  
BRANCH  32  34
HETATM   34  O   UNL     1      -6.870   8.882  65.163  1.00  0.00    -0.074 OA 
HETATM   35  C   UNL     1      -5.461   9.100  65.187  1.00  0.00    -0.042 C  
ENDBRANCH  32  34
BRANCH  33  36
HETATM   36  O   UNL     1      -9.097   9.268  63.846  1.00  0.00    -0.146 OA 
HETATM   37  C   UNL     1      -8.661   9.518  62.516  1.00  0.00    -0.208 C  
ENDBRANCH  33  36
BRANCH  31  38
HETATM   38  O   UNL     1     -10.755  11.484  64.477  1.00  0.00    -0.299 OA 
HETATM   39  C   UNL     1     -11.303  12.778  64.325  1.00  0.00    -0.367 C  
ENDBRANCH  31  38
ENDBRANCH  27  28
ENDBRANCH  24  26
ENDBRANCH  23  24
ENDBRANCH   3  23
BRANCH   5  40
HETATM   40  O   UNL     1      -8.243  19.702  68.373  1.00  0.00    -0.334 OA 
HETATM   41  C   UNL     1      -7.121  20.459  67.969  1.00  0.00    -0.266 C  
ENDBRANCH   5  40
BRANCH   8  42
HETATM   42  C   UNL     1      -8.112  16.711  66.429  1.00  0.00    -0.324 C  
HETATM   43  O   UNL     1      -8.413  16.022  65.482  1.00  0.00     0.254 OA 
BRANCH  42  44
HETATM   44  O   UNL     1      -6.818  16.959  66.836  1.00  0.00    -0.173 OA 
HETATM   45  C   UNL     1      -5.792  17.376  65.925  1.00  0.00     0.061 C  
ENDBRANCH  42  44
ENDBRANCH   8  42
BRANCH   6  46
HETATM   46  O   UNL     1     -13.857   7.750  71.104  1.00  0.00    -0.238 OA 
HETATM   47  C   UNL     1     -12.858   6.823  70.740  1.00  0.00     0.142 C  
ENDBRANCH   6  46
TORSDOF 11
ENDMDL
MODEL       80
REMARK 921   NORMALIZED FREE ENERGY PREDICTED BY IDOCK:   -1.87 KCAL/MOL
REMARK 922        TOTAL FREE ENERGY PREDICTED BY IDOCK:   -5.11 KCAL/MOL
REMARK 923 INTER-LIGAND FREE ENERGY PREDICTED BY IDOCK:   -4.60 KCAL/MOL
REMARK 924 INTRA-LIGAND FREE ENERGY PREDICTED BY IDOCK:   -0.51 KCAL/MOL
REMARK 927      BINDING AFFINITY PREDICTED BY RF-SCORE:    0.00 PKD
ROOT
HETATM    1  C   UNL     1      -6.336   9.628  68.279  1.00  0.00    -0.056 C  
HETATM    2  C   UNL     1      -7.438   8.682  68.631  1.00  0.00    -0.096 C  
HETATM    3  C   UNL     1      -8.780   9.092  67.881  1.00  0.00    -0.129 C  
HETATM    4  C   UNL     1      -5.630  17.447  66.877  1.00  0.00    -0.201 A  
HETATM    5  C   UNL     1      -8.649   8.076  66.771  1.00  0.00    -0.130 C  
HETATM    6  C   UNL     1      -5.417  18.534  67.756  1.00  0.00    -0.164 A  
HETATM    7  C   UNL     1      -5.470  18.372  69.137  1.00  0.00    -0.205 A  
HETATM    8  C   UNL     1      -7.390   8.686  65.928  1.00  0.00    -0.084 C  
HETATM    9  C   UNL     1      -6.405   9.925  66.753  1.00  0.00    -0.065 C  
HETATM   10  C   UNL     1      -5.746  17.126  69.685  1.00  0.00    -0.220 A  
HETATM   11  C   UNL     1      -5.952  16.035  68.821  1.00  0.00    -0.105 A  
HETATM   12  H   UNL     1      -6.110  14.746  65.857  1.00  0.00     0.000 HD 
HETATM   13  C   UNL     1      -5.882  16.184  67.440  1.00  0.00    -0.134 A  
HETATM   14  C   UNL     1      -6.245  11.542  66.579  1.00  0.00    -0.072 C  
HETATM   15  N   UNL     1      -6.107  14.933  66.859  1.00  0.00     0.425 NA 
HETATM   16  C   UNL     1      -6.323  13.994  67.838  1.00  0.00    -0.161 A  
HETATM   17  C   UNL     1      -6.288  14.699  69.049  1.00  0.00    -0.094 A  
HETATM   18  C   UNL     1      -6.599  14.093  70.367  1.00  0.00     0.042 C  
HETATM   19  C   UNL     1      -6.744  12.507  67.751  1.00  0.00    -0.123 C  
HETATM   20  C   UNL     1      -7.249  12.753  70.122  1.00  0.00     1.460 C  
HETATM   21  C   UNL     1      -6.608  10.651  69.357  1.00  0.00    -0.075 C  
HETATM   22  N   UNL     1      -6.424  12.026  69.103  1.00  0.00    -0.091 NA 
ENDROOT
BRANCH   3  23
HETATM   23  O   UNL     1      -8.849  10.355  67.006  1.00  0.00    -0.136 OA 
BRANCH  23  24
HETATM   24  C   UNL     1      -9.667  10.970  66.105  1.00  0.00    -0.217 C  
HETATM   25  O   UNL     1     -10.159  10.466  65.116  1.00  0.00    -0.303 OA 
BRANCH  24  26
HETATM   26  C   UNL     1      -9.933  12.413  66.611  1.00  0.00    -0.236 C  
HETATM   27  C   UNL     1     -10.014  12.951  67.862  1.00  0.00    -0.233 C  
BRANCH  27  28
HETATM   28  C   UNL     1     -10.168  14.435  68.221  1.00  0.00    -0.241 A  
HETATM   29  C   UNL     1     -10.883  14.852  69.350  1.00  0.00    -0.274 A  
HETATM   30  C   UNL     1      -9.640  15.484  67.421  1.00  0.00    -0.213 A  
HETATM   31  C   UNL     1      -9.802  16.869  67.751  1.00  0.00    -0.252 A  
HETATM   32  C   UNL     1     -10.993  16.210  69.734  1.00  0.00    -0.349 A  
HETATM   33  C   UNL     1     -10.472  17.239  68.931  1.00  0.00    -0.327 A  
BRANCH  32  34
HETATM   34  O   UNL     1     -11.644  16.584  70.893  1.00  0.00    -0.280 OA 
HETATM   35  C   UNL     1     -12.171  15.493  71.644  1.00  0.00    -0.399 C  
ENDBRANCH  32  34
BRANCH  33  36
HETATM   36  O   UNL     1     -10.742  18.515  69.377  1.00  0.00     0.460 OA 
HETATM   37  C   UNL     1      -9.707  19.488  69.439  1.00  0.00    -0.149 C  
ENDBRANCH  33  36
BRANCH  31  38
HETATM   38  O   UNL     1      -9.370  17.907  66.967  1.00  0.00    -0.255 OA 
HETATM   39  C   UNL     1     -10.130  18.324  65.850  1.00  0.00    -0.160 C  
ENDBRANCH  31  38
ENDBRANCH  27  28
ENDBRANCH  24  26
ENDBRANCH  23  24
ENDBRANCH   3  23
BRANCH   5  40
HETATM   40  O   UNL     1      -8.470   6.755  67.323  1.00  0.00    -0.119 OA 
HETATM   41  C   UNL     1      -7.956   5.738  66.490  1.00  0.00    -0.102 C  
ENDBRANCH   5  40
BRANCH   8  42
HETATM   42  C   UNL     1      -7.969   8.912  64.524  1.00  0.00    -0.135 C  
HETATM   43  O   UNL     1      -8.881   8.284  64.034  1.00  0.00     0.191 OA 
BRANCH  42  44
HETATM   44  O   UNL     1      -7.319   9.958  63.904  1.00  0.00    -0.124 OA 
HETATM   45  C   UNL     1      -7.612  10.356  62.558  1.00  0.00    -0.142 C  
ENDBRANCH  42  44
ENDBRANCH   8  42
BRANCH   6  46
HETATM   46  O   UNL     1      -5.142  19.822  67.374  1.00  0.00    -0.162 OA 
HETATM   47  C   UNL     1      -5.621  20.229  66.111  1.00  0.00    -0.173 C  
ENDBRANCH   6  46
TORSDOF 11
ENDMDL
MODEL       81
REMARK 921   NORMALIZED FREE ENERGY PREDICTED BY IDOCK:   -1.72 KCAL/MOL
REMARK 922        TOTAL FREE ENERGY PREDICTED BY IDOCK:   -4.87 KCAL/MOL
REMARK 923 INTER-LIGAND FREE ENERGY PREDICTED BY IDOCK:   -3.52 KCAL/MOL
REMARK 924 INTRA-LIGAND FREE ENERGY PREDICTED BY IDOCK:   -1.36 KCAL/MOL
REMARK 927      BINDING AFFINITY PREDICTED BY RF-SCORE:    0.00 PKD
ROOT
HETATM    1  C   UNL     1      -8.863   6.571  63.625  1.00  0.00     0.799 C  
HETATM    2  C   UNL     1      -8.226   5.467  62.845  1.00  0.00    -0.107 C  
HETATM    3  C   UNL     1      -7.326   4.565  63.797  1.00  0.00    -0.054 C  
HETATM    4  C   UNL     1      -6.799  11.348  69.668  1.00  0.00    -0.068 A  
HETATM    5  C   UNL     1      -8.346   3.466  63.974  1.00  0.00    -0.090 C  
HETATM    6  C   UNL     1      -6.125  12.590  69.683  1.00  0.00    -0.133 A  
HETATM    7  C   UNL     1      -5.534  13.110  68.535  1.00  0.00    -0.068 A  
HETATM    8  C   UNL     1      -9.467   4.216  64.896  1.00  0.00    -0.171 C  
HETATM    9  C   UNL     1      -9.366   5.996  64.981  1.00  0.00     0.552 C  
HETATM   10  C   UNL     1      -5.589  12.404  67.340  1.00  0.00    -0.126 A  
HETATM   11  C   UNL     1      -6.264  11.170  67.311  1.00  0.00    -0.073 A  
HETATM   12  H   UNL     1      -7.995   8.842  68.743  1.00  0.00     0.000 HD 
HETATM   13  C   UNL     1      -6.873  10.653  68.448  1.00  0.00    -0.064 A  
HETATM   14  C   UNL     1      -8.898   7.047  66.141  1.00  0.00    -0.165 C  
HETATM   15  N   UNL     1      -7.473   9.439  68.103  1.00  0.00    -0.079 NA 
HETATM   16  C   UNL     1      -7.256   9.170  66.773  1.00  0.00    -0.086 A  
HETATM   17  C   UNL     1      -6.451  10.219  66.306  1.00  0.00    -0.095 A  
HETATM   18  C   UNL     1      -5.869  10.268  64.942  1.00  0.00    -0.135 C  
HETATM   19  C   UNL     1      -7.579   7.922  65.918  1.00  0.00    -0.083 C  
HETATM   20  C   UNL     1      -6.020   8.900  64.322  1.00  0.00    -0.070 C  
HETATM   21  C   UNL     1      -7.742   7.575  63.490  1.00  0.00    -0.126 C  
HETATM   22  N   UNL     1      -7.430   8.448  64.553  1.00  0.00    -0.094 NA 
ENDROOT
BRANCH   3  23
HETATM   23  O   UNL     1      -7.137   4.919  65.283  1.00  0.00    -0.061 OA 
BRANCH  23  24
HETATM   24  C   UNL     1      -6.277   4.698  66.318  1.00  0.00    -0.032 C  
HETATM   25  O   UNL     1      -5.145   4.267  66.236  1.00  0.00    -0.008 OA 
BRANCH  24  26
HETATM   26  C   UNL     1      -6.969   5.176  67.622  1.00  0.00    -0.065 C  
HETATM   27  C   UNL     1      -6.550   5.963  68.654  1.00  0.00    -0.058 C  
BRANCH  27  28
HETATM   28  C   UNL     1      -7.390   6.458  69.839  1.00  0.00    -0.082 A  
HETATM   29  C   UNL     1      -6.859   6.560  71.130  1.00  0.00    -0.066 A  
HETATM   30  C   UNL     1      -8.763   6.804  69.724  1.00  0.00    -0.141 A  
HETATM   31  C   UNL     1      -9.548   7.249  70.837  1.00  0.00    -0.170 A  
HETATM   32  C   UNL     1      -7.594   7.065  72.229  1.00  0.00    -0.090 A  
HETATM   33  C   UNL     1      -8.954   7.398  72.104  1.00  0.00    -0.131 A  
BRANCH  32  34
HETATM   34  O   UNL     1      -7.020   7.221  73.474  1.00  0.00    -0.068 OA 
HETATM   35  C   UNL     1      -5.874   6.402  73.695  1.00  0.00    -0.058 C  
ENDBRANCH  32  34
BRANCH  33  36
HETATM   36  O   UNL     1      -9.568   7.779  73.278  1.00  0.00    -0.240 OA 
HETATM   37  C   UNL     1     -10.308   6.833  74.040  1.00  0.00    -0.347 C  
ENDBRANCH  33  36
BRANCH  31  38
HETATM   38  O   UNL     1     -10.890   7.521  70.779  1.00  0.00    -0.233 OA 
HETATM   39  C   UNL     1     -11.772   6.634  70.120  1.00  0.00    -0.351 C  
ENDBRANCH  31  38
ENDBRANCH  27  28
ENDBRANCH  24  26
ENDBRANCH  23  24
ENDBRANCH   3  23
BRANCH   5  40
HETATM   40  O   UNL     1      -8.791   2.989  62.687  1.00  0.00    -0.084 OA 
HETATM   41  C   UNL     1      -9.679   1.892  62.643  1.00  0.00    -0.089 C  
ENDBRANCH   5  40
BRANCH   8  42
HETATM   42  C   UNL     1      -9.540   3.346  66.159  1.00  0.00    -0.049 C  
HETATM   43  O   UNL     1      -9.967   3.706  67.232  1.00  0.00    -0.038 OA 
BRANCH  42  44
HETATM   44  O   UNL     1      -9.074   2.077  65.888  1.00  0.00    -0.121 OA 
HETATM   45  C   UNL     1      -7.917   1.528  66.533  1.00  0.00    -0.072 C  
ENDBRANCH  42  44
ENDBRANCH   8  42
BRANCH   6  46
HETATM   46  O   UNL     1      -5.977  13.402  70.779  1.00  0.00    -0.170 OA 
HETATM   47  C   UNL     1      -6.035  14.793  70.554  1.00  0.00    -0.156 C  
ENDBRANCH   6  46
TORSDOF 11
ENDMDL
MODEL       82
REMARK 921   NORMALIZED FREE ENERGY PREDICTED BY IDOCK:   -1.65 KCAL/MOL
REMARK 922        TOTAL FREE ENERGY PREDICTED BY IDOCK:   -4.75 KCAL/MOL
REMARK 923 INTER-LIGAND FREE ENERGY PREDICTED BY IDOCK:   -5.71 KCAL/MOL
REMARK 924 INTRA-LIGAND FREE ENERGY PREDICTED BY IDOCK:    0.96 KCAL/MOL
REMARK 927      BINDING AFFINITY PREDICTED BY RF-SCORE:    0.00 PKD
ROOT
HETATM    1  C   UNL     1      -8.404   6.196  64.836  1.00  0.00    -0.092 C  
HETATM    2  C   UNL     1      -7.003   5.770  64.539  1.00  0.00    -0.052 C  
HETATM    3  C   UNL     1      -6.174   5.616  65.888  1.00  0.00    -0.034 C  
HETATM    4  C   UNL     1     -12.020  11.019  70.056  1.00  0.00    -0.430 A  
HETATM    5  C   UNL     1      -6.308   4.115  65.978  1.00  0.00    -0.033 C  
HETATM    6  C   UNL     1     -12.288  12.407  70.009  1.00  0.00    -0.085 A  
HETATM    7  C   UNL     1     -11.756  13.216  69.011  1.00  0.00    -0.367 A  
HETATM    8  C   UNL     1      -7.894   3.957  66.336  1.00  0.00    -0.090 C  
HETATM    9  C   UNL     1      -8.918   5.393  66.066  1.00  0.00    -0.147 C  
HETATM   10  C   UNL     1     -10.932  12.671  68.034  1.00  0.00    -0.266 A  
HETATM   11  C   UNL     1     -10.664  11.291  68.066  1.00  0.00    -0.245 A  
HETATM   12  H   UNL     1     -11.031   8.352  69.370  1.00  0.00     0.000 HD 
HETATM   13  C   UNL     1     -11.207  10.471  69.049  1.00  0.00    -0.259 A  
HETATM   14  C   UNL     1      -9.641   6.468  67.062  1.00  0.00    -0.174 C  
HETATM   15  N   UNL     1     -10.781   9.163  68.805  1.00  0.00    -0.177 NA 
HETATM   16  C   UNL     1      -9.975   9.132  67.692  1.00  0.00    -0.195 A  
HETATM   17  C   UNL     1      -9.858  10.466  67.278  1.00  0.00    -0.214 A  
HETATM   18  C   UNL     1      -8.969  10.913  66.176  1.00  0.00    -0.196 C  
HETATM   19  C   UNL     1      -9.144   7.987  67.066  1.00  0.00    -0.144 C  
HETATM   20  C   UNL     1      -8.031   9.778  65.846  1.00  0.00    -0.111 C  
HETATM   21  C   UNL     1      -8.157   7.687  64.835  1.00  0.00    -0.128 C  
HETATM   22  N   UNL     1      -8.849   8.528  65.731  1.00  0.00    -0.184 NA 
ENDROOT
BRANCH   3  23
HETATM   23  O   UNL     1      -6.798   5.966  67.250  1.00  0.00    -0.060 OA 
BRANCH  23  24
HETATM   24  C   UNL     1      -6.458   6.096  68.564  1.00  0.00    -0.053 C  
HETATM   25  O   UNL     1      -6.155   5.198  69.323  1.00  0.00    -0.022 OA 
BRANCH  24  26
HETATM   26  C   UNL     1      -6.440   7.610  68.903  1.00  0.00    -0.044 C  
HETATM   27  C   UNL     1      -5.543   8.398  69.564  1.00  0.00    -0.030 C  
BRANCH  27  28
HETATM   28  C   UNL     1      -5.597   9.922  69.727  1.00  0.00    -0.037 A  
HETATM   29  C   UNL     1      -5.662  10.782  68.625  1.00  0.00    -0.040 A  
HETATM   30  C   UNL     1      -5.543  10.568  70.991  1.00  0.00    -0.072 A  
HETATM   31  C   UNL     1      -5.576  11.994  71.139  1.00  0.00     0.044 A  
HETATM   32  C   UNL     1      -5.769  12.188  68.748  1.00  0.00    -0.054 A  
HETATM   33  C   UNL     1      -5.708  12.815  70.005  1.00  0.00    -0.136 A  
BRANCH  32  34
HETATM   34  O   UNL     1      -5.904  13.004  67.643  1.00  0.00    -0.135 OA 
HETATM   35  C   UNL     1      -7.194  12.959  67.039  1.00  0.00     0.173 C  
ENDBRANCH  32  34
BRANCH  33  36
HETATM   36  O   UNL     1      -5.721  14.194  69.966  1.00  0.00    -0.106 OA 
HETATM   37  C   UNL     1      -6.943  14.895  69.771  1.00  0.00    -0.175 C  
ENDBRANCH  33  36
BRANCH  31  38
HETATM   38  O   UNL     1      -5.452  12.651  72.334  1.00  0.00    -0.307 OA 
HETATM   39  C   UNL     1      -5.150  14.032  72.364  1.00  0.00    -0.207 C  
ENDBRANCH  31  38
ENDBRANCH  27  28
ENDBRANCH  24  26
ENDBRANCH  23  24
ENDBRANCH   3  23
BRANCH   5  40
HETATM   40  O   UNL     1      -5.865   3.501  64.750  1.00  0.00    -0.020 OA 
HETATM   41  C   UNL     1      -6.513   2.327  64.308  1.00  0.00    -0.022 C  
ENDBRANCH   5  40
BRANCH   8  42
HETATM   42  C   UNL     1      -7.891   3.201  67.673  1.00  0.00    -0.075 C  
HETATM   43  O   UNL     1      -7.091   2.351  67.994  1.00  0.00    -0.047 OA 
BRANCH  42  44
HETATM   44  O   UNL     1      -8.918   3.651  68.475  1.00  0.00    -0.105 OA 
HETATM   45  C   UNL     1      -9.234   3.041  69.733  1.00  0.00    -0.149 C  
ENDBRANCH  42  44
ENDBRANCH   8  42
BRANCH   6  46
HETATM   46  O   UNL     1     -13.073  13.095  70.899  1.00  0.00    -0.126 OA 
HETATM   47  C   UNL     1     -12.431  14.070  71.693  1.00  0.00    -0.283 C  
ENDBRANCH   6  46
TORSDOF 11
ENDMDL
MODEL       83
REMARK 921   NORMALIZED FREE ENERGY PREDICTED BY IDOCK:   -1.65 KCAL/MOL
REMARK 922        TOTAL FREE ENERGY PREDICTED BY IDOCK:   -4.75 KCAL/MOL
REMARK 923 INTER-LIGAND FREE ENERGY PREDICTED BY IDOCK:   -3.65 KCAL/MOL
REMARK 924 INTRA-LIGAND FREE ENERGY PREDICTED BY IDOCK:   -1.10 KCAL/MOL
REMARK 927      BINDING AFFINITY PREDICTED BY RF-SCORE:    0.00 PKD
ROOT
HETATM    1  C   UNL     1     -12.308  10.611  69.599  1.00  0.00    -0.209 C  
HETATM    2  C   UNL     1     -12.105  11.783  70.503  1.00  0.00    -0.439 C  
HETATM    3  C   UNL     1     -10.667  12.422  70.265  1.00  0.00     1.783 C  
HETATM    4  C   UNL     1      -7.845   4.668  66.709  1.00  0.00    -0.099 A  
HETATM    5  C   UNL     1     -11.147  13.549  69.382  1.00  0.00    -0.119 C  
HETATM    6  C   UNL     1      -7.537   3.394  67.237  1.00  0.00    -0.078 A  
HETATM    7  C   UNL     1      -7.883   3.045  68.539  1.00  0.00    -0.060 A  
HETATM    8  C   UNL     1     -11.572  12.737  68.030  1.00  0.00    -0.388 C  
HETATM    9  C   UNL     1     -11.756  10.969  68.189  1.00  0.00    -0.277 C  
HETATM   10  C   UNL     1      -8.537   3.958  69.357  1.00  0.00    -0.111 A  
HETATM   11  C   UNL     1      -8.855   5.226  68.840  1.00  0.00    -0.102 A  
HETATM   12  H   UNL     1      -8.889   7.388  66.432  1.00  0.00     0.000 HD 
HETATM   13  C   UNL     1      -8.530   5.576  67.534  1.00  0.00    -0.106 A  
HETATM   14  C   UNL     1     -10.868   9.691  67.691  1.00  0.00    -0.276 C  
HETATM   15  N   UNL     1      -8.989   6.877  67.308  1.00  0.00    -0.117 NA 
HETATM   16  C   UNL     1      -9.594   7.364  68.442  1.00  0.00    -0.148 A  
HETATM   17  C   UNL     1      -9.450   6.356  69.405  1.00  0.00    -0.146 A  
HETATM   18  C   UNL     1      -9.852   6.509  70.826  1.00  0.00    -0.201 C  
HETATM   19  C   UNL     1     -10.148   8.768  68.779  1.00  0.00    -0.198 C  
HETATM   20  C   UNL     1     -10.109   7.974  71.082  1.00  0.00    -0.188 C  
HETATM   21  C   UNL     1     -11.708   9.561  70.505  1.00  0.00    -0.222 C  
HETATM   22  N   UNL     1     -10.968   8.488  69.968  1.00  0.00    -0.229 NA 
ENDROOT
BRANCH   3  23
HETATM   23  O   UNL     1      -9.669  11.792  69.279  1.00  0.00     0.162 OA 
BRANCH  23  24
HETATM   24  C   UNL     1      -8.337  11.783  68.987  1.00  0.00     0.189 C  
HETATM   25  O   UNL     1      -7.451  12.287  69.648  1.00  0.00     0.378 OA 
BRANCH  24  26
HETATM   26  C   UNL     1      -8.136  10.940  67.700  1.00  0.00    -0.115 C  
HETATM   27  C   UNL     1      -7.128  10.122  67.280  1.00  0.00    -0.088 C  
BRANCH  27  28
HETATM   28  C   UNL     1      -7.113   9.246  66.021  1.00  0.00    -0.090 A  
HETATM   29  C   UNL     1      -8.124   9.322  65.057  1.00  0.00    -0.127 A  
HETATM   30  C   UNL     1      -6.107   8.277  65.764  1.00  0.00    -0.045 A  
HETATM   31  C   UNL     1      -6.107   7.448  64.594  1.00  0.00    -0.038 A  
HETATM   32  C   UNL     1      -8.107   8.566  63.859  1.00  0.00    -0.155 A  
HETATM   33  C   UNL     1      -7.109   7.605  63.619  1.00  0.00    -0.070 A  
BRANCH  32  34
HETATM   34  O   UNL     1      -9.081   8.716  62.894  1.00  0.00     0.180 OA 
HETATM   35  C   UNL     1      -9.247  10.056  62.435  1.00  0.00    -0.296 C  
ENDBRANCH  32  34
BRANCH  33  36
HETATM   36  O   UNL     1      -7.275   6.874  62.462  1.00  0.00    -0.054 OA 
HETATM   37  C   UNL     1      -8.293   5.885  62.378  1.00  0.00    -0.081 C  
ENDBRANCH  33  36
BRANCH  31  38
HETATM   38  O   UNL     1      -5.196   6.454  64.350  1.00  0.00    -0.020 OA 
HETATM   39  C   UNL     1      -5.489   5.114  64.690  1.00  0.00    -0.013 C  
ENDBRANCH  31  38
ENDBRANCH  27  28
ENDBRANCH  24  26
ENDBRANCH  23  24
ENDBRANCH   3  23
BRANCH   5  40
HETATM   40  O   UNL     1     -12.197  14.286  70.043  1.00  0.00    -0.323 OA 
HETATM   41  C   UNL     1     -12.627  15.506  69.475  1.00  0.00     0.072 C  
ENDBRANCH   5  40
BRANCH   8  42
HETATM   42  C   UNL     1     -10.695  13.368  66.938  1.00  0.00    -0.273 C  
HETATM   43  O   UNL     1     -10.285  12.795  65.954  1.00  0.00    -0.277 OA 
BRANCH  42  44
HETATM   44  O   UNL     1     -10.464  14.697  67.223  1.00  0.00    -0.262 OA 
HETATM   45  C   UNL     1      -9.335  15.410  66.701  1.00  0.00    -0.263 C  
ENDBRANCH  42  44
ENDBRANCH   8  42
BRANCH   6  46
HETATM   46  O   UNL     1      -6.892   2.388  66.564  1.00  0.00    -0.042 OA 
HETATM   47  C   UNL     1      -7.524   1.889  65.405  1.00  0.00    -0.069 C  
ENDBRANCH   6  46
TORSDOF 11
ENDMDL
MODEL       84
REMARK 921   NORMALIZED FREE ENERGY PREDICTED BY IDOCK:   -1.26 KCAL/MOL
REMARK 922        TOTAL FREE ENERGY PREDICTED BY IDOCK:   -4.12 KCAL/MOL
REMARK 923 INTER-LIGAND FREE ENERGY PREDICTED BY IDOCK:   -4.47 KCAL/MOL
REMARK 924 INTRA-LIGAND FREE ENERGY PREDICTED BY IDOCK:    0.36 KCAL/MOL
REMARK 927      BINDING AFFINITY PREDICTED BY RF-SCORE:    0.00 PKD
ROOT
HETATM    1  C   UNL     1      -7.388   6.999  70.520  1.00  0.00    -0.076 C  
HETATM    2  C   UNL     1      -7.088   7.223  71.967  1.00  0.00    -0.067 C  
HETATM    3  C   UNL     1      -8.357   7.836  72.706  1.00  0.00    -0.136 C  
HETATM    4  C   UNL     1     -11.522  10.720  64.807  1.00  0.00     0.942 A  
HETATM    5  C   UNL     1      -8.831   6.531  73.300  1.00  0.00    -0.124 C  
HETATM    6  C   UNL     1     -11.152  11.750  63.911  1.00  0.00    -0.408 A  
HETATM    7  C   UNL     1      -9.940  12.423  64.039  1.00  0.00    -0.260 A  
HETATM    8  C   UNL     1      -9.352   5.744  71.967  1.00  0.00    -0.163 C  
HETATM    9  C   UNL     1      -8.819   6.402  70.396  1.00  0.00    -0.151 C  
HETATM   10  C   UNL     1      -9.065  12.097  65.067  1.00  0.00     0.482 A  
HETATM   11  C   UNL     1      -9.418  11.069  65.959  1.00  0.00    -0.235 A  
HETATM   12  H   UNL     1     -11.444   8.760  66.978  1.00  0.00     0.000 HD 
HETATM   13  C   UNL     1     -10.619  10.379  65.827  1.00  0.00    -0.030 A  
HETATM   14  C   UNL     1      -9.572   7.226  69.202  1.00  0.00    -0.155 C  
HETATM   15  N   UNL     1     -10.675   9.414  66.837  1.00  0.00    -0.164 NA 
HETATM   16  C   UNL     1      -9.541   9.477  67.610  1.00  0.00    -0.136 A  
HETATM   17  C   UNL     1      -8.797  10.549  67.096  1.00  0.00    -0.140 A  
HETATM   18  C   UNL     1      -7.546  11.056  67.714  1.00  0.00    -0.099 C  
HETATM   19  C   UNL     1      -9.153   8.741  68.914  1.00  0.00    -0.141 C  
HETATM   20  C   UNL     1      -7.432  10.456  69.094  1.00  0.00    -0.112 C  
HETATM   21  C   UNL     1      -6.992   8.371  70.026  1.00  0.00    -0.043 C  
HETATM   22  N   UNL     1      -7.705   8.988  68.977  1.00  0.00    -0.088 NA 
ENDROOT
BRANCH   3  23
HETATM   23  O   UNL     1      -9.636   8.192  71.929  1.00  0.00    -0.167 OA 
BRANCH  23  24
HETATM   24  C   UNL     1     -10.733   8.997  72.015  1.00  0.00    -0.263 C  
HETATM   25  O   UNL     1     -11.598   8.948  72.866  1.00  0.00     0.179 OA 
BRANCH  24  26
HETATM   26  C   UNL     1     -10.641  10.051  70.880  1.00  0.00    -0.125 C  
HETATM   27  C   UNL     1     -11.503  11.014  70.442  1.00  0.00    -0.316 C  
BRANCH  27  28
HETATM   28  C   UNL     1     -11.232  12.078  69.371  1.00  0.00    -0.263 A  
HETATM   29  C   UNL     1     -10.057  12.837  69.365  1.00  0.00     0.688 A  
HETATM   30  C   UNL     1     -12.160  12.396  68.344  1.00  0.00    -0.114 A  
HETATM   31  C   UNL     1     -11.911  13.404  67.355  1.00  0.00    -0.375 A  
HETATM   32  C   UNL     1      -9.757  13.786  68.357  1.00  0.00    -0.219 A  
HETATM   33  C   UNL     1     -10.687  14.097  67.349  1.00  0.00    -0.284 A  
BRANCH  32  34
HETATM   34  O   UNL     1      -8.557  14.468  68.339  1.00  0.00    -0.160 OA 
HETATM   35  C   UNL     1      -8.360  15.332  69.455  1.00  0.00    -0.232 C  
ENDBRANCH  32  34
BRANCH  33  36
HETATM   36  O   UNL     1     -10.302  15.111  66.498  1.00  0.00    -0.269 OA 
HETATM   37  C   UNL     1     -10.389  16.468  66.913  1.00  0.00    -0.300 C  
ENDBRANCH  33  36
BRANCH  31  38
HETATM   38  O   UNL     1     -12.812  13.788  66.396  1.00  0.00    -0.238 OA 
HETATM   39  C   UNL     1     -12.461  14.760  65.433  1.00  0.00    -0.044 C  
ENDBRANCH  31  38
ENDBRANCH  27  28
ENDBRANCH  24  26
ENDBRANCH  23  24
ENDBRANCH   3  23
BRANCH   5  40
HETATM   40  O   UNL     1      -7.763   5.903  74.039  1.00  0.00    -0.098 OA 
HETATM   41  C   UNL     1      -7.683   4.493  74.045  1.00  0.00    -0.089 C  
ENDBRANCH   5  40
BRANCH   8  42
HETATM   42  C   UNL     1     -10.830   5.458  72.269  1.00  0.00    -0.227 C  
HETATM   43  O   UNL     1     -11.759   5.747  71.549  1.00  0.00    -0.104 OA 
BRANCH  42  44
HETATM   44  O   UNL     1     -10.949   4.793  73.471  1.00  0.00    -0.271 OA 
HETATM   45  C   UNL     1     -10.954   3.362  73.561  1.00  0.00    -0.233 C  
ENDBRANCH  42  44
ENDBRANCH   8  42
BRANCH   6  46
HETATM   46  O   UNL     1     -11.905  12.193  62.854  1.00  0.00    -0.088 OA 
HETATM   47  C   UNL     1     -12.447  13.492  62.956  1.00  0.00     0.444 C  
ENDBRANCH   6  46
TORSDOF 11
ENDMDL
MODEL       85
REMARK 921   NORMALIZED FREE ENERGY PREDICTED BY IDOCK:   -1.06 KCAL/MOL
REMARK 922        TOTAL FREE ENERGY PREDICTED BY IDOCK:   -3.78 KCAL/MOL
REMARK 923 INTER-LIGAND FREE ENERGY PREDICTED BY IDOCK:   -3.01 KCAL/MOL
REMARK 924 INTRA-LIGAND FREE ENERGY PREDICTED BY IDOCK:   -0.76 KCAL/MOL
REMARK 927      BINDING AFFINITY PREDICTED BY RF-SCORE:    0.00 PKD
ROOT
HETATM    1  C   UNL     1      -8.833  12.135  68.930  1.00  0.00     0.234 C  
HETATM    2  C   UNL     1      -8.283  13.361  68.277  1.00  0.00    -0.160 C  
HETATM    3  C   UNL     1      -7.629  12.993  66.874  1.00  0.00     0.267 C  
HETATM    4  C   UNL     1      -6.751   4.462  69.555  1.00  0.00    -0.044 A  
HETATM    5  C   UNL     1      -8.810  13.425  66.038  1.00  0.00     0.556 C  
HETATM    6  C   UNL     1      -5.910   3.799  70.478  1.00  0.00    -0.017 A  
HETATM    7  C   UNL     1      -5.133   4.506  71.390  1.00  0.00    -0.003 A  
HETATM    8  C   UNL     1      -9.902  12.267  66.407  1.00  0.00    -0.242 C  
HETATM    9  C   UNL     1      -9.554  11.277  67.851  1.00  0.00    -0.182 C  
HETATM   10  C   UNL     1      -5.162   5.895  71.405  1.00  0.00    -0.017 A  
HETATM   11  C   UNL     1      -6.001   6.566  70.498  1.00  0.00    -0.023 A  
HETATM   12  H   UNL     1      -8.192   6.564  68.116  1.00  0.00     0.000 HD 
HETATM   13  C   UNL     1      -6.795   5.866  69.596  1.00  0.00    -0.061 A  
HETATM   14  C   UNL     1      -9.065   9.733  68.071  1.00  0.00    -0.127 C  
HETATM   15  N   UNL     1      -7.525   6.797  68.851  1.00  0.00    -0.094 NA 
HETATM   16  C   UNL     1      -7.209   8.072  69.255  1.00  0.00    -0.076 A  
HETATM   17  C   UNL     1      -6.216   7.920  70.233  1.00  0.00    -0.033 A  
HETATM   18  C   UNL     1      -5.492   9.055  70.857  1.00  0.00    -0.031 C  
HETATM   19  C   UNL     1      -7.617   9.453  68.688  1.00  0.00    -0.080 C  
HETATM   20  C   UNL     1      -5.773  10.292  70.041  1.00  0.00    -0.052 C  
HETATM   21  C   UNL     1      -7.571  11.715  69.647  1.00  0.00     0.529 C  
HETATM   22  N   UNL     1      -7.250  10.350  69.793  1.00  0.00    -0.144 NA 
ENDROOT
BRANCH   3  23
HETATM   23  O   UNL     1      -7.548  11.535  66.391  1.00  0.00    -0.091 OA 
BRANCH  23  24
HETATM   24  C   UNL     1      -6.764  10.717  65.632  1.00  0.00    -0.072 C  
HETATM   25  O   UNL     1      -5.680  10.993  65.160  1.00  0.00    -0.066 OA 
BRANCH  24  26
HETATM   26  C   UNL     1      -7.461   9.333  65.547  1.00  0.00    -0.090 C  
HETATM   27  C   UNL     1      -7.464   8.358  64.593  1.00  0.00    -0.098 C  
BRANCH  27  28
HETATM   28  C   UNL     1      -8.113   6.971  64.692  1.00  0.00    -0.083 A  
HETATM   29  C   UNL     1      -7.868   5.972  63.744  1.00  0.00    -0.112 A  
HETATM   30  C   UNL     1      -9.031   6.617  65.717  1.00  0.00    -0.050 A  
HETATM   31  C   UNL     1      -9.648   5.325  65.796  1.00  0.00    -0.089 A  
HETATM   32  C   UNL     1      -8.409   4.667  63.841  1.00  0.00    -0.121 A  
HETATM   33  C   UNL     1      -9.321   4.331  64.857  1.00  0.00    -0.165 A  
BRANCH  32  34
HETATM   34  O   UNL     1      -8.091   3.682  62.929  1.00  0.00    -0.071 OA 
HETATM   35  C   UNL     1      -6.763   3.178  63.053  1.00  0.00    -0.030 C  
ENDBRANCH  32  34
BRANCH  33  36
HETATM   36  O   UNL     1      -9.843   3.058  64.768  1.00  0.00    -0.123 OA 
HETATM   37  C   UNL     1      -9.166   1.960  65.367  1.00  0.00    -0.040 C  
ENDBRANCH  33  36
BRANCH  31  38
HETATM   38  O   UNL     1     -10.591   4.974  66.725  1.00  0.00    -0.252 OA 
HETATM   39  C   UNL     1     -10.382   5.245  68.097  1.00  0.00    -0.114 C  
ENDBRANCH  31  38
ENDBRANCH  27  28
ENDBRANCH  24  26
ENDBRANCH  23  24
ENDBRANCH   3  23
BRANCH   5  40
HETATM   40  O   UNL     1      -9.181  14.781  66.362  1.00  0.00    -0.277 OA 
HETATM   41  C   UNL     1      -9.622  15.628  65.322  1.00  0.00     0.075 C  
ENDBRANCH   5  40
BRANCH   8  42
HETATM   42  C   UNL     1     -10.233  11.633  65.048  1.00  0.00    -0.275 C  
HETATM   43  O   UNL     1      -9.964  10.499  64.721  1.00  0.00    -0.300 OA 
BRANCH  42  44
HETATM   44  O   UNL     1     -10.911  12.536  64.256  1.00  0.00    -0.315 OA 
HETATM   45  C   UNL     1     -12.265  12.927  64.522  1.00  0.00    -0.426 C  
ENDBRANCH  42  44
ENDBRANCH   8  42
BRANCH   6  46
HETATM   46  O   UNL     1      -5.763   2.439  70.585  1.00  0.00    -0.015 OA 
HETATM   47  C   UNL     1      -5.211   1.768  69.474  1.00  0.00    -0.011 C  
ENDBRANCH   6  46
TORSDOF 11
ENDMDL
MODEL       86
REMARK 921   NORMALIZED FREE ENERGY PREDICTED BY IDOCK:   -1.01 KCAL/MOL
REMARK 922        TOTAL FREE ENERGY PREDICTED BY IDOCK:   -3.70 KCAL/MOL
REMARK 923 INTER-LIGAND FREE ENERGY PREDICTED BY IDOCK:   -2.61 KCAL/MOL
REMARK 924 INTRA-LIGAND FREE ENERGY PREDICTED BY IDOCK:   -1.09 KCAL/MOL
REMARK 927      BINDING AFFINITY PREDICTED BY RF-SCORE:    0.00 PKD
ROOT
HETATM    1  C   UNL     1      -9.267   5.761  63.912  1.00  0.00     0.835 C  
HETATM    2  C   UNL     1      -8.636   4.685  63.089  1.00  0.00    -0.116 C  
HETATM    3  C   UNL     1      -7.538   3.909  63.940  1.00  0.00    -0.077 C  
HETATM    4  C   UNL     1      -6.891  10.963  69.469  1.00  0.00    -0.125 A  
HETATM    5  C   UNL     1      -8.419   2.733  64.287  1.00  0.00    -0.086 C  
HETATM    6  C   UNL     1      -6.340  12.260  69.354  1.00  0.00    -0.118 A  
HETATM    7  C   UNL     1      -5.955  12.779  68.121  1.00  0.00    -0.086 A  
HETATM    8  C   UNL     1      -9.476   3.420  65.326  1.00  0.00    -0.145 C  
HETATM    9  C   UNL     1      -9.532   5.204  65.340  1.00  0.00    -0.055 C  
HETATM   10  C   UNL     1      -6.099  12.020  66.967  1.00  0.00    -0.132 A  
HETATM   11  C   UNL     1      -6.653  10.731  67.068  1.00  0.00    -0.085 A  
HETATM   12  H   UNL     1      -7.956   8.323  68.793  1.00  0.00     0.000 HD 
HETATM   13  C   UNL     1      -7.057  10.212  68.293  1.00  0.00    -0.075 A  
HETATM   14  C   UNL     1      -9.018   6.342  66.393  1.00  0.00    -0.162 C  
HETATM   15  N   UNL     1      -7.580   8.935  68.070  1.00  0.00    -0.092 NA 
HETATM   16  C   UNL     1      -7.514   8.629  66.732  1.00  0.00    -0.086 A  
HETATM   17  C   UNL     1      -6.879   9.723  66.128  1.00  0.00    -0.090 A  
HETATM   18  C   UNL     1      -6.487   9.763  64.697  1.00  0.00    -0.111 C  
HETATM   19  C   UNL     1      -7.827   7.320  65.968  1.00  0.00    -0.106 C  
HETATM   20  C   UNL     1      -6.589   8.362  64.147  1.00  0.00    -0.071 C  
HETATM   21  C   UNL     1      -8.272   6.854  63.596  1.00  0.00     0.100 C  
HETATM   22  N   UNL     1      -7.907   7.796  64.579  1.00  0.00    -0.132 NA 
ENDROOT
BRANCH   3  23
HETATM   23  O   UNL     1      -7.191   4.343  65.375  1.00  0.00    -0.066 OA 
BRANCH  23  24
HETATM   24  C   UNL     1      -6.144   4.817  66.110  1.00  0.00    -0.027 C  
HETATM   25  O   UNL     1      -5.126   5.316  65.675  1.00  0.00    -0.008 OA 
BRANCH  24  26
HETATM   26  C   UNL     1      -6.517   4.685  67.610  1.00  0.00    -0.045 C  
HETATM   27  C   UNL     1      -6.269   5.474  68.695  1.00  0.00    -0.033 C  
BRANCH  27  28
HETATM   28  C   UNL     1      -6.805   5.280  70.120  1.00  0.00    -0.048 A  
HETATM   29  C   UNL     1      -7.265   6.354  70.889  1.00  0.00    -0.071 A  
HETATM   30  C   UNL     1      -6.834   4.017  70.771  1.00  0.00    -0.033 A  
HETATM   31  C   UNL     1      -7.319   3.843  72.108  1.00  0.00    -0.056 A  
HETATM   32  C   UNL     1      -7.815   6.197  72.183  1.00  0.00    -0.101 A  
HETATM   33  C   UNL     1      -7.833   4.943  72.819  1.00  0.00    -0.094 A  
BRANCH  32  34
HETATM   34  O   UNL     1      -8.327   7.267  72.888  1.00  0.00    -0.107 OA 
HETATM   35  C   UNL     1      -7.437   8.376  72.992  1.00  0.00    -0.059 C  
ENDBRANCH  32  34
BRANCH  33  36
HETATM   36  O   UNL     1      -8.303   4.957  74.115  1.00  0.00    -0.103 OA 
HETATM   37  C   UNL     1      -9.696   4.831  74.375  1.00  0.00    -0.146 C  
ENDBRANCH  33  36
BRANCH  31  38
HETATM   38  O   UNL     1      -7.294   2.657  72.792  1.00  0.00    -0.038 OA 
HETATM   39  C   UNL     1      -7.761   1.469  72.184  1.00  0.00    -0.040 C  
ENDBRANCH  31  38
ENDBRANCH  27  28
ENDBRANCH  24  26
ENDBRANCH  23  24
ENDBRANCH   3  23
BRANCH   5  40
HETATM   40  O   UNL     1      -8.981   2.161  63.087  1.00  0.00    -0.087 OA 
HETATM   41  C   UNL     1     -10.287   1.627  63.140  1.00  0.00    -0.126 C  
ENDBRANCH   5  40
BRANCH   8  42
HETATM   42  C   UNL     1      -9.301   2.603  66.614  1.00  0.00    -0.001 C  
HETATM   43  O   UNL     1      -8.628   1.603  66.722  1.00  0.00    -0.093 OA 
BRANCH  42  44
HETATM   44  O   UNL     1     -10.001   3.189  67.647  1.00  0.00     0.145 OA 
HETATM   45  C   UNL     1      -9.533   3.167  69.003  1.00  0.00    -0.107 C  
ENDBRANCH  42  44
ENDBRANCH   8  42
BRANCH   6  46
HETATM   46  O   UNL     1      -6.127  13.129  70.394  1.00  0.00    -0.141 OA 
HETATM   47  C   UNL     1      -5.612  14.401  70.066  1.00  0.00    -0.112 C  
ENDBRANCH   6  46
TORSDOF 11
ENDMDL
MODEL       87
REMARK 921   NORMALIZED FREE ENERGY PREDICTED BY IDOCK:   -0.96 KCAL/MOL
REMARK 922        TOTAL FREE ENERGY PREDICTED BY IDOCK:   -3.61 KCAL/MOL
REMARK 923 INTER-LIGAND FREE ENERGY PREDICTED BY IDOCK:   -4.23 KCAL/MOL
REMARK 924 INTRA-LIGAND FREE ENERGY PREDICTED BY IDOCK:    0.62 KCAL/MOL
REMARK 927      BINDING AFFINITY PREDICTED BY RF-SCORE:    0.00 PKD
ROOT
HETATM    1  C   UNL     1      -5.827   5.405  69.929  1.00  0.00    -0.017 C  
HETATM    2  C   UNL     1      -6.896   4.361  69.962  1.00  0.00    -0.041 C  
HETATM    3  C   UNL     1      -7.815   4.471  68.668  1.00  0.00    -0.075 C  
HETATM    4  C   UNL     1      -5.198  12.996  67.568  1.00  0.00    -0.016 A  
HETATM    5  C   UNL     1      -7.144   3.351  67.910  1.00  0.00    -0.051 C  
HETATM    6  C   UNL     1      -5.467  14.206  68.247  1.00  0.00    -0.113 A  
HETATM    7  C   UNL     1      -6.093  14.218  69.490  1.00  0.00    -0.112 A  
HETATM    8  C   UNL     1      -5.697   4.024  67.562  1.00  0.00    -0.022 C  
HETATM    9  C   UNL     1      -5.259   5.488  68.483  1.00  0.00    -0.003 C  
HETATM   10  C   UNL     1      -6.479  13.026  70.090  1.00  0.00     0.157 A  
HETATM   11  C   UNL     1      -6.210  11.815  69.427  1.00  0.00    -0.103 A  
HETATM   12  H   UNL     1      -4.984  10.145  66.942  1.00  0.00     0.000 HD 
HETATM   13  C   UNL     1      -5.568  11.793  68.194  1.00  0.00    -0.044 A  
HETATM   14  C   UNL     1      -5.166   7.075  68.104  1.00  0.00    -0.019 C  
HETATM   15  N   UNL     1      -5.425  10.458  67.806  1.00  0.00    -0.041 NA 
HETATM   16  C   UNL     1      -5.966   9.631  68.761  1.00  0.00    -0.042 A  
HETATM   17  C   UNL     1      -6.507  10.485  69.732  1.00  0.00    -0.102 A  
HETATM   18  C   UNL     1      -7.304  10.015  70.892  1.00  0.00     0.417 C  
HETATM   19  C   UNL     1      -6.191   8.101  68.776  1.00  0.00    -0.044 C  
HETATM   20  C   UNL     1      -7.680   8.574  70.646  1.00  0.00    -0.081 C  
HETATM   21  C   UNL     1      -6.613   6.508  70.599  1.00  0.00    -0.053 C  
HETATM   22  N   UNL     1      -6.445   7.850  70.202  1.00  0.00    -0.037 NA 
ENDROOT
BRANCH   3  23
HETATM   23  O   UNL     1      -7.601   5.586  67.631  1.00  0.00    -0.086 OA 
BRANCH  23  24
HETATM   24  C   UNL     1      -8.119   6.050  66.458  1.00  0.00    -0.109 C  
HETATM   25  O   UNL     1      -8.086   5.487  65.383  1.00  0.00    -0.111 OA 
BRANCH  24  26
HETATM   26  C   UNL     1      -8.839   7.392  66.753  1.00  0.00    -0.148 C  
HETATM   27  C   UNL     1      -9.283   7.967  67.908  1.00  0.00    -0.137 C  
BRANCH  27  28
HETATM   28  C   UNL     1      -9.881   9.370  68.071  1.00  0.00    -0.191 A  
HETATM   29  C   UNL     1     -10.931   9.627  68.959  1.00  0.00    -0.161 A  
HETATM   30  C   UNL     1      -9.447  10.490  67.312  1.00  0.00    -0.179 A  
HETATM   31  C   UNL     1     -10.021  11.796  67.455  1.00  0.00    -0.184 A  
HETATM   32  C   UNL     1     -11.464  10.922  69.170  1.00  0.00    -0.303 A  
HETATM   33  C   UNL     1     -11.031  12.021  68.408  1.00  0.00    -0.237 A  
BRANCH  32  34
HETATM   34  O   UNL     1     -12.451  11.155  70.106  1.00  0.00    -0.287 OA 
HETATM   35  C   UNL     1     -12.583  10.126  71.084  1.00  0.00    -0.386 C  
ENDBRANCH  32  34
BRANCH  33  36
HETATM   36  O   UNL     1     -11.709  13.197  68.649  1.00  0.00    -0.287 OA 
HETATM   37  C   UNL     1     -12.534  13.327  69.799  1.00  0.00    -0.013 C  
ENDBRANCH  33  36
BRANCH  31  38
HETATM   38  O   UNL     1      -9.679  12.880  66.689  1.00  0.00    -0.241 OA 
HETATM   39  C   UNL     1      -9.178  14.055  67.294  1.00  0.00    -0.230 C  
ENDBRANCH  31  38
ENDBRANCH  27  28
ENDBRANCH  24  26
ENDBRANCH  23  24
ENDBRANCH   3  23
BRANCH   5  40
HETATM   40  O   UNL     1      -7.116   2.152  68.713  1.00  0.00    -0.043 OA 
HETATM   41  C   UNL     1      -8.342   1.596  69.139  1.00  0.00    -0.048 C  
ENDBRANCH   5  40
BRANCH   8  42
HETATM   42  C   UNL     1      -5.635   3.979  66.029  1.00  0.00    -0.018 C  
HETATM   43  O   UNL     1      -5.158   4.839  65.323  1.00  0.00    -0.008 OA 
BRANCH  42  44
HETATM   44  O   UNL     1      -6.177   2.799  65.566  1.00  0.00    -0.023 OA 
HETATM   45  C   UNL     1      -6.338   2.523  64.168  1.00  0.00    -0.019 C  
ENDBRANCH  42  44
ENDBRANCH   8  42
BRANCH   6  46
HETATM   46  O   UNL     1      -5.156  15.461  67.789  1.00  0.00    -0.173 OA 
HETATM   47  C   UNL     1      -6.233  16.276  67.381  1.00  0.00    -0.172 C  
ENDBRANCH   6  46
TORSDOF 11
ENDMDL
MODEL       88
REMARK 921   NORMALIZED FREE ENERGY PREDICTED BY IDOCK:   -0.16 KCAL/MOL
REMARK 922        TOTAL FREE ENERGY PREDICTED BY IDOCK:   -2.31 KCAL/MOL
REMARK 923 INTER-LIGAND FREE ENERGY PREDICTED BY IDOCK:   -2.81 KCAL/MOL
REMARK 924 INTRA-LIGAND FREE ENERGY PREDICTED BY IDOCK:    0.50 KCAL/MOL
REMARK 927      BINDING AFFINITY PREDICTED BY RF-SCORE:    0.00 PKD
ROOT
HETATM    1  C   UNL     1      -5.373  10.871  68.831  1.00  0.00    -0.040 C  
HETATM    2  C   UNL     1      -5.126  11.580  67.538  1.00  0.00    -0.052 C  
HETATM    3  C   UNL     1      -6.485  11.733  66.724  1.00  0.00    -0.069 C  
HETATM    4  C   UNL     1     -10.012   4.908  71.385  1.00  0.00    -0.266 A  
HETATM    5  C   UNL     1      -6.744  13.164  67.131  1.00  0.00     0.232 C  
HETATM    6  C   UNL     1      -9.808   3.509  71.394  1.00  0.00    -0.144 A  
HETATM    7  C   UNL     1      -8.724   2.929  70.742  1.00  0.00    -0.130 A  
HETATM    8  C   UNL     1      -7.118  12.984  68.711  1.00  0.00    -0.097 C  
HETATM    9  C   UNL     1      -6.686  11.422  69.457  1.00  0.00    -0.119 C  
HETATM   10  C   UNL     1      -7.815   3.723  70.053  1.00  0.00    -0.047 A  
HETATM   11  C   UNL     1      -8.004   5.117  70.044  1.00  0.00    -0.082 A  
HETATM   12  H   UNL     1      -9.632   7.773  70.920  1.00  0.00     0.000 HD 
HETATM   13  C   UNL     1      -9.073   5.707  70.708  1.00  0.00    -0.147 A  
HETATM   14  C   UNL     1      -7.553  10.127  69.949  1.00  0.00    -0.174 C  
HETATM   15  N   UNL     1      -8.980   7.090  70.536  1.00  0.00    -0.154 NA 
HETATM   16  C   UNL     1      -7.878   7.394  69.773  1.00  0.00    -0.116 A  
HETATM   17  C   UNL     1      -7.315   6.160  69.420  1.00  0.00    -0.091 A  
HETATM   18  C   UNL     1      -6.170   6.012  68.488  1.00  0.00    -0.032 C  
HETATM   19  C   UNL     1      -7.386   8.736  69.180  1.00  0.00    -0.072 C  
HETATM   20  C   UNL     1      -5.970   7.330  67.782  1.00  0.00    -0.034 C  
HETATM   21  C   UNL     1      -5.204   9.461  68.313  1.00  0.00    -0.037 C  
HETATM   22  N   UNL     1      -5.998   8.412  68.818  1.00  0.00    -0.043 NA 
ENDROOT
BRANCH   3  23
HETATM   23  O   UNL     1      -7.798  11.124  67.244  1.00  0.00    -0.125 OA 
BRANCH  23  24
HETATM   24  C   UNL     1      -9.072  10.856  66.836  1.00  0.00    -0.154 C  
HETATM   25  O   UNL     1      -9.395  10.228  65.848  1.00  0.00    -0.164 OA 
BRANCH  24  26
HETATM   26  C   UNL     1     -10.043  11.424  67.904  1.00  0.00    -0.198 C  
HETATM   27  C   UNL     1     -11.265  11.014  68.352  1.00  0.00    -0.337 C  
BRANCH  27  28
HETATM   28  C   UNL     1     -12.072  11.612  69.511  1.00  0.00    -0.336 A  
HETATM   29  C   UNL     1     -12.363  12.978  69.581  1.00  0.00    -0.104 A  
HETATM   30  C   UNL     1     -12.543  10.839  70.606  1.00  0.00    -0.446 A  
HETATM   31  C   UNL     1     -13.282  11.405  71.696  1.00  0.00    -0.309 A  
HETATM   32  C   UNL     1     -13.152  13.548  70.609  1.00  0.00     0.076 A  
HETATM   33  C   UNL     1     -13.607  12.773  71.691  1.00  0.00     0.012 A  
BRANCH  32  34
HETATM   34  O   UNL     1     -13.482  14.887  70.612  1.00  0.00    -0.296 OA 
HETATM   35  C   UNL     1     -12.412  15.753  70.240  1.00  0.00    -0.256 C  
ENDBRANCH  32  34
BRANCH  33  36
HETATM   36  O   UNL     1     -14.276  13.479  72.669  1.00  0.00    -0.751 OA 
HETATM   37  C   UNL     1     -13.642  14.567  73.330  1.00  0.00     0.296 C  
ENDBRANCH  33  36
BRANCH  31  38
HETATM   38  O   UNL     1     -13.687  10.705  72.803  1.00  0.00     0.480 OA 
HETATM   39  C   UNL     1     -14.121   9.366  72.684  1.00  0.00    -0.072 C  
ENDBRANCH  31  38
ENDBRANCH  27  28
ENDBRANCH  24  26
ENDBRANCH  23  24
ENDBRANCH   3  23
BRANCH   5  40
HETATM   40  O   UNL     1      -5.594  13.982  66.834  1.00  0.00     0.423 OA 
HETATM   41  C   UNL     1      -5.460  15.225  67.491  1.00  0.00     0.078 C  
ENDBRANCH   5  40
BRANCH   8  42
HETATM   42  C   UNL     1      -8.531  13.574  68.819  1.00  0.00     0.079 C  
HETATM   43  O   UNL     1      -9.284  13.417  69.753  1.00  0.00     1.457 OA 
BRANCH  42  44
HETATM   44  O   UNL     1      -8.814  14.336  67.706  1.00  0.00    -0.169 OA 
HETATM   45  C   UNL     1      -9.892  15.282  67.675  1.00  0.00    -0.217 C  
ENDBRANCH  42  44
ENDBRANCH   8  42
BRANCH   6  46
HETATM   46  O   UNL     1     -10.614   2.592  72.019  1.00  0.00     0.063 OA 
HETATM   47  C   UNL     1     -10.385   2.376  73.394  1.00  0.00    -0.124 C  
ENDBRANCH   6  46
TORSDOF 11
ENDMDL
MODEL       89
REMARK 921   NORMALIZED FREE ENERGY PREDICTED BY IDOCK:    0.03 KCAL/MOL
REMARK 922        TOTAL FREE ENERGY PREDICTED BY IDOCK:   -1.98 KCAL/MOL
REMARK 923 INTER-LIGAND FREE ENERGY PREDICTED BY IDOCK:   -1.44 KCAL/MOL
REMARK 924 INTRA-LIGAND FREE ENERGY PREDICTED BY IDOCK:   -0.55 KCAL/MOL
REMARK 927      BINDING AFFINITY PREDICTED BY RF-SCORE:    0.00 PKD
ROOT
HETATM    1  C   UNL     1      -9.615   5.759  64.270  1.00  0.00     1.331 C  
HETATM    2  C   UNL     1      -9.122   4.827  63.212  1.00  0.00    -0.033 C  
HETATM    3  C   UNL     1      -7.815   4.067  63.709  1.00  0.00    -0.083 C  
HETATM    4  C   UNL     1      -6.366  10.574  69.734  1.00  0.00    -0.091 A  
HETATM    5  C   UNL     1      -8.521   2.792  64.101  1.00  0.00    -0.086 C  
HETATM    6  C   UNL     1      -5.935  11.918  69.651  1.00  0.00    -0.114 A  
HETATM    7  C   UNL     1      -5.872  12.586  68.433  1.00  0.00    -0.057 A  
HETATM    8  C   UNL     1      -9.355   3.281  65.418  1.00  0.00    -0.140 C  
HETATM    9  C   UNL     1      -9.515   5.043  65.649  1.00  0.00    -0.153 C  
HETATM   10  C   UNL     1      -6.226  11.934  67.258  1.00  0.00    -0.140 A  
HETATM   11  C   UNL     1      -6.663  10.599  67.329  1.00  0.00    -0.078 A  
HETATM   12  H   UNL     1      -7.393   7.931  69.009  1.00  0.00     0.000 HD 
HETATM   13  C   UNL     1      -6.747   9.930  68.545  1.00  0.00    -0.055 A  
HETATM   14  C   UNL     1      -8.847   6.113  66.688  1.00  0.00    -0.127 C  
HETATM   15  N   UNL     1      -7.229   8.642  68.296  1.00  0.00    -0.084 NA 
HETATM   16  C   UNL     1      -7.448   8.475  66.950  1.00  0.00    -0.084 A  
HETATM   17  C   UNL     1      -7.034   9.673  66.352  1.00  0.00    -0.088 A  
HETATM   18  C   UNL     1      -6.979   9.887  64.884  1.00  0.00    -0.131 C  
HETATM   19  C   UNL     1      -7.846   7.226  66.128  1.00  0.00    -0.108 C  
HETATM   20  C   UNL     1      -7.117   8.543  64.212  1.00  0.00    -0.082 C  
HETATM   21  C   UNL     1      -8.786   6.958  63.873  1.00  0.00     0.688 C  
HETATM   22  N   UNL     1      -8.266   7.827  64.854  1.00  0.00    -0.133 NA 
ENDROOT
BRANCH   3  23
HETATM   23  O   UNL     1      -7.179   4.386  65.073  1.00  0.00    -0.068 OA 
BRANCH  23  24
HETATM   24  C   UNL     1      -6.033   4.894  65.609  1.00  0.00    -0.023 C  
HETATM   25  O   UNL     1      -5.150   5.471  65.009  1.00  0.00    -0.009 OA 
BRANCH  24  26
HETATM   26  C   UNL     1      -6.091   4.681  67.145  1.00  0.00    -0.031 C  
HETATM   27  C   UNL     1      -5.528   5.351  68.192  1.00  0.00    -0.011 C  
BRANCH  27  28
HETATM   28  C   UNL     1      -5.768   5.099  69.686  1.00  0.00    -0.016 A  
HETATM   29  C   UNL     1      -5.877   3.806  70.209  1.00  0.00    -0.018 A  
HETATM   30  C   UNL     1      -5.938   6.147  70.631  1.00  0.00    -0.026 A  
HETATM   31  C   UNL     1      -6.179   5.907  72.023  1.00  0.00    -0.044 A  
HETATM   32  C   UNL     1      -6.043   3.544  71.590  1.00  0.00    -0.014 A  
HETATM   33  C   UNL     1      -6.215   4.590  72.515  1.00  0.00    -0.017 A  
BRANCH  32  34
HETATM   34  O   UNL     1      -6.074   2.256  72.085  1.00  0.00    -0.012 OA 
HETATM   35  C   UNL     1      -7.365   1.651  72.054  1.00  0.00    -0.038 C  
ENDBRANCH  32  34
BRANCH  33  36
HETATM   36  O   UNL     1      -6.468   4.184  73.808  1.00  0.00    -0.045 OA 
HETATM   37  C   UNL     1      -7.608   4.673  74.504  1.00  0.00    -0.085 C  
ENDBRANCH  33  36
BRANCH  31  38
HETATM   38  O   UNL     1      -6.420   6.889  72.948  1.00  0.00    -0.061 OA 
HETATM   39  C   UNL     1      -7.069   8.087  72.568  1.00  0.00    -0.091 C  
ENDBRANCH  31  38
ENDBRANCH  27  28
ENDBRANCH  24  26
ENDBRANCH  23  24
ENDBRANCH   3  23
BRANCH   5  40
HETATM   40  O   UNL     1      -9.304   2.295  62.996  1.00  0.00    -0.091 OA 
HETATM   41  C   UNL     1     -10.684   2.071  63.192  1.00  0.00    -0.199 C  
ENDBRANCH   5  40
BRANCH   8  42
HETATM   42  C   UNL     1      -8.844   2.359  66.535  1.00  0.00    -0.127 C  
HETATM   43  O   UNL     1      -7.833   1.696  66.486  1.00  0.00    -0.067 OA 
BRANCH  42  44
HETATM   44  O   UNL     1      -9.690   2.416  67.622  1.00  0.00    -0.046 OA 
HETATM   45  C   UNL     1      -9.235   2.189  68.963  1.00  0.00    -0.139 C  
ENDBRANCH  42  44
ENDBRANCH   8  42
BRANCH   6  46
HETATM   46  O   UNL     1      -5.547  12.695  70.713  1.00  0.00    -0.168 OA 
HETATM   47  C   UNL     1      -6.080  14.000  70.776  1.00  0.00    -0.141 C  
ENDBRANCH   6  46
TORSDOF 11
ENDMDL
MODEL       90
REMARK 921   NORMALIZED FREE ENERGY PREDICTED BY IDOCK:    0.23 KCAL/MOL
REMARK 922        TOTAL FREE ENERGY PREDICTED BY IDOCK:   -1.65 KCAL/MOL
REMARK 923 INTER-LIGAND FREE ENERGY PREDICTED BY IDOCK:   -3.03 KCAL/MOL
REMARK 924 INTRA-LIGAND FREE ENERGY PREDICTED BY IDOCK:    1.37 KCAL/MOL
REMARK 927      BINDING AFFINITY PREDICTED BY RF-SCORE:    0.00 PKD
ROOT
HETATM    1  C   UNL     1      -7.271  10.267  66.926  1.00  0.00    -0.093 C  
HETATM    2  C   UNL     1      -7.956   9.011  67.356  1.00  0.00    -0.100 C  
HETATM    3  C   UNL     1      -9.410   9.337  67.915  1.00  0.00    -0.129 C  
HETATM    4  C   UNL     1      -6.877  17.820  69.453  1.00  0.00    -0.128 A  
HETATM    5  C   UNL     1     -10.146   8.966  66.650  1.00  0.00    -0.287 C  
HETATM    6  C   UNL     1      -6.030  18.442  70.400  1.00  0.00    -0.017 A  
HETATM    7  C   UNL     1      -5.177  17.698  71.209  1.00  0.00    -0.073 A  
HETATM    8  C   UNL     1      -9.701  10.182  65.654  1.00  0.00    -0.322 C  
HETATM    9  C   UNL     1      -8.298  11.158  66.168  1.00  0.00    -0.144 C  
HETATM   10  C   UNL     1      -5.147  16.313  71.107  1.00  0.00    -0.134 A  
HETATM   11  C   UNL     1      -5.980  15.684  70.164  1.00  0.00    -0.140 A  
HETATM   12  H   UNL     1      -8.180  15.792  67.793  1.00  0.00     0.000 HD 
HETATM   13  C   UNL     1      -6.822  16.421  69.339  1.00  0.00    -0.217 A  
HETATM   14  C   UNL     1      -8.129  12.674  66.754  1.00  0.00     0.073 C  
HETATM   15  N   UNL     1      -7.499  15.527  68.504  1.00  0.00    -0.114 NA 
HETATM   16  C   UNL     1      -7.111  14.239  68.783  1.00  0.00    -0.105 A  
HETATM   17  C   UNL     1      -6.216  14.342  69.857  1.00  0.00    -0.149 A  
HETATM   18  C   UNL     1      -5.641  13.173  70.568  1.00  0.00    -0.175 C  
HETATM   19  C   UNL     1      -7.632  12.880  68.259  1.00  0.00    -0.134 C  
HETATM   20  C   UNL     1      -6.423  11.949  70.158  1.00  0.00     0.098 C  
HETATM   21  C   UNL     1      -6.661  10.622  68.262  1.00  0.00    -0.062 C  
HETATM   22  N   UNL     1      -6.552  11.969  68.665  1.00  0.00    -0.069 NA 
ENDROOT
BRANCH   3  23
HETATM   23  O   UNL     1      -9.910  10.787  68.034  1.00  0.00    -0.160 OA 
BRANCH  23  24
HETATM   24  C   UNL     1     -10.494  11.632  68.932  1.00  0.00    -0.175 C  
HETATM   25  O   UNL     1     -10.812  11.363  70.073  1.00  0.00     0.001 OA 
BRANCH  24  26
HETATM   26  C   UNL     1     -10.604  13.030  68.268  1.00  0.00    -0.260 C  
HETATM   27  C   UNL     1     -10.938  14.260  68.756  1.00  0.00    -0.271 C  
BRANCH  27  28
HETATM   28  C   UNL     1     -10.892  15.595  68.004  1.00  0.00    -0.308 A  
HETATM   29  C   UNL     1     -10.766  16.817  68.674  1.00  0.00    -0.352 A  
HETATM   30  C   UNL     1     -11.016  15.693  66.592  1.00  0.00    -0.212 A  
HETATM   31  C   UNL     1     -10.991  16.945  65.894  1.00  0.00     0.109 A  
HETATM   32  C   UNL     1     -10.666  18.059  68.001  1.00  0.00    -0.285 A  
HETATM   33  C   UNL     1     -10.796  18.143  66.604  1.00  0.00    -0.019 A  
BRANCH  32  34
HETATM   34  O   UNL     1     -10.469  19.240  68.687  1.00  0.00    -0.301 OA 
HETATM   35  C   UNL     1      -9.114  19.480  69.061  1.00  0.00    -0.218 C  
ENDBRANCH  32  34
BRANCH  33  36
HETATM   36  O   UNL     1     -10.780  19.425  66.096  1.00  0.00    -0.443 OA 
HETATM   37  C   UNL     1      -9.559  20.009  65.660  1.00  0.00     0.036 C  
ENDBRANCH  33  36
BRANCH  31  38
HETATM   38  O   UNL     1     -11.181  17.082  64.544  1.00  0.00    -1.091 OA 
HETATM   39  C   UNL     1     -11.526  15.964  63.751  1.00  0.00     0.801 C  
ENDBRANCH  31  38
ENDBRANCH  27  28
ENDBRANCH  24  26
ENDBRANCH  23  24
ENDBRANCH   3  23
BRANCH   5  40
HETATM   40  O   UNL     1      -9.782   7.633  66.235  1.00  0.00    -0.161 OA 
HETATM   41  C   UNL     1     -10.721   6.592  66.407  1.00  0.00     0.229 C  
ENDBRANCH   5  40
BRANCH   8  42
HETATM   42  C   UNL     1     -11.034  10.827  65.250  1.00  0.00     0.122 C  
HETATM   43  O   UNL     1     -11.346  11.140  64.123  1.00  0.00    -0.191 OA 
BRANCH  42  44
HETATM   44  O   UNL     1     -11.845  10.973  66.355  1.00  0.00     0.070 OA 
HETATM   45  C   UNL     1     -12.815  12.024  66.464  1.00  0.00     3.069 C  
ENDBRANCH  42  44
ENDBRANCH   8  42
BRANCH   6  46
HETATM   46  O   UNL     1      -5.946  19.792  70.626  1.00  0.00    -0.269 OA 
HETATM   47  C   UNL     1      -5.305  20.565  69.635  1.00  0.00    -0.325 C  
ENDBRANCH   6  46
TORSDOF 11
ENDMDL
MODEL       91
REMARK 921   NORMALIZED FREE ENERGY PREDICTED BY IDOCK:    0.24 KCAL/MOL
REMARK 922        TOTAL FREE ENERGY PREDICTED BY IDOCK:   -1.65 KCAL/MOL
REMARK 923 INTER-LIGAND FREE ENERGY PREDICTED BY IDOCK:    0.01 KCAL/MOL
REMARK 924 INTRA-LIGAND FREE ENERGY PREDICTED BY IDOCK:   -1.66 KCAL/MOL
REMARK 927      BINDING AFFINITY PREDICTED BY RF-SCORE:    0.00 PKD
ROOT
HETATM    1  C   UNL     1      -7.104   7.022  66.436  1.00  0.00    -0.074 C  
HETATM    2  C   UNL     1      -6.127   6.609  67.488  1.00  0.00    -0.031 C  
HETATM    3  C   UNL     1      -6.719   6.897  68.936  1.00  0.00    -0.059 C  
HETATM    4  C   UNL     1     -12.357  12.931  65.396  1.00  0.00    -0.538 A  
HETATM    5  C   UNL     1      -7.168   5.480  69.201  1.00  0.00    -0.069 C  
HETATM    6  C   UNL     1     -12.203  14.229  64.856  1.00  0.00    -0.440 A  
HETATM    7  C   UNL     1     -10.946  14.746  64.556  1.00  0.00    -0.227 A  
HETATM    8  C   UNL     1      -8.419   5.342  68.160  1.00  0.00    -0.096 C  
HETATM    9  C   UNL     1      -8.529   6.580  66.879  1.00  0.00    -0.114 C  
HETATM   10  C   UNL     1      -9.805  13.990  64.792  1.00  0.00     0.113 A  
HETATM   11  C   UNL     1      -9.946  12.695  65.321  1.00  0.00    -0.215 A  
HETATM   12  H   UNL     1     -11.768  10.239  66.381  1.00  0.00     0.000 HD 
HETATM   13  C   UNL     1     -11.199  12.164  65.607  1.00  0.00    -0.335 A  
HETATM   14  C   UNL     1      -9.520   7.853  66.620  1.00  0.00    -0.270 C  
HETATM   15  N   UNL     1     -11.018  10.867  66.095  1.00  0.00    -0.103 NA 
HETATM   16  C   UNL     1      -9.678  10.562  66.130  1.00  0.00    -0.209 A  
HETATM   17  C   UNL     1      -9.019  11.725  65.709  1.00  0.00    -0.011 A  
HETATM   18  C   UNL     1      -7.543  11.886  65.714  1.00  0.00     1.079 C  
HETATM   19  C   UNL     1      -8.925   9.335  66.696  1.00  0.00    -0.140 C  
HETATM   20  C   UNL     1      -6.956  10.759  66.528  1.00  0.00    -0.130 C  
HETATM   21  C   UNL     1      -6.660   8.462  66.314  1.00  0.00    -0.058 C  
HETATM   22  N   UNL     1      -7.601   9.484  66.076  1.00  0.00    -0.099 NA 
ENDROOT
BRANCH   3  23
HETATM   23  O   UNL     1      -8.082   7.588  69.116  1.00  0.00    -0.119 OA 
BRANCH  23  24
HETATM   24  C   UNL     1      -8.817   8.241  70.062  1.00  0.00    -0.134 C  
HETATM   25  O   UNL     1      -9.465   7.728  70.951  1.00  0.00    -0.159 OA 
BRANCH  24  26
HETATM   26  C   UNL     1      -8.611   9.765  69.856  1.00  0.00    -0.236 C  
HETATM   27  C   UNL     1      -9.357  10.721  69.232  1.00  0.00    -0.087 C  
BRANCH  27  28
HETATM   28  C   UNL     1      -9.089  12.231  69.205  1.00  0.00     0.611 A  
HETATM   29  C   UNL     1     -10.129  13.166  69.172  1.00  0.00     0.276 A  
HETATM   30  C   UNL     1      -7.780  12.784  69.168  1.00  0.00     0.323 A  
HETATM   31  C   UNL     1      -7.534  14.196  69.125  1.00  0.00    -0.037 A  
HETATM   32  C   UNL     1      -9.911  14.564  69.203  1.00  0.00    -0.080 A  
HETATM   33  C   UNL     1      -8.611  15.100  69.160  1.00  0.00    -0.218 A  
BRANCH  32  34
HETATM   34  O   UNL     1     -10.959  15.461  69.243  1.00  0.00    -0.233 OA 
HETATM   35  C   UNL     1     -11.908  15.296  68.191  1.00  0.00    -0.195 C  
ENDBRANCH  32  34
BRANCH  33  36
HETATM   36  O   UNL     1      -8.553  16.476  69.092  1.00  0.00    -0.230 OA 
HETATM   37  C   UNL     1      -8.572  17.133  67.831  1.00  0.00    -0.214 C  
ENDBRANCH  33  36
BRANCH  31  38
HETATM   38  O   UNL     1      -6.291  14.761  69.015  1.00  0.00    -0.088 OA 
HETATM   39  C   UNL     1      -5.176  14.170  69.651  1.00  0.00    -0.091 C  
ENDBRANCH  31  38
ENDBRANCH  27  28
ENDBRANCH  24  26
ENDBRANCH  23  24
ENDBRANCH   3  23
BRANCH   5  40
HETATM   40  O   UNL     1      -6.070   4.565  69.007  1.00  0.00    -0.027 OA 
HETATM   41  C   UNL     1      -5.305   4.178  70.129  1.00  0.00    -0.008 C  
ENDBRANCH   5  40
BRANCH   8  42
HETATM   42  C   UNL     1      -9.611   5.004  69.067  1.00  0.00    -0.150 C  
HETATM   43  O   UNL     1     -10.688   5.555  69.041  1.00  0.00    -0.237 OA 
BRANCH  42  44
HETATM   44  O   UNL     1      -9.289   3.957  69.903  1.00  0.00    -0.139 OA 
HETATM   45  C   UNL     1     -10.102   3.591  71.027  1.00  0.00     0.171 C  
ENDBRANCH  42  44
ENDBRANCH   8  42
BRANCH   6  46
HETATM   46  O   UNL     1     -13.225  15.099  64.573  1.00  0.00     0.083 OA 
HETATM   47  C   UNL     1     -13.158  15.780  63.339  1.00  0.00     3.252 C  
ENDBRANCH   6  46
TORSDOF 11
ENDMDL
MODEL       92
REMARK 921   NORMALIZED FREE ENERGY PREDICTED BY IDOCK:    0.63 KCAL/MOL
REMARK 922        TOTAL FREE ENERGY PREDICTED BY IDOCK:   -1.00 KCAL/MOL
REMARK 923 INTER-LIGAND FREE ENERGY PREDICTED BY IDOCK:   -1.06 KCAL/MOL
REMARK 924 INTRA-LIGAND FREE ENERGY PREDICTED BY IDOCK:    0.06 KCAL/MOL
REMARK 927      BINDING AFFINITY PREDICTED BY RF-SCORE:    0.00 PKD
ROOT
HETATM    1  C   UNL     1      -9.534   7.807  71.618  1.00  0.00    -0.179 C  
HETATM    2  C   UNL     1     -10.380   6.624  71.274  1.00  0.00    -0.230 C  
HETATM    3  C   UNL     1     -10.109   6.168  69.774  1.00  0.00    -0.181 C  
HETATM    4  C   UNL     1      -6.930  14.359  67.892  1.00  0.00    -0.174 A  
HETATM    5  C   UNL     1      -9.173   5.036  70.126  1.00  0.00    -0.135 C  
HETATM    6  C   UNL     1      -7.519  15.634  67.731  1.00  0.00    -0.145 A  
HETATM    7  C   UNL     1      -8.837  15.877  68.106  1.00  0.00    -0.176 A  
HETATM    8  C   UNL     1      -7.862   5.858  70.651  1.00  0.00    -0.105 C  
HETATM    9  C   UNL     1      -8.107   7.583  71.038  1.00  0.00    -0.100 C  
HETATM   10  C   UNL     1      -9.611  14.856  68.644  1.00  0.00    -0.222 A  
HETATM   11  C   UNL     1      -9.033  13.586  68.816  1.00  0.00     0.098 A  
HETATM   12  H   UNL     1      -6.523  11.553  68.617  1.00  0.00     0.000 HD 
HETATM   13  C   UNL     1      -7.711  13.339  68.462  1.00  0.00    -0.120 A  
HETATM   14  C   UNL     1      -7.671   8.978  70.308  1.00  0.00    -0.098 C  
HETATM   15  N   UNL     1      -7.423  12.007  68.769  1.00  0.00    -0.109 NA 
HETATM   16  C   UNL     1      -8.532  11.399  69.306  1.00  0.00     0.294 A  
HETATM   17  C   UNL     1      -9.544  12.369  69.272  1.00  0.00     0.739 A  
HETATM   18  C   UNL     1     -10.955  12.102  69.644  1.00  0.00     0.057 C  
HETATM   19  C   UNL     1      -8.802   9.925  69.692  1.00  0.00    -0.208 C  
HETATM   20  C   UNL     1     -11.140  10.607  69.728  1.00  0.00    -0.295 C  
HETATM   21  C   UNL     1     -10.490   8.874  71.137  1.00  0.00    -0.266 C  
HETATM   22  N   UNL     1     -10.004  10.050  70.529  1.00  0.00    -0.096 NA 
ENDROOT
BRANCH   3  23
HETATM   23  O   UNL     1      -9.153   6.957  68.862  1.00  0.00    -0.135 OA 
BRANCH  23  24
HETATM   24  C   UNL     1      -8.846   7.118  67.543  1.00  0.00    -0.119 C  
HETATM   25  O   UNL     1      -8.246   6.330  66.841  1.00  0.00    -0.108 OA 
BRANCH  24  26
HETATM   26  C   UNL     1      -9.475   8.454  67.068  1.00  0.00    -0.225 C  
HETATM   27  C   UNL     1      -8.985   9.496  66.336  1.00  0.00    -0.182 C  
BRANCH  27  28
HETATM   28  C   UNL     1      -9.764  10.719  65.834  1.00  0.00    -0.272 A  
HETATM   29  C   UNL     1     -11.065  10.611  65.333  1.00  0.00     0.303 A  
HETATM   30  C   UNL     1      -9.213  12.028  65.801  1.00  0.00    -0.064 A  
HETATM   31  C   UNL     1      -9.938  13.165  65.315  1.00  0.00    -0.168 A  
HETATM   32  C   UNL     1     -11.827  11.729  64.915  1.00  0.00    -0.064 A  
HETATM   33  C   UNL     1     -11.268  13.019  64.881  1.00  0.00    -0.302 A  
BRANCH  32  34
HETATM   34  O   UNL     1     -13.134  11.598  64.493  1.00  0.00     0.004 OA 
HETATM   35  C   UNL     1     -13.273  11.316  63.102  1.00  0.00     1.634 C  
ENDBRANCH  32  34
BRANCH  33  36
HETATM   36  O   UNL     1     -12.090  13.993  64.356  1.00  0.00    -0.432 OA 
HETATM   37  C   UNL     1     -11.930  14.417  63.008  1.00  0.00     1.647 C  
ENDBRANCH  33  36
BRANCH  31  38
HETATM   38  O   UNL     1      -9.414  14.426  65.200  1.00  0.00     0.086 OA 
HETATM   39  C   UNL     1     -10.261  15.536  64.977  1.00  0.00    -0.216 C  
ENDBRANCH  31  38
ENDBRANCH  27  28
ENDBRANCH  24  26
ENDBRANCH  23  24
ENDBRANCH   3  23
BRANCH   5  40
HETATM   40  O   UNL     1      -9.798   4.152  71.079  1.00  0.00    -0.185 OA 
HETATM   41  C   UNL     1      -9.407   2.795  71.100  1.00  0.00    -0.141 C  
ENDBRANCH   5  40
BRANCH   8  42
HETATM   42  C   UNL     1      -6.740   5.387  69.716  1.00  0.00    -0.054 C  
HETATM   43  O   UNL     1      -5.921   6.106  69.189  1.00  0.00    -0.022 OA 
BRANCH  42  44
HETATM   44  O   UNL     1      -6.777   4.015  69.583  1.00  0.00    -0.036 OA 
HETATM   45  C   UNL     1      -5.591   3.210  69.587  1.00  0.00    -0.017 C  
ENDBRANCH  42  44
ENDBRANCH   8  42
BRANCH   6  46
HETATM   46  O   UNL     1      -6.895  16.739  67.211  1.00  0.00    -0.140 OA 
HETATM   47  C   UNL     1      -7.544  17.979  67.387  1.00  0.00    -0.204 C  
ENDBRANCH   6  46
TORSDOF 11
ENDMDL
MODEL       93
REMARK 921   NORMALIZED FREE ENERGY PREDICTED BY IDOCK:    1.34 KCAL/MOL
REMARK 922        TOTAL FREE ENERGY PREDICTED BY IDOCK:    0.15 KCAL/MOL
REMARK 923 INTER-LIGAND FREE ENERGY PREDICTED BY IDOCK:   -2.33 KCAL/MOL
REMARK 924 INTRA-LIGAND FREE ENERGY PREDICTED BY IDOCK:    2.48 KCAL/MOL
REMARK 927      BINDING AFFINITY PREDICTED BY RF-SCORE:    0.00 PKD
ROOT
HETATM    1  C   UNL     1      -6.305  17.657  70.630  1.00  0.00     1.021 C  
HETATM    2  C   UNL     1      -5.208  18.596  70.245  1.00  0.00    -0.222 C  
HETATM    3  C   UNL     1      -5.238  18.868  68.678  1.00  0.00    -0.193 C  
HETATM    4  C   UNL     1      -9.818  11.233  67.471  1.00  0.00    -0.195 A  
HETATM    5  C   UNL     1      -5.954  20.194  68.768  1.00  0.00    -0.284 C  
HETATM    6  C   UNL     1      -9.486   9.860  67.545  1.00  0.00    -0.151 A  
HETATM    7  C   UNL     1      -8.287   9.432  68.106  1.00  0.00    -0.119 A  
HETATM    8  C   UNL     1      -7.447  19.720  69.228  1.00  0.00    -0.206 C  
HETATM    9  C   UNL     1      -7.595  18.056  69.857  1.00  0.00     1.121 C  
HETATM   10  C   UNL     1      -7.377  10.358  68.602  1.00  0.00    -0.085 A  
HETATM   11  C   UNL     1      -7.700  11.725  68.540  1.00  0.00    -0.137 A  
HETATM   12  H   UNL     1      -9.715  14.141  67.781  1.00  0.00     0.000 HD 
HETATM   13  C   UNL     1      -8.904  12.160  67.999  1.00  0.00    -0.181 A  
HETATM   14  C   UNL     1      -8.234  16.676  69.260  1.00  0.00    -0.027 C  
HETATM   15  N   UNL     1      -8.944  13.554  68.097  1.00  0.00    -0.184 NA 
HETATM   16  C   UNL     1      -7.790  14.015  68.685  1.00  0.00    -0.130 A  
HETATM   17  C   UNL     1      -6.998  12.879  68.898  1.00  0.00    -0.084 A  
HETATM   18  C   UNL     1      -5.603  12.928  69.403  1.00  0.00    -0.084 C  
HETATM   19  C   UNL     1      -7.265  15.453  68.911  1.00  0.00    -0.139 C  
HETATM   20  C   UNL     1      -5.128  14.357  69.319  1.00  0.00    -0.079 C  
HETATM   21  C   UNL     1      -5.545  16.370  70.408  1.00  0.00    -0.142 C  
HETATM   22  N   UNL     1      -6.199  15.230  69.899  1.00  0.00    -0.152 NA 
ENDROOT
BRANCH   3  23
HETATM   23  O   UNL     1      -6.242  18.146  67.763  1.00  0.00    -0.172 OA 
BRANCH  23  24
HETATM   24  C   UNL     1      -6.566  18.020  66.444  1.00  0.00    -0.221 C  
HETATM   25  O   UNL     1      -5.920  18.429  65.501  1.00  0.00    -0.195 OA 
BRANCH  24  26
HETATM   26  C   UNL     1      -7.868  17.181  66.352  1.00  0.00    -0.352 C  
HETATM   27  C   UNL     1      -8.225  16.113  65.582  1.00  0.00     1.151 C  
BRANCH  27  28
HETATM   28  C   UNL     1      -9.521  15.297  65.678  1.00  0.00    -0.240 A  
HETATM   29  C   UNL     1      -9.847  14.316  64.736  1.00  0.00     0.191 A  
HETATM   30  C   UNL     1     -10.493  15.504  66.693  1.00  0.00    -0.299 A  
HETATM   31  C   UNL     1     -11.710  14.751  66.770  1.00  0.00    -0.298 A  
HETATM   32  C   UNL     1     -11.008  13.510  64.832  1.00  0.00    -0.352 A  
HETATM   33  C   UNL     1     -11.965  13.729  65.838  1.00  0.00    -0.406 A  
BRANCH  32  34
HETATM   34  O   UNL     1     -11.266  12.501  63.927  1.00  0.00    -0.369 OA 
HETATM   35  C   UNL     1     -10.107  11.786  63.503  1.00  0.00    -0.438 C  
ENDBRANCH  32  34
BRANCH  33  36
HETATM   36  O   UNL     1     -13.092  12.939  65.748  1.00  0.00    -0.114 OA 
HETATM   37  C   UNL     1     -13.156  11.887  64.793  1.00  0.00     1.182 C  
ENDBRANCH  33  36
BRANCH  31  38
HETATM   38  O   UNL     1     -12.701  14.974  67.689  1.00  0.00     0.684 OA 
HETATM   39  C   UNL     1     -12.547  14.544  69.027  1.00  0.00     0.248 C  
ENDBRANCH  31  38
ENDBRANCH  27  28
ENDBRANCH  24  26
ENDBRANCH  23  24
ENDBRANCH   3  23
BRANCH   5  40
HETATM   40  O   UNL     1      -5.255  21.077  69.670  1.00  0.00    -0.362 OA 
HETATM   41  C   UNL     1      -5.522  20.978  71.054  1.00  0.00     0.174 C  
ENDBRANCH   5  40
BRANCH   8  42
HETATM   42  C   UNL     1      -8.357  20.250  68.110  1.00  0.00    -0.018 C  
HETATM   43  O   UNL     1      -7.983  20.861  67.135  1.00  0.00    -0.280 OA 
BRANCH  42  44
HETATM   44  O   UNL     1      -9.668  19.904  68.361  1.00  0.00    -0.363 OA 
HETATM   45  C   UNL     1     -10.635  19.745  67.314  1.00  0.00    -0.434 C  
ENDBRANCH  42  44
ENDBRANCH   8  42
BRANCH   6  46
HETATM   46  O   UNL     1     -10.270   8.827  67.097  1.00  0.00    -0.227 OA 
HETATM   47  C   UNL     1      -9.619   7.793  66.392  1.00  0.00    -0.165 C  
ENDBRANCH   6  46
TORSDOF 11
ENDMDL
MODEL       94
REMARK 921   NORMALIZED FREE ENERGY PREDICTED BY IDOCK:    1.87 KCAL/MOL
REMARK 922        TOTAL FREE ENERGY PREDICTED BY IDOCK:    1.04 KCAL/MOL
REMARK 923 INTER-LIGAND FREE ENERGY PREDICTED BY IDOCK:    1.85 KCAL/MOL
REMARK 924 INTRA-LIGAND FREE ENERGY PREDICTED BY IDOCK:   -0.81 KCAL/MOL
REMARK 927      BINDING AFFINITY PREDICTED BY RF-SCORE:    0.00 PKD
ROOT
HETATM    1  C   UNL     1      -8.183   7.895  70.371  1.00  0.00    -0.119 C  
HETATM    2  C   UNL     1      -7.997   7.853  71.853  1.00  0.00    -0.125 C  
HETATM    3  C   UNL     1      -9.354   8.230  72.592  1.00  0.00    -0.280 C  
HETATM    4  C   UNL     1     -12.207  12.385  65.153  1.00  0.00    -0.449 A  
HETATM    5  C   UNL     1      -9.765   6.808  72.890  1.00  0.00    -0.155 C  
HETATM    6  C   UNL     1     -11.860  13.590  64.500  1.00  0.00    -0.405 A  
HETATM    7  C   UNL     1     -10.715  14.300  64.847  1.00  0.00    -0.448 A  
HETATM    8  C   UNL     1     -10.136   6.263  71.396  1.00  0.00    -0.222 C  
HETATM    9  C   UNL     1      -9.553   7.244  70.024  1.00  0.00    -0.167 C  
HETATM   10  C   UNL     1      -9.886  13.837  65.862  1.00  0.00    -0.279 A  
HETATM   11  C   UNL     1     -10.217  12.635  66.513  1.00  0.00    -0.255 A  
HETATM   12  H   UNL     1     -12.122  10.050  66.915  1.00  0.00     0.000 HD 
HETATM   13  C   UNL     1     -11.349  11.910  66.159  1.00  0.00    -0.324 A  
HETATM   14  C   UNL     1     -10.287   8.235  68.951  1.00  0.00    -0.230 C  
HETATM   15  N   UNL     1     -11.398  10.766  66.961  1.00  0.00    -0.327 NA 
HETATM   16  C   UNL     1     -10.325  10.750  67.819  1.00  0.00    -0.193 A  
HETATM   17  C   UNL     1      -9.633  11.945  67.577  1.00  0.00    -0.175 A  
HETATM   18  C   UNL     1      -8.468  12.401  68.376  1.00  0.00    -0.131 C  
HETATM   19  C   UNL     1      -9.968   9.801  68.988  1.00  0.00    -0.184 C  
HETATM   20  C   UNL     1      -8.399  11.553  69.623  1.00  0.00     1.019 C  
HETATM   21  C   UNL     1      -7.863   9.359  70.178  1.00  0.00    -0.142 C  
HETATM   22  N   UNL     1      -8.550  10.121  69.211  1.00  0.00    -0.163 NA 
ENDROOT
BRANCH   3  23
HETATM   23  O   UNL     1     -10.603   8.649  71.797  1.00  0.00    -0.270 OA 
BRANCH  23  24
HETATM   24  C   UNL     1     -11.799   9.282  71.968  1.00  0.00    -0.300 C  
HETATM   25  O   UNL     1     -12.854   8.762  72.267  1.00  0.00    -0.369 OA 
BRANCH  24  26
HETATM   26  C   UNL     1     -11.560  10.806  71.796  1.00  0.00     1.222 C  
HETATM   27  C   UNL     1     -12.158  11.752  71.016  1.00  0.00    -0.163 C  
BRANCH  27  28
HETATM   28  C   UNL     1     -11.895  13.263  71.032  1.00  0.00     0.260 A  
HETATM   29  C   UNL     1     -10.939  13.856  70.201  1.00  0.00     0.308 A  
HETATM   30  C   UNL     1     -12.565  14.156  71.911  1.00  0.00    -0.371 A  
HETATM   31  C   UNL     1     -12.304  15.566  71.935  1.00  0.00    -0.395 A  
HETATM   32  C   UNL     1     -10.715  15.253  70.155  1.00  0.00    -0.271 A  
HETATM   33  C   UNL     1     -11.380  16.126  71.035  1.00  0.00    -0.338 A  
BRANCH  32  34
HETATM   34  O   UNL     1      -9.815  15.814  69.273  1.00  0.00    -0.229 OA 
HETATM   35  C   UNL     1      -8.526  16.059  69.830  1.00  0.00     0.560 C  
ENDBRANCH  32  34
BRANCH  33  36
HETATM   36  O   UNL     1     -10.989  17.445  70.948  1.00  0.00     0.687 OA 
HETATM   37  C   UNL     1     -11.013  18.120  69.697  1.00  0.00     1.661 C  
ENDBRANCH  33  36
BRANCH  31  38
HETATM   38  O   UNL     1     -12.876  16.444  72.818  1.00  0.00    -0.309 OA 
HETATM   39  C   UNL     1     -14.280  16.600  72.864  1.00  0.00     1.520 C  
ENDBRANCH  31  38
ENDBRANCH  27  28
ENDBRANCH  24  26
ENDBRANCH  23  24
ENDBRANCH   3  23
BRANCH   5  40
HETATM   40  O   UNL     1      -8.702   6.117  73.579  1.00  0.00    -0.125 OA 
HETATM   41  C   UNL     1      -8.743   4.707  73.642  1.00  0.00    -0.106 C  
ENDBRANCH   5  40
BRANCH   8  42
HETATM   42  C   UNL     1     -11.604   5.831  71.520  1.00  0.00     0.036 C  
HETATM   43  O   UNL     1     -12.461   6.020  70.687  1.00  0.00     0.616 OA 
BRANCH  42  44
HETATM   44  O   UNL     1     -11.804   5.168  72.712  1.00  0.00    -0.219 OA 
HETATM   45  C   UNL     1     -12.631   4.000  72.812  1.00  0.00     1.626 C  
ENDBRANCH  42  44
ENDBRANCH   8  42
BRANCH   6  46
HETATM   46  O   UNL     1     -12.573  14.181  63.489  1.00  0.00    -0.834 OA 
HETATM   47  C   UNL     1     -12.596  15.592  63.464  1.00  0.00     1.407 C  
ENDBRANCH   6  46
TORSDOF 11
ENDMDL
MODEL       95
REMARK 921   NORMALIZED FREE ENERGY PREDICTED BY IDOCK:    2.38 KCAL/MOL
REMARK 922        TOTAL FREE ENERGY PREDICTED BY IDOCK:    1.86 KCAL/MOL
REMARK 923 INTER-LIGAND FREE ENERGY PREDICTED BY IDOCK:    1.84 KCAL/MOL
REMARK 924 INTRA-LIGAND FREE ENERGY PREDICTED BY IDOCK:    0.02 KCAL/MOL
REMARK 927      BINDING AFFINITY PREDICTED BY RF-SCORE:    0.00 PKD
ROOT
HETATM    1  C   UNL     1      -6.548  16.161  66.906  1.00  0.00    -0.052 C  
HETATM    2  C   UNL     1      -7.518  16.644  65.878  1.00  0.00     0.484 C  
HETATM    3  C   UNL     1      -9.012  16.371  66.354  1.00  0.00    -0.305 C  
HETATM    4  C   UNL     1      -6.025  10.007  71.951  1.00  0.00     0.352 A  
HETATM    5  C   UNL     1      -9.273  17.774  66.846  1.00  0.00    -0.258 C  
HETATM    6  C   UNL     1      -5.508   8.703  71.777  1.00  0.00    -0.043 A  
HETATM    7  C   UNL     1      -5.132   8.233  70.523  1.00  0.00    -0.022 A  
HETATM    8  C   UNL     1      -8.320  17.830  68.172  1.00  0.00    -0.264 C  
HETATM    9  C   UNL     1      -7.080  16.554  68.315  1.00  0.00    -0.151 C  
HETATM   10  C   UNL     1      -5.268   9.042  69.402  1.00  0.00    -0.035 A  
HETATM   11  C   UNL     1      -5.775  10.344  69.564  1.00  0.00    -0.038 A  
HETATM   12  H   UNL     1      -6.901  12.748  71.415  1.00  0.00     0.000 HD 
HETATM   13  C   UNL     1      -6.135  10.829  70.817  1.00  0.00    -0.002 A  
HETATM   14  C   UNL     1      -6.923  15.233  69.264  1.00  0.00    -0.166 C  
HETATM   15  N   UNL     1      -6.578  12.145  70.660  1.00  0.00     0.375 NA 
HETATM   16  C   UNL     1      -6.511  12.507  69.335  1.00  0.00    -0.102 A  
HETATM   17  C   UNL     1      -6.072  11.362  68.656  1.00  0.00    -0.043 A  
HETATM   18  C   UNL     1      -5.977  11.266  67.178  1.00  0.00    -0.083 C  
HETATM   19  C   UNL     1      -6.993  13.781  68.600  1.00  0.00    -0.102 C  
HETATM   20  C   UNL     1      -6.720  12.438  66.586  1.00  0.00     0.570 C  
HETATM   21  C   UNL     1      -6.430  14.739  66.408  1.00  0.00     3.468 C  
HETATM   22  N   UNL     1      -6.284  13.671  67.317  1.00  0.00    -0.246 NA 
ENDROOT
BRANCH   3  23
HETATM   23  O   UNL     1      -9.304  15.627  67.669  1.00  0.00    -0.204 OA 
BRANCH  23  24
HETATM   24  C   UNL     1     -10.353  15.232  68.446  1.00  0.00    -0.227 C  
HETATM   25  O   UNL     1     -11.082  15.954  69.095  1.00  0.00    -0.259 OA 
BRANCH  24  26
HETATM   26  C   UNL     1     -10.508  13.696  68.290  1.00  0.00    -0.253 C  
HETATM   27  C   UNL     1      -9.662  12.653  68.530  1.00  0.00    -0.131 C  
BRANCH  27  28
HETATM   28  C   UNL     1      -9.990  11.157  68.441  1.00  0.00    -0.193 A  
HETATM   29  C   UNL     1      -9.871  10.445  67.243  1.00  0.00    -0.214 A  
HETATM   30  C   UNL     1     -10.474  10.404  69.544  1.00  0.00    -0.274 A  
HETATM   31  C   UNL     1     -10.797   9.010  69.452  1.00  0.00    -0.138 A  
HETATM   32  C   UNL     1     -10.113   9.054  67.145  1.00  0.00    -0.243 A  
HETATM   33  C   UNL     1     -10.598   8.320  68.242  1.00  0.00    -0.103 A  
BRANCH  32  34
HETATM   34  O   UNL     1      -9.917   8.365  65.965  1.00  0.00    -0.153 OA 
HETATM   35  C   UNL     1      -8.867   8.887  65.153  1.00  0.00    -0.166 C  
ENDBRANCH  32  34
BRANCH  33  36
HETATM   36  O   UNL     1     -10.886   6.998  67.974  1.00  0.00    -0.208 OA 
HETATM   37  C   UNL     1      -9.868   6.009  68.064  1.00  0.00    -0.124 C  
ENDBRANCH  33  36
BRANCH  31  38
HETATM   38  O   UNL     1     -11.334   8.271  70.472  1.00  0.00    -0.267 OA 
HETATM   39  C   UNL     1     -10.504   7.474  71.294  1.00  0.00    -0.207 C  
ENDBRANCH  31  38
ENDBRANCH  27  28
ENDBRANCH  24  26
ENDBRANCH  23  24
ENDBRANCH   3  23
BRANCH   5  40
HETATM   40  O   UNL     1      -8.979  18.729  65.806  1.00  0.00    -0.397 OA 
HETATM   41  C   UNL     1      -8.413  19.971  66.168  1.00  0.00    -0.265 C  
ENDBRANCH   5  40
BRANCH   8  42
HETATM   42  C   UNL     1      -9.301  18.141  69.311  1.00  0.00     0.173 C  
HETATM   43  O   UNL     1      -9.400  17.511  70.340  1.00  0.00     2.208 OA 
BRANCH  42  44
HETATM   44  O   UNL     1     -10.039  19.265  69.009  1.00  0.00    -0.415 OA 
HETATM   45  C   UNL     1     -10.316  20.287  69.976  1.00  0.00     0.669 C  
ENDBRANCH  42  44
ENDBRANCH   8  42
BRANCH   6  46
HETATM   46  O   UNL     1      -5.318   7.783  72.777  1.00  0.00    -0.036 OA 
HETATM   47  C   UNL     1      -6.476   7.259  73.389  1.00  0.00    -0.064 C  
ENDBRANCH   6  46
TORSDOF 11
ENDMDL
MODEL       96
REMARK 921   NORMALIZED FREE ENERGY PREDICTED BY IDOCK:    3.60 KCAL/MOL
REMARK 922        TOTAL FREE ENERGY PREDICTED BY IDOCK:    3.87 KCAL/MOL
REMARK 923 INTER-LIGAND FREE ENERGY PREDICTED BY IDOCK:    3.00 KCAL/MOL
REMARK 924 INTRA-LIGAND FREE ENERGY PREDICTED BY IDOCK:    0.87 KCAL/MOL
REMARK 927      BINDING AFFINITY PREDICTED BY RF-SCORE:    0.00 PKD
ROOT
HETATM    1  C   UNL     1      -7.352  17.275  70.497  1.00  0.00     2.828 C  
HETATM    2  C   UNL     1      -6.435  18.404  70.154  1.00  0.00     0.221 C  
HETATM    3  C   UNL     1      -6.079  18.375  68.604  1.00  0.00    -0.205 C  
HETATM    4  C   UNL     1      -8.258   9.663  68.299  1.00  0.00    -0.106 A  
HETATM    5  C   UNL     1      -7.074  19.437  68.200  1.00  0.00    -0.275 C  
HETATM    6  C   UNL     1      -7.657   8.478  68.781  1.00  0.00    -0.097 A  
HETATM    7  C   UNL     1      -6.602   8.516  69.688  1.00  0.00    -0.040 A  
HETATM    8  C   UNL     1      -8.487  18.646  68.410  1.00  0.00    -0.366 C  
HETATM    9  C   UNL     1      -8.424  17.147  69.377  1.00  0.00     0.341 C  
HETATM   10  C   UNL     1      -6.106   9.734  70.134  1.00  0.00    -0.058 A  
HETATM   11  C   UNL     1      -6.702  10.920  69.667  1.00  0.00    -0.131 A  
HETATM   12  H   UNL     1      -8.913  12.488  67.900  1.00  0.00     0.000 HD 
HETATM   13  C   UNL     1      -7.768  10.891  68.776  1.00  0.00    -0.129 A  
HETATM   14  C   UNL     1      -8.534  15.559  69.009  1.00  0.00    -0.229 C  
HETATM   15  N   UNL     1      -8.152  12.210  68.518  1.00  0.00    -0.140 NA 
HETATM   16  C   UNL     1      -7.350  13.077  69.221  1.00  0.00     0.241 A  
HETATM   17  C   UNL     1      -6.413  12.270  69.881  1.00  0.00     0.009 A  
HETATM   18  C   UNL     1      -5.270  12.803  70.662  1.00  0.00    -0.135 C  
HETATM   19  C   UNL     1      -7.254  14.621  69.201  1.00  0.00    -0.142 C  
HETATM   20  C   UNL     1      -5.129  14.270  70.340  1.00  0.00    -0.096 C  
HETATM   21  C   UNL     1      -6.287  16.240  70.778  1.00  0.00     0.900 C  
HETATM   22  N   UNL     1      -6.491  14.889  70.429  1.00  0.00    -0.127 NA 
ENDROOT
BRANCH   3  23
HETATM   23  O   UNL     1      -6.590  17.248  67.690  1.00  0.00    -0.146 OA 
BRANCH  23  24
HETATM   24  C   UNL     1      -6.311  16.649  66.497  1.00  0.00     0.095 C  
HETATM   25  O   UNL     1      -5.238  16.638  65.929  1.00  0.00     0.171 OA 
BRANCH  24  26
HETATM   26  C   UNL     1      -7.589  15.905  66.028  1.00  0.00     1.204 C  
HETATM   27  C   UNL     1      -8.120  14.689  66.348  1.00  0.00     0.708 C  
BRANCH  27  28
HETATM   28  C   UNL     1      -9.469  14.121  65.891  1.00  0.00    -0.131 A  
HETATM   29  C   UNL     1      -9.849  12.804  66.169  1.00  0.00    -0.269 A  
HETATM   30  C   UNL     1     -10.404  14.868  65.124  1.00  0.00    -0.431 A  
HETATM   31  C   UNL     1     -11.657  14.327  64.684  1.00  0.00    -0.408 A  
HETATM   32  C   UNL     1     -11.110  12.271  65.808  1.00  0.00    -0.323 A  
HETATM   33  C   UNL     1     -12.024  13.018  65.044  1.00  0.00    -0.397 A  
BRANCH  32  34
HETATM   34  O   UNL     1     -11.483  10.990  66.161  1.00  0.00    -0.071 OA 
HETATM   35  C   UNL     1     -11.712  10.812  67.557  1.00  0.00     0.301 C  
ENDBRANCH  32  34
BRANCH  33  36
HETATM   36  O   UNL     1     -13.166  12.338  64.679  1.00  0.00    -0.763 OA 
HETATM   37  C   UNL     1     -13.242  11.686  63.418  1.00  0.00     0.495 C  
ENDBRANCH  33  36
BRANCH  31  38
HETATM   38  O   UNL     1     -12.548  14.992  63.883  1.00  0.00    -0.813 OA 
HETATM   39  C   UNL     1     -12.652  16.400  63.942  1.00  0.00     2.488 C  
ENDBRANCH  31  38
ENDBRANCH  27  28
ENDBRANCH  24  26
ENDBRANCH  23  24
ENDBRANCH   3  23
BRANCH   5  40
HETATM   40  O   UNL     1      -6.882  20.627  68.993  1.00  0.00    -0.063 OA 
HETATM   41  C   UNL     1      -5.580  21.161  69.107  1.00  0.00    -0.217 C  
ENDBRANCH   5  40
BRANCH   8  42
HETATM   42  C   UNL     1      -9.138  18.688  67.020  1.00  0.00    -0.291 C  
HETATM   43  O   UNL     1      -8.565  18.956  65.988  1.00  0.00    -0.467 OA 
BRANCH  42  44
HETATM   44  O   UNL     1     -10.471  18.347  67.108  1.00  0.00    -0.381 OA 
HETATM   45  C   UNL     1     -11.481  19.288  67.497  1.00  0.00     0.704 C  
ENDBRANCH  42  44
ENDBRANCH   8  42
BRANCH   6  46
HETATM   46  O   UNL     1      -8.023   7.203  68.434  1.00  0.00    -0.119 OA 
HETATM   47  C   UNL     1      -9.094   6.630  69.151  1.00  0.00    -0.137 C  
ENDBRANCH   6  46
TORSDOF 11
ENDMDL
MODEL       97
REMARK 921   NORMALIZED FREE ENERGY PREDICTED BY IDOCK:    5.92 KCAL/MOL
REMARK 922        TOTAL FREE ENERGY PREDICTED BY IDOCK:    7.69 KCAL/MOL
REMARK 923 INTER-LIGAND FREE ENERGY PREDICTED BY IDOCK:    5.45 KCAL/MOL
REMARK 924 INTRA-LIGAND FREE ENERGY PREDICTED BY IDOCK:    2.25 KCAL/MOL
REMARK 927      BINDING AFFINITY PREDICTED BY RF-SCORE:    0.00 PKD
ROOT
HETATM    1  C   UNL     1     -10.313   5.081  66.961  1.00  0.00    -0.242 C  
HETATM    2  C   UNL     1      -9.522   3.853  66.648  1.00  0.00    -0.217 C  
HETATM    3  C   UNL     1      -7.978   4.100  66.944  1.00  0.00    -0.097 C  
HETATM    4  C   UNL     1      -9.305  12.963  66.294  1.00  0.00    -0.148 A  
HETATM    5  C   UNL     1      -7.971   3.415  68.290  1.00  0.00    -0.070 C  
HETATM    6  C   UNL     1      -9.563  13.846  65.221  1.00  0.00     0.148 A  
HETATM    7  C   UNL     1      -9.913  13.374  63.960  1.00  0.00     0.700 A  
HETATM    8  C   UNL     1      -8.835   4.469  69.189  1.00  0.00    -0.127 C  
HETATM    9  C   UNL     1      -9.786   5.685  68.294  1.00  0.00    -0.177 C  
HETATM   10  C   UNL     1     -10.007  12.008  63.726  1.00  0.00    -0.368 A  
HETATM   11  C   UNL     1      -9.759  11.119  64.788  1.00  0.00    -0.303 A  
HETATM   12  H   UNL     1      -9.022  10.520  67.882  1.00  0.00     0.000 HD 
HETATM   13  C   UNL     1      -9.428  11.583  66.056  1.00  0.00    -0.229 A  
HETATM   14  C   UNL     1      -9.622   7.293  68.051  1.00  0.00    -0.148 C  
HETATM   15  N   UNL     1      -9.265  10.476  66.892  1.00  0.00    -0.154 NA 
HETATM   16  C   UNL     1      -9.481   9.318  66.185  1.00  0.00    -0.236 A  
HETATM   17  C   UNL     1      -9.724   9.726  64.866  1.00  0.00    -0.262 A  
HETATM   18  C   UNL     1      -9.887   8.786  63.728  1.00  0.00     2.877 C  
HETATM   19  C   UNL     1      -9.306   7.832  66.580  1.00  0.00    -0.188 C  
HETATM   20  C   UNL     1      -9.427   7.422  64.182  1.00  0.00     2.768 C  
HETATM   21  C   UNL     1     -10.177   5.748  65.612  1.00  0.00     0.514 C  
HETATM   22  N   UNL     1     -10.054   7.149  65.515  1.00  0.00     1.394 NA 
ENDROOT
BRANCH   3  23
HETATM   23  O   UNL     1      -7.466   5.476  67.404  1.00  0.00    -0.082 OA 
BRANCH  23  24
HETATM   24  C   UNL     1      -6.845   6.588  66.915  1.00  0.00    -0.066 C  
HETATM   25  O   UNL     1      -6.508   6.778  65.765  1.00  0.00    -0.047 OA 
BRANCH  24  26
HETATM   26  C   UNL     1      -6.720   7.611  68.075  1.00  0.00    -0.063 C  
HETATM   27  C   UNL     1      -6.135   7.544  69.306  1.00  0.00    -0.031 C  
BRANCH  27  28
HETATM   28  C   UNL     1      -5.983   8.685  70.320  1.00  0.00    -0.030 A  
HETATM   29  C   UNL     1      -5.872  10.021  69.917  1.00  0.00    -0.046 A  
HETATM   30  C   UNL     1      -5.902   8.470  71.722  1.00  0.00    -0.048 A  
HETATM   31  C   UNL     1      -5.742   9.539  72.664  1.00  0.00     0.144 A  
HETATM   32  C   UNL     1      -5.786  11.098  70.832  1.00  0.00     0.013 A  
HETATM   33  C   UNL     1      -5.701  10.872  72.217  1.00  0.00     0.964 A  
BRANCH  32  34
HETATM   34  O   UNL     1      -5.751  12.410  70.405  1.00  0.00    -0.148 OA 
HETATM   35  C   UNL     1      -6.081  12.585  69.029  1.00  0.00    -0.081 C  
ENDBRANCH  32  34
BRANCH  33  36
HETATM   36  O   UNL     1      -5.519  12.006  72.979  1.00  0.00     0.144 OA 
HETATM   37  C   UNL     1      -5.312  13.266  72.354  1.00  0.00     0.079 C  
ENDBRANCH  33  36
BRANCH  31  38
HETATM   38  O   UNL     1      -5.586   9.363  74.014  1.00  0.00    -0.237 OA 
HETATM   39  C   UNL     1      -5.485   8.063  74.560  1.00  0.00    -0.074 C  
ENDBRANCH  31  38
ENDBRANCH  27  28
ENDBRANCH  24  26
ENDBRANCH  23  24
ENDBRANCH   3  23
BRANCH   5  40
HETATM   40  O   UNL     1      -8.509   2.081  68.172  1.00  0.00    -0.061 OA 
HETATM   41  C   UNL     1      -9.054   1.469  69.322  1.00  0.00    -0.101 C  
ENDBRANCH   5  40
BRANCH   8  42
HETATM   42  C   UNL     1      -7.868   4.862  70.316  1.00  0.00    -0.062 C  
HETATM   43  O   UNL     1      -6.697   4.562  70.369  1.00  0.00    -0.034 OA 
BRANCH  42  44
HETATM   44  O   UNL     1      -8.520   5.637  71.252  1.00  0.00    -0.124 OA 
HETATM   45  C   UNL     1      -8.993   5.104  72.496  1.00  0.00    -0.130 C  
ENDBRANCH  42  44
ENDBRANCH   8  42
BRANCH   6  46
HETATM   46  O   UNL     1      -9.507  15.215  65.287  1.00  0.00    -0.128 OA 
HETATM   47  C   UNL     1     -10.535  15.928  64.634  1.00  0.00     0.264 C  
ENDBRANCH   6  46
TORSDOF 11
ENDMDL
MODEL       98
REMARK 921   NORMALIZED FREE ENERGY PREDICTED BY IDOCK:    6.58 KCAL/MOL
REMARK 922        TOTAL FREE ENERGY PREDICTED BY IDOCK:    8.77 KCAL/MOL
REMARK 923 INTER-LIGAND FREE ENERGY PREDICTED BY IDOCK:    3.76 KCAL/MOL
REMARK 924 INTRA-LIGAND FREE ENERGY PREDICTED BY IDOCK:    5.01 KCAL/MOL
REMARK 927      BINDING AFFINITY PREDICTED BY RF-SCORE:    0.00 PKD
ROOT
HETATM    1  C   UNL     1      -9.046  13.430  67.381  1.00  0.00    -0.216 C  
HETATM    2  C   UNL     1      -8.547  13.804  66.022  1.00  0.00     0.966 C  
HETATM    3  C   UNL     1      -8.964  12.698  64.957  1.00  0.00     1.147 C  
HETATM    4  C   UNL     1      -9.935   6.717  71.592  1.00  0.00    -0.187 A  
HETATM    5  C   UNL     1     -10.154  13.452  64.414  1.00  0.00    -0.099 C  
HETATM    6  C   UNL     1      -9.036   6.020  72.432  1.00  0.00    -0.136 A  
HETATM    7  C   UNL     1      -7.692   6.372  72.509  1.00  0.00    -0.101 A  
HETATM    8  C   UNL     1     -11.191  13.360  65.672  1.00  0.00    -0.307 C  
HETATM    9  C   UNL     1     -10.495  12.879  67.244  1.00  0.00    -0.236 C  
HETATM   10  C   UNL     1      -7.200   7.422  71.744  1.00  0.00    -0.071 A  
HETATM   11  C   UNL     1      -8.086   8.128  70.910  1.00  0.00    -0.098 A  
HETATM   12  H   UNL     1     -11.044   8.669  69.715  1.00  0.00     0.000 HD 
HETATM   13  C   UNL     1      -9.434   7.795  70.842  1.00  0.00    -0.160 A  
HETATM   14  C   UNL     1     -10.568  11.517  68.144  1.00  0.00    -0.226 C  
HETATM   15  N   UNL     1     -10.053   8.679  69.955  1.00  0.00    -0.190 NA 
HETATM   16  C   UNL     1      -9.129   9.564  69.453  1.00  0.00    -0.168 A  
HETATM   17  C   UNL     1      -7.900   9.173  70.003  1.00  0.00    -0.099 A  
HETATM   18  C   UNL     1      -6.598   9.782  69.631  1.00  0.00    -0.052 C  
HETATM   19  C   UNL     1      -9.244  10.647  68.355  1.00  0.00    -0.159 C  
HETATM   20  C   UNL     1      -6.809  10.605  68.384  1.00  0.00    -0.064 C  
HETATM   21  C   UNL     1      -7.856  12.598  67.801  1.00  0.00    -0.154 C  
HETATM   22  N   UNL     1      -8.032  11.444  68.592  1.00  0.00    -0.141 NA 
ENDROOT
BRANCH   3  23
HETATM   23  O   UNL     1      -9.701  11.417  65.385  1.00  0.00    -0.217 OA 
BRANCH  23  24
HETATM   24  C   UNL     1     -10.485  10.428  64.868  1.00  0.00    -0.046 C  
HETATM   25  O   UNL     1     -11.284  10.542  63.961  1.00  0.00     0.739 OA 
BRANCH  24  26
HETATM   26  C   UNL     1     -10.114   9.103  65.585  1.00  0.00     0.130 C  
HETATM   27  C   UNL     1      -9.456   7.982  65.171  1.00  0.00     0.852 C  
BRANCH  27  28
HETATM   28  C   UNL     1      -9.051   6.778  66.031  1.00  0.00    -0.103 A  
HETATM   29  C   UNL     1      -7.783   6.194  65.934  1.00  0.00    -0.093 A  
HETATM   30  C   UNL     1      -9.936   6.149  66.947  1.00  0.00    -0.211 A  
HETATM   31  C   UNL     1      -9.559   5.013  67.736  1.00  0.00    -0.146 A  
HETATM   32  C   UNL     1      -7.365   5.119  66.754  1.00  0.00    -0.086 A  
HETATM   33  C   UNL     1      -8.252   4.500  67.653  1.00  0.00    -0.099 A  
BRANCH  32  34
HETATM   34  O   UNL     1      -6.083   4.611  66.685  1.00  0.00    -0.029 OA 
HETATM   35  C   UNL     1      -5.387   4.945  65.486  1.00  0.00    -0.013 C  
ENDBRANCH  32  34
BRANCH  33  36
HETATM   36  O   UNL     1      -7.739   3.402  68.310  1.00  0.00    -0.059 OA 
HETATM   37  C   UNL     1      -6.772   3.568  69.340  1.00  0.00    -0.037 C  
ENDBRANCH  33  36
BRANCH  31  38
HETATM   38  O   UNL     1     -10.407   4.336  68.573  1.00  0.00     0.187 OA 
HETATM   39  C   UNL     1      -9.989   3.142  69.204  1.00  0.00     0.579 C  
ENDBRANCH  31  38
ENDBRANCH  27  28
ENDBRANCH  24  26
ENDBRANCH  23  24
ENDBRANCH   3  23
BRANCH   5  40
HETATM   40  O   UNL     1      -9.759  14.778  64.005  1.00  0.00     1.637 OA 
HETATM   41  C   UNL     1      -9.950  15.848  64.906  1.00  0.00     0.482 C  
ENDBRANCH   5  40
BRANCH   8  42
HETATM   42  C   UNL     1     -12.420  12.655  65.079  1.00  0.00    -0.487 C  
HETATM   43  O   UNL     1     -13.429  12.378  65.688  1.00  0.00     1.176 OA 
BRANCH  42  44
HETATM   44  O   UNL     1     -12.223  12.407  63.738  1.00  0.00    -0.453 OA 
HETATM   45  C   UNL     1     -12.667  13.310  62.716  1.00  0.00     1.222 C  
ENDBRANCH  42  44
ENDBRANCH   8  42
BRANCH   6  46
HETATM   46  O   UNL     1      -9.363   4.961  73.241  1.00  0.00    -0.124 OA 
HETATM   47  C   UNL     1     -10.590   5.042  73.933  1.00  0.00    -0.289 C  
ENDBRANCH   6  46
TORSDOF 11
ENDMDL
MODEL       99
REMARK 921   NORMALIZED FREE ENERGY PREDICTED BY IDOCK:    7.81 KCAL/MOL
REMARK 922        TOTAL FREE ENERGY PREDICTED BY IDOCK:   10.79 KCAL/MOL
REMARK 923 INTER-LIGAND FREE ENERGY PREDICTED BY IDOCK:    9.51 KCAL/MOL
REMARK 924 INTRA-LIGAND FREE ENERGY PREDICTED BY IDOCK:    1.28 KCAL/MOL
REMARK 927      BINDING AFFINITY PREDICTED BY RF-SCORE:    0.00 PKD
ROOT
HETATM    1  C   UNL     1     -11.613  12.201  64.764  1.00  0.00    -0.380 C  
HETATM    2  C   UNL     1     -10.574  11.862  63.745  1.00  0.00    -0.475 C  
HETATM    3  C   UNL     1      -9.250  11.342  64.458  1.00  0.00     0.005 C  
HETATM    4  C   UNL     1     -11.759  15.454  72.043  1.00  0.00    -0.538 A  
HETATM    5  C   UNL     1      -9.528   9.874  64.245  1.00  0.00    -0.216 C  
HETATM    6  C   UNL     1     -11.829  16.804  72.458  1.00  0.00     0.017 A  
HETATM    7  C   UNL     1     -11.708  17.850  71.548  1.00  0.00     4.428 A  
HETATM    8  C   UNL     1     -10.781   9.635  65.266  1.00  0.00     1.382 C  
HETATM    9  C   UNL     1     -11.611  11.098  65.862  1.00  0.00     0.482 C  
HETATM   10  C   UNL     1     -11.503  17.584  70.200  1.00  0.00     2.300 A  
HETATM   11  C   UNL     1     -11.439  16.245  69.775  1.00  0.00    -0.205 A  
HETATM   12  H   UNL     1     -11.562  13.065  70.364  1.00  0.00     0.000 HD 
HETATM   13  C   UNL     1     -11.578  15.194  70.674  1.00  0.00    -0.309 A  
HETATM   14  C   UNL     1     -11.648  11.868  67.303  1.00  0.00    -0.364 C  
HETATM   15  N   UNL     1     -11.491  13.998  69.957  1.00  0.00    -0.213 NA 
HETATM   16  C   UNL     1     -11.295  14.264  68.623  1.00  0.00    -0.275 A  
HETATM   17  C   UNL     1     -11.200  15.659  68.530  1.00  0.00    -0.342 A  
HETATM   18  C   UNL     1     -10.862  16.382  67.278  1.00  0.00    -0.194 C  
HETATM   19  C   UNL     1     -11.003  13.326  67.428  1.00  0.00    -0.271 C  
HETATM   20  C   UNL     1     -10.341  15.373  66.285  1.00  0.00    -0.294 C  
HETATM   21  C   UNL     1     -11.195  13.634  64.997  1.00  0.00    -0.321 C  
HETATM   22  N   UNL     1     -11.280  14.206  66.283  1.00  0.00    -0.322 NA 
ENDROOT
BRANCH   3  23
HETATM   23  O   UNL     1      -9.129  11.315  65.992  1.00  0.00    -0.200 OA 
BRANCH  23  24
HETATM   24  C   UNL     1      -8.259  11.648  66.988  1.00  0.00    -0.170 C  
HETATM   25  O   UNL     1      -7.580  12.653  67.045  1.00  0.00    -0.105 OA 
BRANCH  24  26
HETATM   26  C   UNL     1      -8.350  10.554  68.085  1.00  0.00    -0.119 C  
HETATM   27  C   UNL     1      -9.178  10.388  69.156  1.00  0.00    -0.202 C  
BRANCH  27  28
HETATM   28  C   UNL     1      -9.233   9.183  70.104  1.00  0.00    -0.231 A  
HETATM   29  C   UNL     1      -8.234   8.946  71.054  1.00  0.00    -0.217 A  
HETATM   30  C   UNL     1     -10.265   8.209  70.059  1.00  0.00    -0.202 A  
HETATM   31  C   UNL     1     -10.303   7.074  70.934  1.00  0.00    -0.198 A  
HETATM   32  C   UNL     1      -8.287   7.874  71.978  1.00  0.00    -0.127 A  
HETATM   33  C   UNL     1      -9.311   6.912  71.919  1.00  0.00    -0.141 A  
BRANCH  32  34
HETATM   34  O   UNL     1      -7.323   7.708  72.951  1.00  0.00    -0.073 OA 
HETATM   35  C   UNL     1      -6.004   8.050  72.531  1.00  0.00    -0.046 C  
ENDBRANCH  32  34
BRANCH  33  36
HETATM   36  O   UNL     1      -9.180   5.870  72.812  1.00  0.00    -0.142 OA 
HETATM   37  C   UNL     1     -10.270   4.990  73.053  1.00  0.00    -0.176 C  
ENDBRANCH  33  36
BRANCH  31  38
HETATM   38  O   UNL     1     -11.241   6.078  70.870  1.00  0.00    -0.299 OA 
HETATM   39  C   UNL     1     -12.495   6.312  70.262  1.00  0.00     1.082 C  
ENDBRANCH  31  38
ENDBRANCH  27  28
ENDBRANCH  24  26
ENDBRANCH  23  24
ENDBRANCH   3  23
BRANCH   5  40
HETATM   40  O   UNL     1      -9.782   9.613  62.849  1.00  0.00     0.175 OA 
HETATM   41  C   UNL     1      -9.530   8.317  62.346  1.00  0.00     1.711 C  
ENDBRANCH   5  40
BRANCH   8  42
HETATM   42  C   UNL     1     -10.269   8.546  66.220  1.00  0.00     0.005 C  
HETATM   43  O   UNL     1      -9.128   8.436  66.608  1.00  0.00    -0.146 OA 
BRANCH  42  44
HETATM   44  O   UNL     1     -11.307   7.721  66.598  1.00  0.00     0.738 OA 
HETATM   45  C   UNL     1     -11.176   6.753  67.648  1.00  0.00    -0.138 C  
ENDBRANCH  42  44
ENDBRANCH   8  42
BRANCH   6  46
HETATM   46  O   UNL     1     -12.020  17.231  73.747  1.00  0.00    -0.104 OA 
HETATM   47  C   UNL     1     -13.182  17.990  74.002  1.00  0.00     4.943 C  
ENDBRANCH   6  46
TORSDOF 11
ENDMDL
MODEL      100
REMARK 921   NORMALIZED FREE ENERGY PREDICTED BY IDOCK:    7.83 KCAL/MOL
REMARK 922        TOTAL FREE ENERGY PREDICTED BY IDOCK:   10.82 KCAL/MOL
REMARK 923 INTER-LIGAND FREE ENERGY PREDICTED BY IDOCK:    7.83 KCAL/MOL
REMARK 924 INTRA-LIGAND FREE ENERGY PREDICTED BY IDOCK:    2.99 KCAL/MOL
REMARK 927      BINDING AFFINITY PREDICTED BY RF-SCORE:    0.00 PKD
ROOT
HETATM    1  C   UNL     1      -8.859  16.014  68.890  1.00  0.00    -0.233 C  
HETATM    2  C   UNL     1      -9.856  17.059  68.510  1.00  0.00    -0.290 C  
HETATM    3  C   UNL     1     -11.321  16.438  68.476  1.00  0.00    -0.289 C  
HETATM    4  C   UNL     1      -7.787   8.235  67.497  1.00  0.00    -0.106 A  
HETATM    5  C   UNL     1     -11.733  16.946  69.836  1.00  0.00     1.139 C  
HETATM    6  C   UNL     1      -7.135   7.561  66.440  1.00  0.00    -0.071 A  
HETATM    7  C   UNL     1      -6.692   8.240  65.309  1.00  0.00    -0.052 A  
HETATM    8  C   UNL     1     -10.812  16.019  70.816  1.00  0.00    -0.105 C  
HETATM    9  C   UNL     1      -9.451  15.158  70.047  1.00  0.00     0.168 C  
HETATM   10  C   UNL     1      -6.893   9.610  65.192  1.00  0.00    -0.098 A  
HETATM   11  C   UNL     1      -7.534  10.293  66.242  1.00  0.00    -0.118 A  
HETATM   12  H   UNL     1      -8.931  10.354  69.160  1.00  0.00     0.000 HD 
HETATM   13  C   UNL     1      -7.962   9.625  67.384  1.00  0.00    -0.106 A  
HETATM   14  C   UNL     1      -9.173  13.593  69.667  1.00  0.00     1.411 C  
HETATM   15  N   UNL     1      -8.535  10.565  68.245  1.00  0.00    -0.119 NA 
HETATM   16  C   UNL     1      -8.485  11.814  67.675  1.00  0.00    -0.149 A  
HETATM   17  C   UNL     1      -7.920  11.625  66.406  1.00  0.00     0.005 A  
HETATM   18  C   UNL     1      -7.791  12.700  65.391  1.00  0.00     3.338 C  
HETATM   19  C   UNL     1      -9.083  13.167  68.129  1.00  0.00    -0.200 C  
HETATM   20  C   UNL     1      -8.642  13.865  65.836  1.00  0.00     1.257 C  
HETATM   21  C   UNL     1      -8.587  15.491  67.499  1.00  0.00    -0.170 C  
HETATM   22  N   UNL     1      -8.346  14.118  67.283  1.00  0.00    -0.198 NA 
ENDROOT
BRANCH   3  23
HETATM   23  O   UNL     1     -11.557  14.939  68.729  1.00  0.00    -0.293 OA 
BRANCH  23  24
HETATM   24  C   UNL     1     -12.063  13.832  68.114  1.00  0.00    -0.281 C  
HETATM   25  O   UNL     1     -12.723  13.812  67.095  1.00  0.00     0.007 OA 
BRANCH  24  26
HETATM   26  C   UNL     1     -11.573  12.586  68.898  1.00  0.00    -0.364 C  
HETATM   27  C   UNL     1     -12.235  11.569  69.522  1.00  0.00    -0.287 C  
BRANCH  27  28
HETATM   28  C   UNL     1     -11.615  10.323  70.167  1.00  0.00    -0.376 A  
HETATM   29  C   UNL     1     -12.398   9.242  70.586  1.00  0.00    -0.047 A  
HETATM   30  C   UNL     1     -10.224  10.194  70.423  1.00  0.00    -0.116 A  
HETATM   31  C   UNL     1      -9.651   9.034  71.042  1.00  0.00    -0.279 A  
HETATM   32  C   UNL     1     -11.849   8.057  71.133  1.00  0.00    -0.284 A  
HETATM   33  C   UNL     1     -10.470   7.944  71.387  1.00  0.00    -0.206 A  
BRANCH  32  34
HETATM   34  O   UNL     1     -12.641   6.979  71.470  1.00  0.00    -0.358 OA 
HETATM   35  C   UNL     1     -14.028   7.288  71.587  1.00  0.00    -0.363 C  
ENDBRANCH  32  34
BRANCH  33  36
HETATM   36  O   UNL     1     -10.091   6.777  72.015  1.00  0.00    -0.183 OA 
HETATM   37  C   UNL     1     -10.558   6.482  73.326  1.00  0.00    -0.276 C  
ENDBRANCH  33  36
BRANCH  31  38
HETATM   38  O   UNL     1      -8.327   8.906  71.370  1.00  0.00    -0.191 OA 
HETATM   39  C   UNL     1      -7.918   8.936  72.723  1.00  0.00     0.425 C  
ENDBRANCH  31  38
ENDBRANCH  27  28
ENDBRANCH  24  26
ENDBRANCH  23  24
ENDBRANCH   3  23
BRANCH   5  40
HETATM   40  O   UNL     1     -11.523  18.371  69.921  1.00  0.00     3.126 OA 
HETATM   41  C   UNL     1     -11.334  19.099  68.725  1.00  0.00     2.153 C  
ENDBRANCH   5  40
BRANCH   8  42
HETATM   42  C   UNL     1     -11.838  15.292  71.698  1.00  0.00    -0.388 C  
HETATM   43  O   UNL     1     -11.817  14.113  71.968  1.00  0.00     0.042 OA 
BRANCH  42  44
HETATM   44  O   UNL     1     -12.778  16.185  72.167  1.00  0.00    -0.438 OA 
HETATM   45  C   UNL     1     -12.423  17.338  72.942  1.00  0.00     1.961 C  
ENDBRANCH  42  44
ENDBRANCH   8  42
BRANCH   6  46
HETATM   46  O   UNL     1      -6.868   6.216  66.399  1.00  0.00    -0.058 OA 
HETATM   47  C   UNL     1      -7.961   5.356  66.164  1.00  0.00    -0.105 C  
ENDBRANCH   6  46
TORSDOF 11
ENDMDL
MODEL      101
REMARK 921   NORMALIZED FREE ENERGY PREDICTED BY IDOCK:    8.93 KCAL/MOL
REMARK 922        TOTAL FREE ENERGY PREDICTED BY IDOCK:   12.63 KCAL/MOL
REMARK 923 INTER-LIGAND FREE ENERGY PREDICTED BY IDOCK:   -7.38 KCAL/MOL
REMARK 924 INTRA-LIGAND FREE ENERGY PREDICTED BY IDOCK:   20.01 KCAL/MOL
REMARK 927      BINDING AFFINITY PREDICTED BY RF-SCORE:    0.00 PKD
ROOT
HETATM    1  C   UNL     1      -8.864   5.459  69.321  1.00  0.00    -0.112 C  
HETATM    2  C   UNL     1      -7.513   4.872  69.570  1.00  0.00    -0.056 C  
HETATM    3  C   UNL     1      -6.529   5.977  70.154  1.00  0.00    -0.039 C  
HETATM    4  C   UNL     1     -11.781  12.414  66.730  1.00  0.00    -0.430 A  
HETATM    5  C   UNL     1      -6.664   5.554  71.597  1.00  0.00    -0.057 C  
HETATM    6  C   UNL     1     -12.042  12.884  65.422  1.00  0.00    -0.454 A  
HETATM    7  C   UNL     1     -11.626  12.175  64.300  1.00  0.00    -0.444 A  
HETATM    8  C   UNL     1      -8.197   6.016  71.923  1.00  0.00    -0.115 C  
HETATM    9  C   UNL     1      -9.233   6.384  70.517  1.00  0.00    -0.162 C  
HETATM   10  C   UNL     1     -10.931  10.981  64.444  1.00  0.00    -0.157 A  
HETATM   11  C   UNL     1     -10.673  10.499  65.741  1.00  0.00    -0.055 A  
HETATM   12  H   UNL     1     -10.906  10.732  68.960  1.00  0.00     0.000 HD 
HETATM   13  C   UNL     1     -11.101  11.192  66.867  1.00  0.00    -0.247 A  
HETATM   14  C   UNL     1      -9.822   7.768  69.879  1.00  0.00    -0.177 C  
HETATM   15  N   UNL     1     -10.719  10.460  67.995  1.00  0.00    -0.228 NA 
HETATM   16  C   UNL     1     -10.054   9.321  67.612  1.00  0.00    -0.214 A  
HETATM   17  C   UNL     1      -9.975   9.386  66.213  1.00  0.00    -0.353 A  
HETATM   18  C   UNL     1      -9.222   8.413  65.383  1.00  0.00     0.023 C  
HETATM   19  C   UNL     1      -9.314   8.243  68.440  1.00  0.00    -0.135 C  
HETATM   20  C   UNL     1      -8.340   7.602  66.300  1.00  0.00    -0.133 C  
HETATM   21  C   UNL     1      -8.606   5.949  67.915  1.00  0.00    -0.105 C  
HETATM   22  N   UNL     1      -9.177   7.155  67.460  1.00  0.00    -0.125 NA 
ENDROOT
BRANCH   3  23
HETATM   23  O   UNL     1      -6.981   7.439  70.319  1.00  0.00    -0.057 OA 
BRANCH  23  24
HETATM   24  C   UNL     1      -7.857   8.197  71.038  1.00  0.00    -0.090 C  
HETATM   25  O   UNL     1      -8.659   7.792  71.855  1.00  0.00    -0.105 OA 
BRANCH  24  26
HETATM   26  C   UNL     1      -7.592   9.686  70.694  1.00  0.00    -0.104 C  
HETATM   27  C   UNL     1      -7.234  10.316  69.538  1.00  0.00    -0.122 C  
BRANCH  27  28
HETATM   28  C   UNL     1      -7.118  11.829  69.308  1.00  0.00    -0.032 A  
HETATM   29  C   UNL     1      -6.248  12.625  70.059  1.00  0.00    -0.060 A  
HETATM   30  C   UNL     1      -7.907  12.530  68.356  1.00  0.00    -0.141 A  
HETATM   31  C   UNL     1      -7.808  13.946  68.157  1.00  0.00    -0.147 A  
HETATM   32  C   UNL     1      -6.080  14.013  69.830  1.00  0.00    -0.140 A  
HETATM   33  C   UNL     1      -6.871  14.696  68.890  1.00  0.00    -0.104 A  
BRANCH  32  34
HETATM   34  O   UNL     1      -5.161  14.758  70.540  1.00  0.00    -0.104 OA 
HETATM   35  C   UNL     1      -5.260  14.615  71.955  1.00  0.00    -0.131 C  
ENDBRANCH  32  34
BRANCH  33  36
HETATM   36  O   UNL     1      -6.671  16.060  68.847  1.00  0.00    -0.124 OA 
HETATM   37  C   UNL     1      -5.990  16.651  67.748  1.00  0.00    -0.138 C  
ENDBRANCH  33  36
BRANCH  31  38
HETATM   38  O   UNL     1      -8.603  14.665  67.303  1.00  0.00    -0.188 OA 
HETATM   39  C   UNL     1      -9.722  15.375  67.793  1.00  0.00    -0.211 C  
ENDBRANCH  31  38
ENDBRANCH  27  28
ENDBRANCH  24  26
ENDBRANCH  23  24
ENDBRANCH   3  23
BRANCH   5  40
HETATM   40  O   UNL     1      -6.377   4.146  71.732  1.00  0.00    -0.017 OA 
HETATM   41  C   UNL     1      -6.548   3.539  72.995  1.00  0.00    -0.033 C  
ENDBRANCH   5  40
BRANCH   8  42
HETATM   42  C   UNL     1      -8.039   6.996  73.094  1.00  0.00    -0.101 C  
HETATM   43  O   UNL     1      -7.057   7.668  73.317  1.00  0.00    -0.073 OA 
BRANCH  42  44
HETATM   44  O   UNL     1      -9.193   7.026  73.847  1.00  0.00    -0.180 OA 
HETATM   45  C   UNL     1     -10.141   5.950  73.845  1.00  0.00    -0.236 C  
ENDBRANCH  42  44
ENDBRANCH   8  42
BRANCH   6  46
HETATM   46  O   UNL     1     -12.707  14.043  65.112  1.00  0.00    -0.619 OA 
HETATM   47  C   UNL     1     -11.983  15.021  64.398  1.00  0.00    -0.353 C  
ENDBRANCH   6  46
TORSDOF 11
ENDMDL
MODEL      102
REMARK 921   NORMALIZED FREE ENERGY PREDICTED BY IDOCK:    9.87 KCAL/MOL
REMARK 922        TOTAL FREE ENERGY PREDICTED BY IDOCK:   14.18 KCAL/MOL
REMARK 923 INTER-LIGAND FREE ENERGY PREDICTED BY IDOCK:    8.20 KCAL/MOL
REMARK 924 INTRA-LIGAND FREE ENERGY PREDICTED BY IDOCK:    5.98 KCAL/MOL
REMARK 927      BINDING AFFINITY PREDICTED BY RF-SCORE:    0.00 PKD
ROOT
HETATM    1  C   UNL     1      -6.386  16.061  68.577  1.00  0.00    -0.115 C  
HETATM    2  C   UNL     1      -6.697  17.193  67.653  1.00  0.00    -0.160 C  
HETATM    3  C   UNL     1      -8.122  16.980  66.977  1.00  0.00    -0.205 C  
HETATM    4  C   UNL     1      -7.588   8.179  68.711  1.00  0.00    -0.105 A  
HETATM    5  C   UNL     1      -8.870  17.908  67.905  1.00  0.00    -0.260 C  
HETATM    6  C   UNL     1      -6.827   7.113  68.180  1.00  0.00    -0.074 A  
HETATM    7  C   UNL     1      -5.741   7.343  67.342  1.00  0.00    -0.034 A  
HETATM    8  C   UNL     1      -8.837  17.058  69.300  1.00  0.00     0.097 C  
HETATM    9  C   UNL     1      -7.669  15.712  69.384  1.00  0.00    -0.218 C  
HETATM   10  C   UNL     1      -5.385   8.642  66.998  1.00  0.00    -0.037 A  
HETATM   11  C   UNL     1      -6.131   9.711  67.526  1.00  0.00    -0.052 A  
HETATM   12  H   UNL     1      -8.519  10.873  69.375  1.00  0.00     0.000 HD 
HETATM   13  C   UNL     1      -7.206   9.490  68.380  1.00  0.00    -0.075 A  
HETATM   14  C   UNL     1      -7.817  14.084  69.354  1.00  0.00     0.306 C  
HETATM   15  N   UNL     1      -7.726  10.734  68.750  1.00  0.00    -0.113 NA 
HETATM   16  C   UNL     1      -7.010  11.740  68.148  1.00  0.00    -0.076 A  
HETATM   17  C   UNL     1      -6.063  11.094  67.341  1.00  0.00    -0.061 A  
HETATM   18  C   UNL     1      -5.152  11.803  66.408  1.00  0.00     0.076 C  
HETATM   19  C   UNL     1      -7.235  13.270  68.108  1.00  0.00    -0.112 C  
HETATM   20  C   UNL     1      -5.649  13.220  66.259  1.00  0.00     3.706 C  
HETATM   21  C   UNL     1      -5.748  15.148  67.556  1.00  0.00     0.064 C  
HETATM   22  N   UNL     1      -5.930  13.752  67.631  1.00  0.00    -0.312 NA 
ENDROOT
BRANCH   3  23
HETATM   23  O   UNL     1      -8.946  15.707  67.242  1.00  0.00    -0.188 OA 
BRANCH  23  24
HETATM   24  C   UNL     1     -10.241  15.285  67.312  1.00  0.00    -0.248 C  
HETATM   25  O   UNL     1     -11.219  15.892  66.928  1.00  0.00    -0.168 OA 
BRANCH  24  26
HETATM   26  C   UNL     1     -10.241  13.846  67.895  1.00  0.00    -0.241 C  
HETATM   27  C   UNL     1     -10.545  13.351  69.129  1.00  0.00    -0.035 C  
BRANCH  27  28
HETATM   28  C   UNL     1     -10.615  11.874  69.539  1.00  0.00     0.195 A  
HETATM   29  C   UNL     1     -11.737  11.084  69.266  1.00  0.00    -0.397 A  
HETATM   30  C   UNL     1      -9.577  11.219  70.255  1.00  0.00     2.297 A  
HETATM   31  C   UNL     1      -9.655   9.843  70.652  1.00  0.00     0.122 A  
HETATM   32  C   UNL     1     -11.807   9.706  69.583  1.00  0.00     0.277 A  
HETATM   33  C   UNL     1     -10.775   9.071  70.298  1.00  0.00    -0.230 A  
BRANCH  32  34
HETATM   34  O   UNL     1     -12.898   8.937  69.236  1.00  0.00     3.004 OA 
HETATM   35  C   UNL     1     -14.068   9.202  70.007  1.00  0.00     2.219 C  
ENDBRANCH  32  34
BRANCH  33  36
HETATM   36  O   UNL     1     -11.023   7.755  70.626  1.00  0.00    -0.241 OA 
HETATM   37  C   UNL     1     -10.084   6.742  70.288  1.00  0.00    -0.179 C  
ENDBRANCH  33  36
BRANCH  31  38
HETATM   38  O   UNL     1      -8.707   9.201  71.405  1.00  0.00    -0.309 OA 
HETATM   39  C   UNL     1      -8.923   8.971  72.783  1.00  0.00     0.846 C  
ENDBRANCH  31  38
ENDBRANCH  27  28
ENDBRANCH  24  26
ENDBRANCH  23  24
ENDBRANCH   3  23
BRANCH   5  40
HETATM   40  O   UNL     1      -8.237  19.204  67.929  1.00  0.00    -0.275 OA 
HETATM   41  C   UNL     1      -9.022  20.334  68.245  1.00  0.00     0.053 C  
ENDBRANCH   5  40
BRANCH   8  42
HETATM   42  C   UNL     1     -10.322  16.869  69.645  1.00  0.00    -0.111 C  
HETATM   43  O   UNL     1     -11.243  17.436  69.102  1.00  0.00     0.281 OA 
BRANCH  42  44
HETATM   44  O   UNL     1     -10.461  15.933  70.647  1.00  0.00    -0.124 OA 
HETATM   45  C   UNL     1     -11.707  15.707  71.320  1.00  0.00    -0.422 C  
ENDBRANCH  42  44
ENDBRANCH   8  42
BRANCH   6  46
HETATM   46  O   UNL     1      -7.051   5.781  68.417  1.00  0.00    -0.072 OA 
HETATM   47  C   UNL     1      -7.961   5.126  67.559  1.00  0.00    -0.100 C  
ENDBRANCH   6  46
TORSDOF 11
ENDMDL
MODEL      103
REMARK 921   NORMALIZED FREE ENERGY PREDICTED BY IDOCK:   10.97 KCAL/MOL
REMARK 922        TOTAL FREE ENERGY PREDICTED BY IDOCK:   15.99 KCAL/MOL
REMARK 923 INTER-LIGAND FREE ENERGY PREDICTED BY IDOCK:    6.80 KCAL/MOL
REMARK 924 INTRA-LIGAND FREE ENERGY PREDICTED BY IDOCK:    9.19 KCAL/MOL
REMARK 927      BINDING AFFINITY PREDICTED BY RF-SCORE:    0.00 PKD
ROOT
HETATM    1  C   UNL     1      -9.777   5.508  67.409  1.00  0.00    -0.147 C  
HETATM    2  C   UNL     1     -10.636   5.022  66.286  1.00  0.00    -0.332 C  
HETATM    3  C   UNL     1     -10.050   5.513  64.891  1.00  0.00     1.102 C  
HETATM    4  C   UNL     1      -5.612  12.094  69.101  1.00  0.00    -0.066 A  
HETATM    5  C   UNL     1      -9.364   4.212  64.549  1.00  0.00    -0.162 C  
HETATM    6  C   UNL     1      -5.997  13.304  69.722  1.00  0.00    -0.128 A  
HETATM    7  C   UNL     1      -7.331  13.586  69.999  1.00  0.00     0.965 A  
HETATM    8  C   UNL     1      -8.144   4.200  65.634  1.00  0.00    -0.101 C  
HETATM    9  C   UNL     1      -8.284   5.338  67.002  1.00  0.00    -0.108 C  
HETATM   10  C   UNL     1      -8.324  12.675  69.658  1.00  0.00     1.774 A  
HETATM   11  C   UNL     1      -7.952  11.464  69.047  1.00  0.00    -0.026 A  
HETATM   12  H   UNL     1      -5.714   9.425  67.904  1.00  0.00     0.000 HD 
HETATM   13  C   UNL     1      -6.619  11.167  68.783  1.00  0.00    -0.059 A  
HETATM   14  C   UNL     1      -7.527   6.731  67.395  1.00  0.00    -0.096 C  
HETATM   15  N   UNL     1      -6.567   9.899  68.198  1.00  0.00    -0.056 NA 
HETATM   16  C   UNL     1      -7.836   9.385  68.079  1.00  0.00    -0.091 A  
HETATM   17  C   UNL     1      -8.692  10.390  68.550  1.00  0.00    -0.135 A  
HETATM   18  C   UNL     1     -10.173  10.308  68.488  1.00  0.00    -0.192 C  
HETATM   19  C   UNL     1      -8.355   8.098  67.395  1.00  0.00    -0.122 C  
HETATM   20  C   UNL     1     -10.538   9.166  67.571  1.00  0.00    -0.249 C  
HETATM   21  C   UNL     1     -10.457   6.842  67.610  1.00  0.00    -0.229 C  
HETATM   22  N   UNL     1      -9.707   7.983  67.962  1.00  0.00    -0.156 NA 
ENDROOT
BRANCH   3  23
HETATM   23  O   UNL     1      -8.815   6.428  64.822  1.00  0.00     0.152 OA 
BRANCH  23  24
HETATM   24  C   UNL     1      -8.254   7.384  64.029  1.00  0.00     0.053 C  
HETATM   25  O   UNL     1      -7.344   7.224  63.241  1.00  0.00    -0.073 OA 
BRANCH  24  26
HETATM   26  C   UNL     1      -9.041   8.704  64.245  1.00  0.00     0.462 C  
HETATM   27  C   UNL     1      -9.714   9.212  65.317  1.00  0.00     0.016 C  
BRANCH  27  28
HETATM   28  C   UNL     1     -10.357  10.600  65.431  1.00  0.00    -0.303 A  
HETATM   29  C   UNL     1      -9.916  11.684  64.662  1.00  0.00    -0.291 A  
HETATM   30  C   UNL     1     -11.405  10.896  66.343  1.00  0.00     0.193 A  
HETATM   31  C   UNL     1     -11.991  12.199  66.458  1.00  0.00    -0.117 A  
HETATM   32  C   UNL     1     -10.527  12.960  64.707  1.00  0.00    -0.350 A  
HETATM   33  C   UNL     1     -11.559  13.242  65.618  1.00  0.00    -0.335 A  
BRANCH  32  34
HETATM   34  O   UNL     1     -10.116  13.989  63.884  1.00  0.00     0.543 OA 
HETATM   35  C   UNL     1     -11.153  14.898  63.524  1.00  0.00     2.186 C  
ENDBRANCH  32  34
BRANCH  33  36
HETATM   36  O   UNL     1     -11.989  14.552  65.621  1.00  0.00    -0.359 OA 
HETATM   37  C   UNL     1     -11.420  15.492  66.525  1.00  0.00     0.080 C  
ENDBRANCH  33  36
BRANCH  31  38
HETATM   38  O   UNL     1     -12.951  12.538  67.376  1.00  0.00     1.419 OA 
HETATM   39  C   UNL     1     -12.917  11.996  68.681  1.00  0.00     2.604 C  
ENDBRANCH  31  38
ENDBRANCH  27  28
ENDBRANCH  24  26
ENDBRANCH  23  24
ENDBRANCH   3  23
BRANCH   5  40
HETATM   40  O   UNL     1     -10.302   3.119  64.628  1.00  0.00    -0.011 OA 
HETATM   41  C   UNL     1     -10.199   2.069  63.688  1.00  0.00    -0.131 C  
ENDBRANCH   5  40
BRANCH   8  42
HETATM   42  C   UNL     1      -6.882   4.131  64.762  1.00  0.00    -0.049 C  
HETATM   43  O   UNL     1      -6.850   4.306  63.565  1.00  0.00    -0.041 OA 
BRANCH  42  44
HETATM   44  O   UNL     1      -5.778   3.868  65.544  1.00  0.00    -0.020 OA 
HETATM   45  C   UNL     1      -5.301   4.788  66.535  1.00  0.00    -0.009 C  
ENDBRANCH  42  44
ENDBRANCH   8  42
BRANCH   6  46
HETATM   46  O   UNL     1      -5.144  14.305  70.112  1.00  0.00    -0.089 OA 
HETATM   47  C   UNL     1      -5.500  15.622  69.756  1.00  0.00    -0.118 C  
ENDBRANCH   6  46
TORSDOF 11
ENDMDL
MODEL      104
REMARK 921   NORMALIZED FREE ENERGY PREDICTED BY IDOCK:   11.36 KCAL/MOL
REMARK 922        TOTAL FREE ENERGY PREDICTED BY IDOCK:   16.62 KCAL/MOL
REMARK 923 INTER-LIGAND FREE ENERGY PREDICTED BY IDOCK:   -0.69 KCAL/MOL
REMARK 924 INTRA-LIGAND FREE ENERGY PREDICTED BY IDOCK:   17.31 KCAL/MOL
REMARK 927      BINDING AFFINITY PREDICTED BY RF-SCORE:    0.00 PKD
ROOT
HETATM    1  C   UNL     1      -7.992  13.992  69.343  1.00  0.00     0.364 C  
HETATM    2  C   UNL     1      -7.675  14.845  68.158  1.00  0.00    -0.117 C  
HETATM    3  C   UNL     1      -8.170  14.139  66.820  1.00  0.00     0.179 C  
HETATM    4  C   UNL     1      -8.094   6.197  71.022  1.00  0.00    -0.121 A  
HETATM    5  C   UNL     1      -9.447  14.935  66.693  1.00  0.00    -0.265 C  
HETATM    6  C   UNL     1      -7.074   5.329  71.476  1.00  0.00    -0.067 A  
HETATM    7  C   UNL     1      -5.746   5.740  71.537  1.00  0.00    -0.021 A  
HETATM    8  C   UNL     1     -10.321  14.337  67.936  1.00  0.00    -0.233 C  
HETATM    9  C   UNL     1      -9.423  13.407  69.166  1.00  0.00     0.502 C  
HETATM   10  C   UNL     1      -5.392   7.024  71.141  1.00  0.00    -0.027 A  
HETATM   11  C   UNL     1      -6.400   7.898  70.696  1.00  0.00    -0.037 A  
HETATM   12  H   UNL     1      -9.499   8.577  70.060  1.00  0.00     0.000 HD 
HETATM   13  C   UNL     1      -7.732   7.502  70.649  1.00  0.00    -0.090 A  
HETATM   14  C   UNL     1      -9.333  11.818  69.538  1.00  0.00     1.063 C  
HETATM   15  N   UNL     1      -8.488   8.583  70.190  1.00  0.00    -0.122 NA 
HETATM   16  C   UNL     1      -7.667   9.657  69.939  1.00  0.00    -0.144 A  
HETATM   17  C   UNL     1      -6.367   9.202  70.196  1.00  0.00    -0.044 A  
HETATM   18  C   UNL     1      -5.145  10.003  69.933  1.00  0.00    -0.037 C  
HETATM   19  C   UNL     1      -7.958  11.037  69.303  1.00  0.00    -0.027 C  
HETATM   20  C   UNL     1      -5.537  11.182  69.077  1.00  0.00    -0.040 C  
HETATM   21  C   UNL     1      -6.727  13.164  69.329  1.00  0.00    -0.061 C  
HETATM   22  N   UNL     1      -6.760  11.800  69.683  1.00  0.00    -0.081 NA 
ENDROOT
BRANCH   3  23
HETATM   23  O   UNL     1      -8.798  12.735  66.847  1.00  0.00    -0.211 OA 
BRANCH  23  24
HETATM   24  C   UNL     1      -8.496  11.450  67.193  1.00  0.00    -0.153 C  
HETATM   25  O   UNL     1      -7.505  10.830  66.866  1.00  0.00    -0.107 OA 
BRANCH  24  26
HETATM   26  C   UNL     1      -9.604  10.943  68.153  1.00  0.00    -0.169 C  
HETATM   27  C   UNL     1     -10.242   9.743  68.275  1.00  0.00    -0.212 C  
BRANCH  27  28
HETATM   28  C   UNL     1     -11.249   9.338  69.360  1.00  0.00     0.030 A  
HETATM   29  C   UNL     1     -11.987  10.288  70.074  1.00  0.00    -0.273 A  
HETATM   30  C   UNL     1     -11.472   7.989  69.744  1.00  0.00     0.236 A  
HETATM   31  C   UNL     1     -12.400   7.616  70.770  1.00  0.00    -0.041 A  
HETATM   32  C   UNL     1     -12.962   9.940  71.040  1.00  0.00    -0.331 A  
HETATM   33  C   UNL     1     -13.169   8.601  71.416  1.00  0.00    -0.236 A  
BRANCH  32  34
HETATM   34  O   UNL     1     -13.726  10.898  71.676  1.00  0.00    -0.033 OA 
HETATM   35  C   UNL     1     -13.180  12.213  71.617  1.00  0.00    -0.258 C  
ENDBRANCH  32  34
BRANCH  33  36
HETATM   36  O   UNL     1     -14.075   8.420  72.440  1.00  0.00    -0.337 OA 
HETATM   37  C   UNL     1     -14.207   7.149  73.064  1.00  0.00     1.563 C  
ENDBRANCH  33  36
BRANCH  31  38
HETATM   38  O   UNL     1     -12.587   6.334  71.217  1.00  0.00     0.021 OA 
HETATM   39  C   UNL     1     -11.530   5.397  71.165  1.00  0.00     0.489 C  
ENDBRANCH  31  38
ENDBRANCH  27  28
ENDBRANCH  24  26
ENDBRANCH  23  24
ENDBRANCH   3  23
BRANCH   5  40
HETATM   40  O   UNL     1      -9.158  16.348  66.734  1.00  0.00    -0.208 OA 
HETATM   41  C   UNL     1      -9.535  17.147  65.633  1.00  0.00     0.243 C  
ENDBRANCH   5  40
BRANCH   8  42
HETATM   42  C   UNL     1     -11.582  13.781  67.258  1.00  0.00    -0.361 C  
HETATM   43  O   UNL     1     -12.533  13.304  67.835  1.00  0.00    -0.026 OA 
BRANCH  42  44
HETATM   44  O   UNL     1     -11.492  13.931  65.891  1.00  0.00    -0.313 OA 
HETATM   45  C   UNL     1     -12.157  13.051  64.975  1.00  0.00    -0.427 C  
ENDBRANCH  42  44
ENDBRANCH   8  42
BRANCH   6  46
HETATM   46  O   UNL     1      -7.258   4.036  71.894  1.00  0.00    -0.054 OA 
HETATM   47  C   UNL     1      -8.209   3.825  72.914  1.00  0.00    -0.090 C  
ENDBRANCH   6  46
TORSDOF 11
ENDMDL
MODEL      105
REMARK 921   NORMALIZED FREE ENERGY PREDICTED BY IDOCK:   12.97 KCAL/MOL
REMARK 922        TOTAL FREE ENERGY PREDICTED BY IDOCK:   19.28 KCAL/MOL
REMARK 923 INTER-LIGAND FREE ENERGY PREDICTED BY IDOCK:   -1.16 KCAL/MOL
REMARK 924 INTRA-LIGAND FREE ENERGY PREDICTED BY IDOCK:   20.44 KCAL/MOL
REMARK 927      BINDING AFFINITY PREDICTED BY RF-SCORE:    0.00 PKD
ROOT
HETATM    1  C   UNL     1      -8.113  13.824  68.467  1.00  0.00    -0.128 C  
HETATM    2  C   UNL     1      -8.250  14.960  67.507  1.00  0.00    -0.199 C  
HETATM    3  C   UNL     1      -9.224  14.561  66.314  1.00  0.00    -0.198 C  
HETATM    4  C   UNL     1      -7.715   5.872  68.031  1.00  0.00    -0.100 A  
HETATM    5  C   UNL     1     -10.441  15.261  66.872  1.00  0.00    -0.289 C  
HETATM    6  C   UNL     1      -6.615   5.004  67.840  1.00  0.00    -0.050 A  
HETATM    7  C   UNL     1      -5.354   5.492  67.511  1.00  0.00    -0.005 A  
HETATM    8  C   UNL     1     -10.794  14.313  68.154  1.00  0.00    -0.253 C  
HETATM    9  C   UNL     1      -9.515  13.187  68.688  1.00  0.00    -0.012 C  
HETATM   10  C   UNL     1      -5.152   6.857  67.352  1.00  0.00    -0.008 A  
HETATM   11  C   UNL     1      -6.238   7.731  67.546  1.00  0.00    -0.050 A  
HETATM   12  H   UNL     1      -9.336   8.294  68.291  1.00  0.00     0.000 HD 
HETATM   13  C   UNL     1      -7.496   7.253  67.894  1.00  0.00    -0.102 A  
HETATM   14  C   UNL     1      -9.320  11.568  68.585  1.00  0.00    -0.142 C  
HETATM   15  N   UNL     1      -8.351   8.350  68.036  1.00  0.00    -0.127 NA 
HETATM   16  C   UNL     1      -7.666   9.514  67.782  1.00  0.00    -0.088 A  
HETATM   17  C   UNL     1      -6.372   9.114  67.417  1.00  0.00    -0.059 A  
HETATM   18  C   UNL     1      -5.325  10.050  66.936  1.00  0.00    -0.041 C  
HETATM   19  C   UNL     1      -8.149  10.979  67.670  1.00  0.00    -0.116 C  
HETATM   20  C   UNL     1      -5.989  11.366  66.613  1.00  0.00    -0.147 C  
HETATM   21  C   UNL     1      -6.961  13.128  67.780  1.00  0.00    -0.145 C  
HETATM   22  N   UNL     1      -6.883  11.720  67.762  1.00  0.00    -0.083 NA 
ENDROOT
BRANCH   3  23
HETATM   23  O   UNL     1      -9.821  13.147  66.213  1.00  0.00    -0.275 OA 
BRANCH  23  24
HETATM   24  C   UNL     1      -9.435  11.839  66.177  1.00  0.00    -0.226 C  
HETATM   25  O   UNL     1      -8.624  11.348  65.419  1.00  0.00    -0.022 OA 
BRANCH  24  26
HETATM   26  C   UNL     1     -10.154  11.099  67.336  1.00  0.00    -0.213 C  
HETATM   27  C   UNL     1     -10.564   9.807  67.492  1.00  0.00    -0.335 C  
BRANCH  27  28
HETATM   28  C   UNL     1     -11.166   9.176  68.754  1.00  0.00     0.228 A  
HETATM   29  C   UNL     1     -11.920   9.922  69.666  1.00  0.00     0.126 A  
HETATM   30  C   UNL     1     -10.969   7.814  69.108  1.00  0.00     0.029 A  
HETATM   31  C   UNL     1     -11.518   7.232  70.297  1.00  0.00    -0.210 A  
HETATM   32  C   UNL     1     -12.533   9.353  70.809  1.00  0.00    -0.081 A  
HETATM   33  C   UNL     1     -12.325   8.005  71.151  1.00  0.00    -0.218 A  
BRANCH  32  34
HETATM   34  O   UNL     1     -13.331  10.100  71.651  1.00  0.00    -0.385 OA 
HETATM   35  C   UNL     1     -13.206  11.510  71.475  1.00  0.00    -0.220 C  
ENDBRANCH  32  34
BRANCH  33  36
HETATM   36  O   UNL     1     -12.898   7.615  72.343  1.00  0.00    -0.099 OA 
HETATM   37  C   UNL     1     -12.494   6.405  72.972  1.00  0.00     1.122 C  
ENDBRANCH  33  36
BRANCH  31  38
HETATM   38  O   UNL     1     -11.288   5.945  70.706  1.00  0.00    -0.267 OA 
HETATM   39  C   UNL     1     -10.109   5.269  70.317  1.00  0.00    -0.259 C  
ENDBRANCH  31  38
ENDBRANCH  27  28
ENDBRANCH  24  26
ENDBRANCH  23  24
ENDBRANCH   3  23
BRANCH   5  40
HETATM   40  O   UNL     1     -10.133  16.640  67.161  1.00  0.00    -0.264 OA 
HETATM   41  C   UNL     1     -10.984  17.355  68.033  1.00  0.00    -0.164 C  
ENDBRANCH   5  40
BRANCH   8  42
HETATM   42  C   UNL     1     -12.227  13.839  67.872  1.00  0.00    -0.159 C  
HETATM   43  O   UNL     1     -12.867  13.090  68.575  1.00  0.00     0.866 OA 
BRANCH  42  44
HETATM   44  O   UNL     1     -12.696  14.414  66.710  1.00  0.00    -0.070 OA 
HETATM   45  C   UNL     1     -13.766  13.840  65.946  1.00  0.00     2.384 C  
ENDBRANCH  42  44
ENDBRANCH   8  42
BRANCH   6  46
HETATM   46  O   UNL     1      -6.651   3.638  67.954  1.00  0.00    -0.040 OA 
HETATM   47  C   UNL     1      -7.925   3.031  67.947  1.00  0.00    -0.070 C  
ENDBRANCH   6  46
TORSDOF 11
ENDMDL
MODEL      106
REMARK 921   NORMALIZED FREE ENERGY PREDICTED BY IDOCK:   13.47 KCAL/MOL
REMARK 922        TOTAL FREE ENERGY PREDICTED BY IDOCK:   20.09 KCAL/MOL
REMARK 923 INTER-LIGAND FREE ENERGY PREDICTED BY IDOCK:   12.21 KCAL/MOL
REMARK 924 INTRA-LIGAND FREE ENERGY PREDICTED BY IDOCK:    7.87 KCAL/MOL
REMARK 927      BINDING AFFINITY PREDICTED BY RF-SCORE:    0.00 PKD
ROOT
HETATM    1  C   UNL     1     -10.468  14.154  69.960  1.00  0.00     0.536 C  
HETATM    2  C   UNL     1      -9.406  15.093  70.433  1.00  0.00     0.793 C  
HETATM    3  C   UNL     1      -8.159  15.059  69.445  1.00  0.00    -0.155 C  
HETATM    4  C   UNL     1     -10.745   6.973  66.503  1.00  0.00     0.082 A  
HETATM    5  C   UNL     1      -8.530  16.313  68.690  1.00  0.00    -0.221 C  
HETATM    6  C   UNL     1     -10.740   5.672  67.058  1.00  0.00    -0.250 A  
HETATM    7  C   UNL     1     -10.500   5.462  68.413  1.00  0.00    -0.191 A  
HETATM    8  C   UNL     1      -9.846  15.809  67.863  1.00  0.00    -0.217 C  
HETATM    9  C   UNL     1     -10.598  14.288  68.415  1.00  0.00    -0.255 C  
HETATM   10  C   UNL     1     -10.247   6.538  69.254  1.00  0.00    -0.216 A  
HETATM   11  C   UNL     1     -10.257   7.837  68.714  1.00  0.00    -0.212 A  
HETATM   12  H   UNL     1     -10.635   9.885  66.237  1.00  0.00     0.000 HD 
HETATM   13  C   UNL     1     -10.515   8.058  67.366  1.00  0.00    -0.287 A  
HETATM   14  C   UNL     1     -10.652  12.771  67.812  1.00  0.00    -0.231 C  
HETATM   15  N   UNL     1     -10.477   9.436  67.139  1.00  0.00    -0.254 NA 
HETATM   16  C   UNL     1     -10.196  10.097  68.311  1.00  0.00    -0.166 A  
HETATM   17  C   UNL     1      -9.999   9.093  69.269  1.00  0.00    -0.187 A  
HETATM   18  C   UNL     1      -9.549   9.355  70.659  1.00  0.00    -0.331 C  
HETATM   19  C   UNL     1      -9.913  11.591  68.597  1.00  0.00    -0.199 C  
HETATM   20  C   UNL     1      -9.051  10.778  70.726  1.00  0.00     3.218 C  
HETATM   21  C   UNL     1      -9.961  12.918  70.666  1.00  0.00     5.591 C  
HETATM   22  N   UNL     1     -10.070  11.650  70.058  1.00  0.00     1.272 NA 
ENDROOT
BRANCH   3  23
HETATM   23  O   UNL     1      -8.117  14.095  68.247  1.00  0.00    -0.130 OA 
BRANCH  23  24
HETATM   24  C   UNL     1      -7.493  13.932  67.046  1.00  0.00     0.324 C  
HETATM   25  O   UNL     1      -7.046  14.813  66.340  1.00  0.00     0.969 OA 
BRANCH  24  26
HETATM   26  C   UNL     1      -7.375  12.409  66.774  1.00  0.00     0.194 C  
HETATM   27  C   UNL     1      -6.889  11.695  65.718  1.00  0.00     0.911 C  
BRANCH  27  28
HETATM   28  C   UNL     1      -6.725  10.172  65.630  1.00  0.00    -0.116 A  
HETATM   29  C   UNL     1      -7.067   9.457  64.477  1.00  0.00    -0.101 A  
HETATM   30  C   UNL     1      -6.259   9.380  66.713  1.00  0.00    -0.065 A  
HETATM   31  C   UNL     1      -6.123   7.955  66.633  1.00  0.00    -0.049 A  
HETATM   32  C   UNL     1      -6.873   8.061  64.349  1.00  0.00    -0.064 A  
HETATM   33  C   UNL     1      -6.417   7.287  65.430  1.00  0.00    -0.044 A  
BRANCH  32  34
HETATM   34  O   UNL     1      -7.153   7.395  63.173  1.00  0.00    -0.064 OA 
HETATM   35  C   UNL     1      -8.470   6.852  63.108  1.00  0.00     0.309 C  
ENDBRANCH  32  34
BRANCH  33  36
HETATM   36  O   UNL     1      -6.374   5.929  65.194  1.00  0.00    -0.035 OA 
HETATM   37  C   UNL     1      -7.493   5.264  64.620  1.00  0.00    -0.069 C  
ENDBRANCH  33  36
BRANCH  31  38
HETATM   38  O   UNL     1      -5.748   7.153  67.678  1.00  0.00    -0.026 OA 
HETATM   39  C   UNL     1      -5.730   5.747  67.532  1.00  0.00    -0.013 C  
ENDBRANCH  31  38
ENDBRANCH  27  28
ENDBRANCH  24  26
ENDBRANCH  23  24
ENDBRANCH   3  23
BRANCH   5  40
HETATM   40  O   UNL     1      -8.732  17.407  69.609  1.00  0.00     0.500 OA 
HETATM   41  C   UNL     1     -10.037  17.656  70.088  1.00  0.00     1.099 C  
ENDBRANCH   5  40
BRANCH   8  42
HETATM   42  C   UNL     1      -9.461  16.039  66.394  1.00  0.00    -0.293 C  
HETATM   43  O   UNL     1      -9.692  15.276  65.483  1.00  0.00    -0.332 OA 
BRANCH  42  44
HETATM   44  O   UNL     1      -8.836  17.259  66.252  1.00  0.00    -0.343 OA 
HETATM   45  C   UNL     1      -7.533  17.523  66.791  1.00  0.00    -0.219 C  
ENDBRANCH  42  44
ENDBRANCH   8  42
BRANCH   6  46
HETATM   46  O   UNL     1     -10.964   4.511  66.364  1.00  0.00     0.245 OA 
HETATM   47  C   UNL     1     -11.717   4.613  65.175  1.00  0.00     1.505 C  
ENDBRANCH   6  46
TORSDOF 11
ENDMDL
MODEL      107
REMARK 921   NORMALIZED FREE ENERGY PREDICTED BY IDOCK:   13.71 KCAL/MOL
REMARK 922        TOTAL FREE ENERGY PREDICTED BY IDOCK:   20.48 KCAL/MOL
REMARK 923 INTER-LIGAND FREE ENERGY PREDICTED BY IDOCK:   11.13 KCAL/MOL
REMARK 924 INTRA-LIGAND FREE ENERGY PREDICTED BY IDOCK:    9.35 KCAL/MOL
REMARK 927      BINDING AFFINITY PREDICTED BY RF-SCORE:    0.00 PKD
ROOT
HETATM    1  C   UNL     1      -8.478  13.969  70.531  1.00  0.00     3.177 C  
HETATM    2  C   UNL     1      -7.900  15.220  69.953  1.00  0.00     0.062 C  
HETATM    3  C   UNL     1      -7.474  14.983  68.438  1.00  0.00    -0.113 C  
HETATM    4  C   UNL     1      -7.105   6.135  69.956  1.00  0.00    -0.072 A  
HETATM    5  C   UNL     1      -8.706  15.614  67.834  1.00  0.00    -0.166 C  
HETATM    6  C   UNL     1      -6.220   5.291  70.666  1.00  0.00    -0.023 A  
HETATM    7  C   UNL     1      -5.264   5.808  71.534  1.00  0.00    -0.016 A  
HETATM    8  C   UNL     1      -9.850  14.513  68.218  1.00  0.00    -0.229 C  
HETATM    9  C   UNL     1      -9.416  13.320  69.472  1.00  0.00     1.298 C  
HETATM   10  C   UNL     1      -5.153   7.181  71.715  1.00  0.00    -0.028 A  
HETATM   11  C   UNL     1      -6.033   8.030  71.020  1.00  0.00    -0.033 A  
HETATM   12  H   UNL     1      -8.506   8.516  68.991  1.00  0.00     0.000 HD 
HETATM   13  C   UNL     1      -7.004   7.521  70.166  1.00  0.00    -0.059 A  
HETATM   14  C   UNL     1      -9.058  11.725  69.440  1.00  0.00     0.826 C  
HETATM   15  N   UNL     1      -7.728   8.596  69.645  1.00  0.00    -0.087 NA 
HETATM   16  C   UNL     1      -7.238   9.778  70.146  1.00  0.00    -0.145 A  
HETATM   17  C   UNL     1      -6.145   9.420  70.948  1.00  0.00    -0.069 A  
HETATM   18  C   UNL     1      -5.237  10.401  71.591  1.00  0.00    -0.036 C  
HETATM   19  C   UNL     1      -7.577  11.249  69.807  1.00  0.00     0.424 C  
HETATM   20  C   UNL     1      -5.498  11.753  70.973  1.00  0.00    -0.066 C  
HETATM   21  C   UNL     1      -7.181  13.358  71.007  1.00  0.00     3.355 C  
HETATM   22  N   UNL     1      -6.981  11.963  70.946  1.00  0.00     1.839 NA 
ENDROOT
BRANCH   3  23
HETATM   23  O   UNL     1      -7.603  13.598  67.782  1.00  0.00    -0.131 OA 
BRANCH  23  24
HETATM   24  C   UNL     1      -6.917  12.751  66.962  1.00  0.00     0.166 C  
HETATM   25  O   UNL     1      -5.937  13.025  66.300  1.00  0.00     1.602 OA 
BRANCH  24  26
HETATM   26  C   UNL     1      -7.558  11.343  67.087  1.00  0.00    -0.145 C  
HETATM   27  C   UNL     1      -8.691  10.897  67.704  1.00  0.00    -0.127 C  
BRANCH  27  28
HETATM   28  C   UNL     1      -9.274   9.479  67.648  1.00  0.00    -0.138 A  
HETATM   29  C   UNL     1     -10.352   9.092  68.452  1.00  0.00    -0.242 A  
HETATM   30  C   UNL     1      -8.744   8.455  66.819  1.00  0.00    -0.138 A  
HETATM   31  C   UNL     1      -9.281   7.127  66.783  1.00  0.00    -0.158 A  
HETATM   32  C   UNL     1     -10.945   7.809  68.382  1.00  0.00     0.187 A  
HETATM   33  C   UNL     1     -10.407   6.802  67.561  1.00  0.00    -0.210 A  
BRANCH  32  34
HETATM   34  O   UNL     1     -12.053   7.480  69.136  1.00  0.00     1.192 OA 
HETATM   35  C   UNL     1     -11.755   7.106  70.479  1.00  0.00    -0.272 C  
ENDBRANCH  32  34
BRANCH  33  36
HETATM   36  O   UNL     1     -11.024   5.574  67.670  1.00  0.00    -0.119 OA 
HETATM   37  C   UNL     1     -10.425   4.416  67.102  1.00  0.00     0.365 C  
ENDBRANCH  33  36
BRANCH  31  38
HETATM   38  O   UNL     1      -8.751   6.096  66.052  1.00  0.00    -0.145 OA 
HETATM   39  C   UNL     1      -8.121   6.348  64.812  1.00  0.00    -0.114 C  
ENDBRANCH  31  38
ENDBRANCH  27  28
ENDBRANCH  24  26
ENDBRANCH  23  24
ENDBRANCH   3  23
BRANCH   5  40
HETATM   40  O   UNL     1      -8.895  16.943  68.363  1.00  0.00    -0.226 OA 
HETATM   41  C   UNL     1      -9.686  17.856  67.632  1.00  0.00    -0.280 C  
ENDBRANCH   5  40
BRANCH   8  42
HETATM   42  C   UNL     1     -10.417  14.089  66.855  1.00  0.00    -0.276 C  
HETATM   43  O   UNL     1      -9.814  13.470  66.009  1.00  0.00    -0.288 OA 
BRANCH  42  44
HETATM   44  O   UNL     1     -11.731  14.491  66.743  1.00  0.00    -0.373 OA 
HETATM   45  C   UNL     1     -12.167  15.806  67.112  1.00  0.00     1.197 C  
ENDBRANCH  42  44
ENDBRANCH   8  42
BRANCH   6  46
HETATM   46  O   UNL     1      -6.197   3.921  70.593  1.00  0.00    -0.018 OA 
HETATM   47  C   UNL     1      -6.418   3.215  71.794  1.00  0.00    -0.015 C  
ENDBRANCH   6  46
TORSDOF 11
ENDMDL
MODEL      108
REMARK 921   NORMALIZED FREE ENERGY PREDICTED BY IDOCK:   15.32 KCAL/MOL
REMARK 922        TOTAL FREE ENERGY PREDICTED BY IDOCK:   23.13 KCAL/MOL
REMARK 923 INTER-LIGAND FREE ENERGY PREDICTED BY IDOCK:   21.60 KCAL/MOL
REMARK 924 INTRA-LIGAND FREE ENERGY PREDICTED BY IDOCK:    1.53 KCAL/MOL
REMARK 927      BINDING AFFINITY PREDICTED BY RF-SCORE:    0.00 PKD
ROOT
HETATM    1  C   UNL     1     -10.338   5.078  66.948  1.00  0.00    -0.267 C  
HETATM    2  C   UNL     1      -9.468   3.882  66.736  1.00  0.00    -0.223 C  
HETATM    3  C   UNL     1      -7.951   4.236  67.060  1.00  0.00    -0.097 C  
HETATM    4  C   UNL     1      -9.756  12.950  65.816  1.00  0.00    -0.155 A  
HETATM    5  C   UNL     1      -7.948   3.636  68.445  1.00  0.00    -0.070 C  
HETATM    6  C   UNL     1     -10.029  13.750  64.682  1.00  0.00     0.003 A  
HETATM    7  C   UNL     1     -10.311  13.181  63.444  1.00  0.00     1.008 A  
HETATM    8  C   UNL     1      -8.899   4.691  69.252  1.00  0.00    -0.124 C  
HETATM    9  C   UNL     1      -9.889   5.793  68.255  1.00  0.00    -0.170 C  
HETATM   10  C   UNL     1     -10.320  11.800  63.294  1.00  0.00    -0.446 A  
HETATM   11  C   UNL     1     -10.057  10.994  64.416  1.00  0.00    -0.393 A  
HETATM   12  H   UNL     1      -9.387  10.630  67.561  1.00  0.00     0.000 HD 
HETATM   13  C   UNL     1      -9.793  11.554  65.661  1.00  0.00    -0.236 A  
HETATM   14  C   UNL     1      -9.808   7.389  67.916  1.00  0.00    -0.177 C  
HETATM   15  N   UNL     1      -9.595  10.511  66.570  1.00  0.00    -0.170 NA 
HETATM   16  C   UNL     1      -9.722   9.301  65.931  1.00  0.00    -0.285 A  
HETATM   17  C   UNL     1      -9.945   9.612  64.582  1.00  0.00     0.283 A  
HETATM   18  C   UNL     1     -10.018   8.597  63.502  1.00  0.00     4.026 C  
HETATM   19  C   UNL     1      -9.476   7.855  66.424  1.00  0.00    -0.192 C  
HETATM   20  C   UNL     1      -9.497   7.293  64.053  1.00  0.00     2.908 C  
HETATM   21  C   UNL     1     -10.196   5.668  65.564  1.00  0.00     0.559 C  
HETATM   22  N   UNL     1     -10.150   7.066  65.383  1.00  0.00     1.677 NA 
ENDROOT
BRANCH   3  23
HETATM   23  O   UNL     1      -7.533   5.665  67.447  1.00  0.00    -0.082 OA 
BRANCH  23  24
HETATM   24  C   UNL     1      -6.952   6.776  66.910  1.00  0.00    -0.070 C  
HETATM   25  O   UNL     1      -6.518   6.889  65.782  1.00  0.00    -0.048 OA 
BRANCH  24  26
HETATM   26  C   UNL     1      -7.019   7.908  67.970  1.00  0.00    -0.073 C  
HETATM   27  C   UNL     1      -6.515   8.020  69.232  1.00  0.00    -0.036 C  
BRANCH  27  28
HETATM   28  C   UNL     1      -6.558   9.259  70.137  1.00  0.00    -0.052 A  
HETATM   29  C   UNL     1      -5.933   9.282  71.388  1.00  0.00    -0.075 A  
HETATM   30  C   UNL     1      -7.263  10.444  69.794  1.00  0.00    -0.155 A  
HETATM   31  C   UNL     1      -7.316  11.592  70.650  1.00  0.00     2.943 A  
HETATM   32  C   UNL     1      -5.910  10.428  72.218  1.00  0.00     0.761 A  
HETATM   33  C   UNL     1      -6.617  11.593  71.871  1.00  0.00     4.279 A  
BRANCH  32  34
HETATM   34  O   UNL     1      -5.223  10.443  73.415  1.00  0.00    -0.329 OA 
HETATM   35  C   UNL     1      -5.950   9.895  74.512  1.00  0.00     0.378 C  
ENDBRANCH  32  34
BRANCH  33  36
HETATM   36  O   UNL     1      -6.589  12.593  72.820  1.00  0.00     3.636 OA 
HETATM   37  C   UNL     1      -5.350  13.144  73.247  1.00  0.00     0.319 C  
ENDBRANCH  33  36
BRANCH  31  38
HETATM   38  O   UNL     1      -8.045  12.722  70.386  1.00  0.00     3.175 OA 
HETATM   39  C   UNL     1      -7.963  13.348  69.122  1.00  0.00     0.361 C  
ENDBRANCH  31  38
ENDBRANCH  27  28
ENDBRANCH  24  26
ENDBRANCH  23  24
ENDBRANCH   3  23
BRANCH   5  40
HETATM   40  O   UNL     1      -8.407   2.269  68.397  1.00  0.00    -0.056 OA 
HETATM   41  C   UNL     1      -9.327   1.830  69.373  1.00  0.00    -0.101 C  
ENDBRANCH   5  40
BRANCH   8  42
HETATM   42  C   UNL     1      -7.994   5.209  70.379  1.00  0.00    -0.086 C  
HETATM   43  O   UNL     1      -8.355   5.897  71.306  1.00  0.00    -0.121 OA 
BRANCH  42  44
HETATM   44  O   UNL     1      -6.705   4.751  70.200  1.00  0.00    -0.035 OA 
HETATM   45  C   UNL     1      -5.961   4.119  71.251  1.00  0.00    -0.014 C  
ENDBRANCH  42  44
ENDBRANCH   8  42
BRANCH   6  46
HETATM   46  O   UNL     1     -10.053  15.121  64.663  1.00  0.00    -0.113 OA 
HETATM   47  C   UNL     1     -11.020  15.753  65.473  1.00  0.00    -0.268 C  
ENDBRANCH   6  46
TORSDOF 11
ENDMDL
MODEL      109
REMARK 921   NORMALIZED FREE ENERGY PREDICTED BY IDOCK:   15.48 KCAL/MOL
REMARK 922        TOTAL FREE ENERGY PREDICTED BY IDOCK:   23.40 KCAL/MOL
REMARK 923 INTER-LIGAND FREE ENERGY PREDICTED BY IDOCK:   19.72 KCAL/MOL
REMARK 924 INTRA-LIGAND FREE ENERGY PREDICTED BY IDOCK:    3.68 KCAL/MOL
REMARK 927      BINDING AFFINITY PREDICTED BY RF-SCORE:    0.00 PKD
ROOT
HETATM    1  C   UNL     1     -10.270  12.088  69.733  1.00  0.00     1.109 C  
HETATM    2  C   UNL     1      -9.536  13.385  69.625  1.00  0.00     1.452 C  
HETATM    3  C   UNL     1      -8.664  13.417  68.295  1.00  0.00    -0.172 C  
HETATM    4  C   UNL     1      -8.817   4.437  68.018  1.00  0.00    -0.125 A  
HETATM    5  C   UNL     1      -9.646  14.233  67.489  1.00  0.00    -0.216 C  
HETATM    6  C   UNL     1      -8.198   3.415  68.774  1.00  0.00    -0.060 A  
HETATM    7  C   UNL     1      -7.555   3.690  69.977  1.00  0.00    -0.048 A  
HETATM    8  C   UNL     1     -10.856  13.157  67.276  1.00  0.00    -0.270 C  
HETATM    9  C   UNL     1     -10.836  11.718  68.332  1.00  0.00    -0.260 C  
HETATM   10  C   UNL     1      -7.500   4.992  70.459  1.00  0.00    -0.062 A  
HETATM   11  C   UNL     1      -8.119   6.016  69.719  1.00  0.00    -0.114 A  
HETATM   12  H   UNL     1      -9.841   7.048  67.181  1.00  0.00     0.000 HD 
HETATM   13  C   UNL     1      -8.780   5.747  68.525  1.00  0.00    -0.111 A  
HETATM   14  C   UNL     1     -10.492  10.140  68.085  1.00  0.00    -0.243 C  
HETATM   15  N   UNL     1      -9.303   6.948  68.041  1.00  0.00    -0.124 NA 
HETATM   16  C   UNL     1      -8.987   7.976  68.897  1.00  0.00    -0.141 A  
HETATM   17  C   UNL     1      -8.198   7.398  69.901  1.00  0.00    -0.132 A  
HETATM   18  C   UNL     1      -7.529   8.175  70.974  1.00  0.00    -0.067 C  
HETATM   19  C   UNL     1      -9.200   9.504  68.778  1.00  0.00    -0.140 C  
HETATM   20  C   UNL     1      -7.581   9.634  70.595  1.00  0.00    -0.078 C  
HETATM   21  C   UNL     1      -9.186  11.311  70.444  1.00  0.00     3.229 C  
HETATM   22  N   UNL     1      -8.982   9.945  70.164  1.00  0.00    -0.184 NA 
ENDROOT
BRANCH   3  23
HETATM   23  O   UNL     1      -8.589  12.195  67.362  1.00  0.00    -0.159 OA 
BRANCH  23  24
HETATM   24  C   UNL     1      -7.960  11.771  66.229  1.00  0.00     0.155 C  
HETATM   25  O   UNL     1      -7.078  12.354  65.632  1.00  0.00     1.978 OA 
BRANCH  24  26
HETATM   26  C   UNL     1      -8.510  10.363  65.879  1.00  0.00    -0.160 C  
HETATM   27  C   UNL     1      -7.991   9.319  65.171  1.00  0.00    -0.116 C  
BRANCH  27  28
HETATM   28  C   UNL     1      -8.604   7.923  64.999  1.00  0.00    -0.010 A  
HETATM   29  C   UNL     1      -9.948   7.666  65.292  1.00  0.00     2.017 A  
HETATM   30  C   UNL     1      -7.853   6.793  64.576  1.00  0.00    -0.115 A  
HETATM   31  C   UNL     1      -8.426   5.487  64.434  1.00  0.00    -0.080 A  
HETATM   32  C   UNL     1     -10.553   6.402  65.091  1.00  0.00     3.463 A  
HETATM   33  C   UNL     1      -9.798   5.290  64.678  1.00  0.00     0.701 A  
BRANCH  32  34
HETATM   34  O   UNL     1     -11.898   6.198  65.321  1.00  0.00     3.774 OA 
HETATM   35  C   UNL     1     -12.309   6.467  66.659  1.00  0.00     5.089 C  
ENDBRANCH  32  34
BRANCH  33  36
HETATM   36  O   UNL     1     -10.496   4.103  64.622  1.00  0.00    -0.231 OA 
HETATM   37  C   UNL     1     -10.588   3.269  65.770  1.00  0.00     1.571 C  
ENDBRANCH  33  36
BRANCH  31  38
HETATM   38  O   UNL     1      -7.718   4.363  64.101  1.00  0.00    -0.076 OA 
HETATM   39  C   UNL     1      -7.470   3.360  65.065  1.00  0.00    -0.073 C  
ENDBRANCH  31  38
ENDBRANCH  27  28
ENDBRANCH  24  26
ENDBRANCH  23  24
ENDBRANCH   3  23
BRANCH   5  40
HETATM   40  O   UNL     1      -9.983  15.445  68.195  1.00  0.00    -0.218 OA 
HETATM   41  C   UNL     1     -11.013  15.400  69.161  1.00  0.00    -0.252 C  
ENDBRANCH   5  40
BRANCH   8  42
HETATM   42  C   UNL     1     -10.976  13.042  65.749  1.00  0.00    -0.277 C  
HETATM   43  O   UNL     1     -10.047  13.048  64.973  1.00  0.00    -0.277 OA 
BRANCH  42  44
HETATM   44  O   UNL     1     -12.298  12.901  65.386  1.00  0.00    -0.457 OA 
HETATM   45  C   UNL     1     -12.933  13.772  64.441  1.00  0.00     0.387 C  
ENDBRANCH  42  44
ENDBRANCH   8  42
BRANCH   6  46
HETATM   46  O   UNL     1      -8.158   2.087  68.434  1.00  0.00    -0.056 OA 
HETATM   47  C   UNL     1      -8.560   1.752  67.123  1.00  0.00    -0.098 C  
ENDBRANCH   6  46
TORSDOF 11
ENDMDL
MODEL      110
REMARK 921   NORMALIZED FREE ENERGY PREDICTED BY IDOCK:   16.85 KCAL/MOL
REMARK 922        TOTAL FREE ENERGY PREDICTED BY IDOCK:   25.65 KCAL/MOL
REMARK 923 INTER-LIGAND FREE ENERGY PREDICTED BY IDOCK:   -2.41 KCAL/MOL
REMARK 924 INTRA-LIGAND FREE ENERGY PREDICTED BY IDOCK:   28.07 KCAL/MOL
REMARK 927      BINDING AFFINITY PREDICTED BY RF-SCORE:    0.00 PKD
ROOT
HETATM    1  C   UNL     1     -10.957  12.958  67.769  1.00  0.00    -0.269 C  
HETATM    2  C   UNL     1      -9.976  13.977  67.288  1.00  0.00    -0.242 C  
HETATM    3  C   UNL     1      -8.916  13.305  66.310  1.00  0.00     0.127 C  
HETATM    4  C   UNL     1     -10.778   5.268  69.872  1.00  0.00    -0.196 A  
HETATM    5  C   UNL     1      -9.581  13.758  65.032  1.00  0.00     0.329 C  
HETATM    6  C   UNL     1     -10.498   4.649  71.112  1.00  0.00     0.005 A  
HETATM    7  C   UNL     1     -10.011   5.377  72.193  1.00  0.00    -0.226 A  
HETATM    8  C   UNL     1     -10.929  12.836  65.029  1.00  0.00    -0.319 C  
HETATM    9  C   UNL     1     -11.358  12.049  66.572  1.00  0.00    -0.413 C  
HETATM   10  C   UNL     1      -9.779   6.741  72.070  1.00  0.00    -0.159 A  
HETATM   11  C   UNL     1     -10.061   7.369  70.844  1.00  0.00    -0.188 A  
HETATM   12  H   UNL     1     -11.127   7.295  67.789  1.00  0.00     0.000 HD 
HETATM   13  C   UNL     1     -10.566   6.653  69.764  1.00  0.00    -0.228 A  
HETATM   14  C   UNL     1     -11.295  10.507  67.110  1.00  0.00     0.024 C  
HETATM   15  N   UNL     1     -10.762   7.546  68.707  1.00  0.00    -0.147 NA 
HETATM   16  C   UNL     1     -10.389   8.813  69.088  1.00  0.00    -0.217 A  
HETATM   17  C   UNL     1      -9.896   8.681  70.394  1.00  0.00    -0.207 A  
HETATM   18  C   UNL     1      -9.265   9.789  71.154  1.00  0.00     0.623 C  
HETATM   19  C   UNL     1     -10.277  10.129  68.283  1.00  0.00    -0.166 C  
HETATM   20  C   UNL     1      -8.970  10.908  70.186  1.00  0.00     1.452 C  
HETATM   21  C   UNL     1     -10.172  12.486  68.971  1.00  0.00     0.121 C  
HETATM   22  N   UNL     1     -10.198  11.130  69.357  1.00  0.00    -0.086 NA 
ENDROOT
BRANCH   3  23
HETATM   23  O   UNL     1      -8.936  11.791  66.034  1.00  0.00    -0.191 OA 
BRANCH  23  24
HETATM   24  C   UNL     1      -9.720  10.693  66.232  1.00  0.00    -0.199 C  
HETATM   25  O   UNL     1     -10.815  10.492  65.748  1.00  0.00    -0.050 OA 
BRANCH  24  26
HETATM   26  C   UNL     1      -8.929   9.697  67.121  1.00  0.00    -0.148 C  
HETATM   27  C   UNL     1      -7.765   9.811  67.823  1.00  0.00    -0.091 C  
BRANCH  27  28
HETATM   28  C   UNL     1      -7.149   8.770  68.766  1.00  0.00    -0.063 A  
HETATM   29  C   UNL     1      -6.375   9.140  69.872  1.00  0.00    -0.042 A  
HETATM   30  C   UNL     1      -7.282   7.370  68.566  1.00  0.00    -0.087 A  
HETATM   31  C   UNL     1      -6.690   6.400  69.440  1.00  0.00    -0.052 A  
HETATM   32  C   UNL     1      -5.842   8.203  70.789  1.00  0.00    -0.033 A  
HETATM   33  C   UNL     1      -5.975   6.819  70.577  1.00  0.00    -0.024 A  
BRANCH  32  34
HETATM   34  O   UNL     1      -5.144   8.603  71.910  1.00  0.00    -0.034 OA 
HETATM   35  C   UNL     1      -5.880   9.457  72.782  1.00  0.00     0.153 C  
ENDBRANCH  32  34
BRANCH  33  36
HETATM   36  O   UNL     1      -5.320   6.026  71.494  1.00  0.00    -0.020 OA 
HETATM   37  C   UNL     1      -5.988   5.585  72.669  1.00  0.00    -0.031 C  
ENDBRANCH  33  36
BRANCH  31  38
HETATM   38  O   UNL     1      -6.736   5.045  69.238  1.00  0.00    -0.048 OA 
HETATM   39  C   UNL     1      -7.421   4.510  68.123  1.00  0.00    -0.065 C  
ENDBRANCH  31  38
ENDBRANCH  27  28
ENDBRANCH  24  26
ENDBRANCH  23  24
ENDBRANCH   3  23
BRANCH   5  40
HETATM   40  O   UNL     1      -9.781  15.186  65.054  1.00  0.00    -0.163 OA 
HETATM   41  C   UNL     1     -11.074  15.691  64.794  1.00  0.00    -0.412 C  
ENDBRANCH   5  40
BRANCH   8  42
HETATM   42  C   UNL     1     -10.827  12.047  63.715  1.00  0.00    -0.420 C  
HETATM   43  O   UNL     1     -11.738  11.454  63.184  1.00  0.00    -0.122 OA 
BRANCH  42  44
HETATM   44  O   UNL     1      -9.549  12.135  63.207  1.00  0.00    -0.327 OA 
HETATM   45  C   UNL     1      -8.732  10.980  62.977  1.00  0.00    -0.139 C  
ENDBRANCH  42  44
ENDBRANCH   8  42
BRANCH   6  46
HETATM   46  O   UNL     1     -10.666   3.317  71.391  1.00  0.00     0.726 OA 
HETATM   47  C   UNL     1     -10.371   2.899  72.706  1.00  0.00    -0.151 C  
ENDBRANCH   6  46
TORSDOF 11
ENDMDL
MODEL      111
REMARK 921   NORMALIZED FREE ENERGY PREDICTED BY IDOCK:   18.57 KCAL/MOL
REMARK 922        TOTAL FREE ENERGY PREDICTED BY IDOCK:   28.47 KCAL/MOL
REMARK 923 INTER-LIGAND FREE ENERGY PREDICTED BY IDOCK:    4.70 KCAL/MOL
REMARK 924 INTRA-LIGAND FREE ENERGY PREDICTED BY IDOCK:   23.78 KCAL/MOL
REMARK 927      BINDING AFFINITY PREDICTED BY RF-SCORE:    0.00 PKD
ROOT
HETATM    1  C   UNL     1     -11.581  11.013  67.472  1.00  0.00    -0.166 C  
HETATM    2  C   UNL     1     -11.836   9.778  66.670  1.00  0.00     3.606 C  
HETATM    3  C   UNL     1     -10.650   9.536  65.637  1.00  0.00     0.746 C  
HETATM    4  C   UNL     1      -8.445  18.230  66.178  1.00  0.00    -0.143 A  
HETATM    5  C   UNL     1      -9.932   8.502  66.471  1.00  0.00    -0.280 C  
HETATM    6  C   UNL     1      -9.031  19.428  65.708  1.00  0.00     0.209 A  
HETATM    7  C   UNL     1     -10.329  19.455  65.209  1.00  0.00     0.477 A  
HETATM    8  C   UNL     1      -9.359   9.420  67.694  1.00  0.00    -0.146 C  
HETATM    9  C   UNL     1     -10.079  11.043  67.875  1.00  0.00    -0.199 C  
HETATM   10  C   UNL     1     -11.081  18.288  65.153  1.00  0.00     1.072 A  
HETATM   11  C   UNL     1     -10.512  17.091  65.625  1.00  0.00    -0.229 A  
HETATM   12  H   UNL     1      -8.076  15.436  66.965  1.00  0.00     0.000 HD 
HETATM   13  C   UNL     1      -9.222  17.059  66.143  1.00  0.00    -0.210 A  
HETATM   14  C   UNL     1      -9.541  12.557  67.577  1.00  0.00    -0.187 C  
HETATM   15  N   UNL     1      -8.950  15.749  66.545  1.00  0.00    -0.277 NA 
HETATM   16  C   UNL     1     -10.035  14.945  66.290  1.00  0.00    -0.282 A  
HETATM   17  C   UNL     1     -10.975  15.774  65.661  1.00  0.00    -0.248 A  
HETATM   18  C   UNL     1     -12.258  15.287  65.096  1.00  0.00     0.218 C  
HETATM   19  C   UNL     1     -10.223  13.415  66.413  1.00  0.00    -0.293 C  
HETATM   20  C   UNL     1     -12.195  13.780  65.031  1.00  0.00    -0.424 C  
HETATM   21  C   UNL     1     -12.227  11.996  66.523  1.00  0.00     0.520 C  
HETATM   22  N   UNL     1     -11.686  13.287  66.351  1.00  0.00    -0.355 NA 
ENDROOT
BRANCH   3  23
HETATM   23  O   UNL     1      -9.492  10.541  65.503  1.00  0.00    -0.189 OA 
BRANCH  23  24
HETATM   24  C   UNL     1      -8.206  10.729  65.915  1.00  0.00    -0.155 C  
HETATM   25  O   UNL     1      -7.247  10.045  65.621  1.00  0.00    -0.106 OA 
BRANCH  24  26
HETATM   26  C   UNL     1      -8.163  12.029  66.762  1.00  0.00    -0.110 C  
HETATM   27  C   UNL     1      -7.143  12.703  67.367  1.00  0.00    -0.138 C  
BRANCH  27  28
HETATM   28  C   UNL     1      -7.227  14.057  68.084  1.00  0.00    -0.129 A  
HETATM   29  C   UNL     1      -8.409  14.500  68.689  1.00  0.00    -0.164 A  
HETATM   30  C   UNL     1      -6.139  14.968  68.149  1.00  0.00    -0.144 A  
HETATM   31  C   UNL     1      -6.228  16.240  68.805  1.00  0.00    -0.122 A  
HETATM   32  C   UNL     1      -8.499  15.718  69.404  1.00  0.00    -0.218 A  
HETATM   33  C   UNL     1      -7.417  16.614  69.456  1.00  0.00     0.090 A  
BRANCH  32  34
HETATM   34  O   UNL     1      -9.659  16.094  70.052  1.00  0.00     0.075 OA 
HETATM   35  C   UNL     1     -10.034  15.231  71.123  1.00  0.00     1.366 C  
ENDBRANCH  32  34
BRANCH  33  36
HETATM   36  O   UNL     1      -7.681  17.805  70.100  1.00  0.00     1.415 OA 
HETATM   37  C   UNL     1      -8.645  18.707  69.573  1.00  0.00     0.572 C  
ENDBRANCH  33  36
BRANCH  31  38
HETATM   38  O   UNL     1      -5.224  17.172  68.824  1.00  0.00    -0.137 OA 
HETATM   39  C   UNL     1      -5.223  18.242  67.900  1.00  0.00    -0.157 C  
ENDBRANCH  31  38
ENDBRANCH  27  28
ENDBRANCH  24  26
ENDBRANCH  23  24
ENDBRANCH   3  23
BRANCH   5  40
HETATM   40  O   UNL     1     -10.838   7.441  66.837  1.00  0.00    -0.357 OA 
HETATM   41  C   UNL     1     -10.509   6.116  66.475  1.00  0.00    -0.128 C  
ENDBRANCH   5  40
BRANCH   8  42
HETATM   42  C   UNL     1      -7.840   9.208  67.627  1.00  0.00    -0.096 C  
HETATM   43  O   UNL     1      -7.034   9.672  68.402  1.00  0.00    -0.064 OA 
BRANCH  42  44
HETATM   44  O   UNL     1      -7.522   8.385  66.568  1.00  0.00    -0.080 OA 
HETATM   45  C   UNL     1      -6.536   7.348  66.669  1.00  0.00    -0.052 C  
ENDBRANCH  42  44
ENDBRANCH   8  42
BRANCH   6  46
HETATM   46  O   UNL     1      -8.421  20.657  65.689  1.00  0.00     0.285 OA 
HETATM   47  C   UNL     1      -7.741  21.049  66.861  1.00  0.00     0.033 C  
ENDBRANCH   6  46
TORSDOF 11
ENDMDL
MODEL      112
REMARK 921   NORMALIZED FREE ENERGY PREDICTED BY IDOCK:   19.32 KCAL/MOL
REMARK 922        TOTAL FREE ENERGY PREDICTED BY IDOCK:   29.70 KCAL/MOL
REMARK 923 INTER-LIGAND FREE ENERGY PREDICTED BY IDOCK:   25.45 KCAL/MOL
REMARK 924 INTRA-LIGAND FREE ENERGY PREDICTED BY IDOCK:    4.25 KCAL/MOL
REMARK 927      BINDING AFFINITY PREDICTED BY RF-SCORE:    0.00 PKD
ROOT
HETATM    1  C   UNL     1      -6.737  15.926  66.898  1.00  0.00     0.048 C  
HETATM    2  C   UNL     1      -7.831  16.769  66.327  1.00  0.00    -0.334 C  
HETATM    3  C   UNL     1      -9.009  16.934  67.383  1.00  0.00    -0.209 C  
HETATM    4  C   UNL     1      -6.210   9.524  71.624  1.00  0.00     0.078 A  
HETATM    5  C   UNL     1      -8.592  18.305  67.862  1.00  0.00    -0.258 C  
HETATM    6  C   UNL     1      -6.247   8.142  71.326  1.00  0.00    -0.035 A  
HETATM    7  C   UNL     1      -6.576   7.682  70.055  1.00  0.00    -0.038 A  
HETATM    8  C   UNL     1      -7.223  17.953  68.681  1.00  0.00    -0.272 C  
HETATM    9  C   UNL     1      -6.505  16.348  68.378  1.00  0.00    -0.135 C  
HETATM   10  C   UNL     1      -6.888   8.583  69.044  1.00  0.00    -0.056 A  
HETATM   11  C   UNL     1      -6.846   9.960  69.326  1.00  0.00    -0.057 A  
HETATM   12  H   UNL     1      -6.310  12.435  71.341  1.00  0.00     0.000 HD 
HETATM   13  C   UNL     1      -6.500  10.429  70.589  1.00  0.00    -0.032 A  
HETATM   14  C   UNL     1      -6.406  14.971  69.252  1.00  0.00    -0.116 C  
HETATM   15  N   UNL     1      -6.526  11.826  70.553  1.00  0.00    -0.061 NA 
HETATM   16  C   UNL     1      -6.886  12.256  69.298  1.00  0.00    -0.039 A  
HETATM   17  C   UNL     1      -7.144  11.091  68.563  1.00  0.00    -0.078 A  
HETATM   18  C   UNL     1      -7.687  11.090  67.181  1.00  0.00    -0.131 C  
HETATM   19  C   UNL     1      -7.192  13.671  68.754  1.00  0.00    -0.100 C  
HETATM   20  C   UNL     1      -8.192  12.479  66.879  1.00  0.00    -0.068 C  
HETATM   21  C   UNL     1      -7.286  14.583  66.473  1.00  0.00     1.924 C  
HETATM   22  N   UNL     1      -7.133  13.452  67.301  1.00  0.00    -0.078 NA 
ENDROOT
BRANCH   3  23
HETATM   23  O   UNL     1      -8.968  16.214  68.742  1.00  0.00    -0.211 OA 
BRANCH  23  24
HETATM   24  C   UNL     1      -9.498  16.296  69.996  1.00  0.00     0.642 C  
HETATM   25  O   UNL     1      -9.591  17.299  70.675  1.00  0.00     2.483 OA 
BRANCH  24  26
HETATM   26  C   UNL     1     -10.045  14.894  70.375  1.00  0.00     0.366 C  
HETATM   27  C   UNL     1     -10.787  13.977  69.690  1.00  0.00    -0.013 C  
BRANCH  27  28
HETATM   28  C   UNL     1     -11.163  12.563  70.151  1.00  0.00     0.372 A  
HETATM   29  C   UNL     1     -12.403  11.992  69.846  1.00  0.00    -0.143 A  
HETATM   30  C   UNL     1     -10.307  11.755  70.946  1.00  0.00     4.674 A  
HETATM   31  C   UNL     1     -10.669  10.441  71.389  1.00  0.00     1.353 A  
HETATM   32  C   UNL     1     -12.754  10.670  70.210  1.00  0.00    -0.209 A  
HETATM   33  C   UNL     1     -11.901   9.882  71.003  1.00  0.00    -0.376 A  
BRANCH  32  34
HETATM   34  O   UNL     1     -13.957  10.109  69.833  1.00  0.00     0.765 OA 
HETATM   35  C   UNL     1     -14.161  10.058  68.423  1.00  0.00    11.973 C  
ENDBRANCH  32  34
BRANCH  33  36
HETATM   36  O   UNL     1     -12.415   8.655  71.366  1.00  0.00    -0.309 OA 
HETATM   37  C   UNL     1     -11.638   7.475  71.205  1.00  0.00    -0.282 C  
ENDBRANCH  33  36
BRANCH  31  38
HETATM   38  O   UNL     1      -9.901   9.664  72.216  1.00  0.00     0.771 OA 
HETATM   39  C   UNL     1      -9.470   8.383  71.801  1.00  0.00    -0.233 C  
ENDBRANCH  31  38
ENDBRANCH  27  28
ENDBRANCH  24  26
ENDBRANCH  23  24
ENDBRANCH   3  23
BRANCH   5  40
HETATM   40  O   UNL     1      -8.456  19.203  66.741  1.00  0.00    -0.280 OA 
HETATM   41  C   UNL     1      -7.623  20.335  66.880  1.00  0.00    -0.299 C  
ENDBRANCH   5  40
BRANCH   8  42
HETATM   42  C   UNL     1      -7.510  18.460  70.102  1.00  0.00     1.468 C  
HETATM   43  O   UNL     1      -8.316  19.315  70.390  1.00  0.00     1.313 OA 
BRANCH  42  44
HETATM   44  O   UNL     1      -6.736  17.776  71.015  1.00  0.00     1.981 OA 
HETATM   45  C   UNL     1      -5.303  17.760  70.949  1.00  0.00    -0.206 C  
ENDBRANCH  42  44
ENDBRANCH   8  42
BRANCH   6  46
HETATM   46  O   UNL     1      -5.974   7.130  72.211  1.00  0.00    -0.041 OA 
HETATM   47  C   UNL     1      -6.308   7.358  73.563  1.00  0.00    -0.064 C  
ENDBRANCH   6  46
TORSDOF 11
ENDMDL
MODEL      113
REMARK 921   NORMALIZED FREE ENERGY PREDICTED BY IDOCK:   19.51 KCAL/MOL
REMARK 922        TOTAL FREE ENERGY PREDICTED BY IDOCK:   30.01 KCAL/MOL
REMARK 923 INTER-LIGAND FREE ENERGY PREDICTED BY IDOCK:   -7.90 KCAL/MOL
REMARK 924 INTRA-LIGAND FREE ENERGY PREDICTED BY IDOCK:   37.91 KCAL/MOL
REMARK 927      BINDING AFFINITY PREDICTED BY RF-SCORE:    0.00 PKD
ROOT
HETATM    1  C   UNL     1      -9.388   8.702  66.048  1.00  0.00    -0.284 C  
HETATM    2  C   UNL     1      -8.486   7.787  65.286  1.00  0.00    -0.099 C  
HETATM    3  C   UNL     1      -6.984   8.308  65.354  1.00  0.00    -0.063 C  
HETATM    4  C   UNL     1      -9.966  16.555  67.310  1.00  0.00    -0.264 A  
HETATM    5  C   UNL     1      -6.546   7.363  66.448  1.00  0.00    -0.053 C  
HETATM    6  C   UNL     1     -10.616  17.571  66.572  1.00  0.00    -0.191 A  
HETATM    7  C   UNL     1     -11.159  17.321  65.315  1.00  0.00     0.243 A  
HETATM    8  C   UNL     1      -7.351   7.968  67.733  1.00  0.00    -0.093 C  
HETATM    9  C   UNL     1      -8.682   9.102  67.377  1.00  0.00    -0.118 C  
HETATM   10  C   UNL     1     -11.062  16.055  64.751  1.00  0.00    -0.378 A  
HETATM   11  C   UNL     1     -10.423  15.035  65.479  1.00  0.00    -0.385 A  
HETATM   12  H   UNL     1      -8.899  13.953  68.121  1.00  0.00     0.000 HD 
HETATM   13  C   UNL     1      -9.895  15.271  66.743  1.00  0.00    -0.236 A  
HETATM   14  C   UNL     1      -8.865  10.718  67.539  1.00  0.00    -0.128 C  
HETATM   15  N   UNL     1      -9.351  14.074  67.215  1.00  0.00    -0.221 NA 
HETATM   16  C   UNL     1      -9.517  13.082  66.278  1.00  0.00    -0.192 A  
HETATM   17  C   UNL     1     -10.126  13.704  65.179  1.00  0.00    -0.298 A  
HETATM   18  C   UNL     1     -10.378  13.026  63.883  1.00  0.00    -0.153 C  
HETATM   19  C   UNL     1      -8.997  11.626  66.231  1.00  0.00    -0.193 C  
HETATM   20  C   UNL     1      -9.594  11.737  63.871  1.00  0.00    -0.122 C  
HETATM   21  C   UNL     1      -9.686   9.663  64.921  1.00  0.00    -0.104 C  
HETATM   22  N   UNL     1      -9.838  11.042  65.176  1.00  0.00    -0.249 NA 
ENDROOT
BRANCH   3  23
HETATM   23  O   UNL     1      -6.630   9.628  66.060  1.00  0.00    -0.075 OA 
BRANCH  23  24
HETATM   24  C   UNL     1      -6.659  10.204  67.296  1.00  0.00    -0.069 C  
HETATM   25  O   UNL     1      -5.960  11.118  67.682  1.00  0.00    -0.046 OA 
BRANCH  24  26
HETATM   26  C   UNL     1      -7.807   9.541  68.103  1.00  0.00    -0.083 C  
HETATM   27  C   UNL     1      -8.437   9.884  69.264  1.00  0.00    -0.158 C  
BRANCH  27  28
HETATM   28  C   UNL     1      -9.651   9.190  69.895  1.00  0.00    -0.206 A  
HETATM   29  C   UNL     1     -10.574   9.888  70.681  1.00  0.00    -0.341 A  
HETATM   30  C   UNL     1      -9.902   7.798  69.766  1.00  0.00    -0.178 A  
HETATM   31  C   UNL     1     -11.028   7.151  70.372  1.00  0.00    -0.265 A  
HETATM   32  C   UNL     1     -11.732   9.286  71.229  1.00  0.00    -0.346 A  
HETATM   33  C   UNL     1     -11.966   7.906  71.099  1.00  0.00    -0.285 A  
BRANCH  32  34
HETATM   34  O   UNL     1     -12.662  10.018  71.940  1.00  0.00    -0.395 OA 
HETATM   35  C   UNL     1     -12.974  11.283  71.362  1.00  0.00    -0.379 C  
ENDBRANCH  32  34
BRANCH  33  36
HETATM   36  O   UNL     1     -13.077   7.440  71.770  1.00  0.00    -0.341 OA 
HETATM   37  C   UNL     1     -13.019   6.218  72.493  1.00  0.00     0.464 C  
ENDBRANCH  33  36
BRANCH  31  38
HETATM   38  O   UNL     1     -11.261   5.801  70.330  1.00  0.00    -0.304 OA 
HETATM   39  C   UNL     1     -10.213   4.903  70.026  1.00  0.00    -0.243 C  
ENDBRANCH  31  38
ENDBRANCH  27  28
ENDBRANCH  24  26
ENDBRANCH  23  24
ENDBRANCH   3  23
BRANCH   5  40
HETATM   40  O   UNL     1      -6.853   6.002  66.082  1.00  0.00    -0.058 OA 
HETATM   41  C   UNL     1      -6.637   4.981  67.034  1.00  0.00    -0.050 C  
ENDBRANCH   5  40
BRANCH   8  42
HETATM   42  C   UNL     1      -6.236   8.313  68.731  1.00  0.00    -0.045 C  
HETATM   43  O   UNL     1      -5.167   8.801  68.443  1.00  0.00    -0.033 OA 
BRANCH  42  44
HETATM   44  O   UNL     1      -6.638   8.013  70.015  1.00  0.00    -0.039 OA 
HETATM   45  C   UNL     1      -5.888   8.415  71.169  1.00  0.00    -0.034 C  
ENDBRANCH  42  44
ENDBRANCH   8  42
BRANCH   6  46
HETATM   46  O   UNL     1     -10.788  18.867  66.985  1.00  0.00    -0.427 OA 
HETATM   47  C   UNL     1      -9.673  19.724  66.875  1.00  0.00    -0.385 C  
ENDBRANCH   6  46
TORSDOF 11
ENDMDL
MODEL      114
REMARK 921   NORMALIZED FREE ENERGY PREDICTED BY IDOCK:   22.04 KCAL/MOL
REMARK 922        TOTAL FREE ENERGY PREDICTED BY IDOCK:   34.18 KCAL/MOL
REMARK 923 INTER-LIGAND FREE ENERGY PREDICTED BY IDOCK:   25.84 KCAL/MOL
REMARK 924 INTRA-LIGAND FREE ENERGY PREDICTED BY IDOCK:    8.34 KCAL/MOL
REMARK 927      BINDING AFFINITY PREDICTED BY RF-SCORE:    0.00 PKD
ROOT
HETATM    1  C   UNL     1      -9.388  12.741  67.433  1.00  0.00    -0.193 C  
HETATM    2  C   UNL     1      -8.878  12.845  66.032  1.00  0.00     0.394 C  
HETATM    3  C   UNL     1      -9.418  11.631  65.156  1.00  0.00    -0.133 C  
HETATM    4  C   UNL     1     -10.854   6.899  72.658  1.00  0.00    -0.290 A  
HETATM    5  C   UNL     1     -10.538  12.403  64.502  1.00  0.00    -0.322 C  
HETATM    6  C   UNL     1     -10.014   6.258  73.598  1.00  0.00    -0.207 A  
HETATM    7  C   UNL     1      -8.641   6.484  73.616  1.00  0.00    -0.133 A  
HETATM    8  C   UNL     1     -11.558  12.614  65.760  1.00  0.00    -0.431 C  
HETATM    9  C   UNL     1     -10.886  12.321  67.387  1.00  0.00    -0.277 C  
HETATM   10  C   UNL     1      -8.061   7.346  72.693  1.00  0.00    -0.122 A  
HETATM   11  C   UNL     1      -8.889   7.995  71.759  1.00  0.00    -0.184 A  
HETATM   12  H   UNL     1     -11.800   8.630  70.496  1.00  0.00     0.000 HD 
HETATM   13  C   UNL     1     -10.264   7.790  71.746  1.00  0.00    -0.191 A  
HETATM   14  C   UNL     1     -11.076  11.133  68.492  1.00  0.00    -0.298 C  
HETATM   15  N   UNL     1     -10.809   8.579  70.730  1.00  0.00    -0.225 NA 
HETATM   16  C   UNL     1      -9.811   9.278  70.093  1.00  0.00    -0.215 A  
HETATM   17  C   UNL     1      -8.617   8.860  70.697  1.00  0.00    -0.224 A  
HETATM   18  C   UNL     1      -7.269   9.271  70.232  1.00  0.00    -0.087 C  
HETATM   19  C   UNL     1      -9.840  10.181  68.837  1.00  0.00    -0.189 C  
HETATM   20  C   UNL     1      -7.420   9.904  68.870  1.00  0.00    -0.081 C  
HETATM   21  C   UNL     1      -8.278  11.873  67.979  1.00  0.00    -0.157 C  
HETATM   22  N   UNL     1      -8.552  10.882  68.943  1.00  0.00    -0.158 NA 
ENDROOT
BRANCH   3  23
HETATM   23  O   UNL     1     -10.269  10.513  65.783  1.00  0.00    -0.255 OA 
BRANCH  23  24
HETATM   24  C   UNL     1     -11.014   9.428  65.426  1.00  0.00     2.752 C  
HETATM   25  O   UNL     1     -11.630   9.286  64.389  1.00  0.00     7.815 OA 
BRANCH  24  26
HETATM   26  C   UNL     1     -10.870   8.362  66.544  1.00  0.00     0.568 C  
HETATM   27  C   UNL     1     -10.306   7.120  66.568  1.00  0.00    -0.104 C  
BRANCH  27  28
HETATM   28  C   UNL     1     -10.128   6.210  67.790  1.00  0.00    -0.177 A  
HETATM   29  C   UNL     1     -11.024   6.232  68.865  1.00  0.00    -0.435 A  
HETATM   30  C   UNL     1      -9.031   5.319  67.939  1.00  0.00    -0.112 A  
HETATM   31  C   UNL     1      -8.859   4.483  69.091  1.00  0.00    -0.091 A  
HETATM   32  C   UNL     1     -10.914   5.365  69.979  1.00  0.00     0.012 A  
HETATM   33  C   UNL     1      -9.821   4.492  70.117  1.00  0.00    -0.226 A  
BRANCH  32  34
HETATM   34  O   UNL     1     -11.854   5.361  70.989  1.00  0.00     0.695 OA 
HETATM   35  C   UNL     1     -11.765   4.240  71.865  1.00  0.00     2.092 C  
ENDBRANCH  32  34
BRANCH  33  36
HETATM   36  O   UNL     1      -9.792   3.782  71.299  1.00  0.00    -0.178 OA 
HETATM   37  C   UNL     1      -9.005   2.603  71.408  1.00  0.00    -0.088 C  
ENDBRANCH  33  36
BRANCH  31  38
HETATM   38  O   UNL     1      -7.778   3.668  69.301  1.00  0.00    -0.052 OA 
HETATM   39  C   UNL     1      -7.066   3.126  68.207  1.00  0.00    -0.050 C  
ENDBRANCH  31  38
ENDBRANCH  27  28
ENDBRANCH  24  26
ENDBRANCH  23  24
ENDBRANCH   3  23
BRANCH   5  40
HETATM   40  O   UNL     1     -10.023  13.602  63.887  1.00  0.00     0.219 OA 
HETATM   41  C   UNL     1      -9.586  13.540  62.546  1.00  0.00     9.425 C  
ENDBRANCH   5  40
BRANCH   8  42
HETATM   42  C   UNL     1     -12.860  11.949  65.288  1.00  0.00     1.588 C  
HETATM   43  O   UNL     1     -13.123  10.773  65.394  1.00  0.00     5.356 OA 
BRANCH  42  44
HETATM   44  O   UNL     1     -13.706  12.894  64.747  1.00  0.00     0.134 OA 
HETATM   45  C   UNL     1     -13.483  14.302  64.898  1.00  0.00     1.132 C  
ENDBRANCH  42  44
ENDBRANCH   8  42
BRANCH   6  46
HETATM   46  O   UNL     1     -10.428   5.378  74.565  1.00  0.00    -0.268 OA 
HETATM   47  C   UNL     1     -10.188   4.008  74.325  1.00  0.00    -0.192 C  
ENDBRANCH   6  46
TORSDOF 11
ENDMDL
MODEL      115
REMARK 921   NORMALIZED FREE ENERGY PREDICTED BY IDOCK:   22.71 KCAL/MOL
REMARK 922        TOTAL FREE ENERGY PREDICTED BY IDOCK:   35.28 KCAL/MOL
REMARK 923 INTER-LIGAND FREE ENERGY PREDICTED BY IDOCK:   33.36 KCAL/MOL
REMARK 924 INTRA-LIGAND FREE ENERGY PREDICTED BY IDOCK:    1.92 KCAL/MOL
REMARK 927      BINDING AFFINITY PREDICTED BY RF-SCORE:    0.00 PKD
ROOT
HETATM    1  C   UNL     1     -10.584  11.059  72.073  1.00  0.00     6.987 C  
HETATM    2  C   UNL     1     -11.441   9.844  71.927  1.00  0.00     0.230 C  
HETATM    3  C   UNL     1     -11.117   9.099  70.560  1.00  0.00    -0.260 C  
HETATM    4  C   UNL     1      -7.671  16.716  67.266  1.00  0.00    -0.198 A  
HETATM    5  C   UNL     1     -10.224   8.045  71.169  1.00  0.00    -0.193 C  
HETATM    6  C   UNL     1      -8.223  17.943  66.831  1.00  0.00    -0.237 A  
HETATM    7  C   UNL     1      -9.550  18.274  67.090  1.00  0.00    -0.281 A  
HETATM    8  C   UNL     1      -8.918   8.935  71.584  1.00  0.00    -0.243 C  
HETATM    9  C   UNL     1      -9.139  10.706  71.615  1.00  0.00     6.751 C  
HETATM   10  C   UNL     1     -10.369  17.389  67.780  1.00  0.00    -0.358 A  
HETATM   11  C   UNL     1      -9.829  16.169  68.224  1.00  0.00    -0.224 A  
HETATM   12  H   UNL     1      -7.360  14.101  68.543  1.00  0.00     0.000 HD 
HETATM   13  C   UNL     1      -8.499  15.839  67.987  1.00  0.00    -0.161 A  
HETATM   14  C   UNL     1      -8.640  11.924  70.648  1.00  0.00     6.473 C  
HETATM   15  N   UNL     1      -8.255  14.588  68.561  1.00  0.00    -0.149 NA 
HETATM   16  C   UNL     1      -9.400  14.113  69.154  1.00  0.00     0.197 A  
HETATM   17  C   UNL     1     -10.387  15.073  68.884  1.00  0.00    -0.244 A  
HETATM   18  C   UNL     1     -11.819  14.904  69.235  1.00  0.00    -0.350 C  
HETATM   19  C   UNL     1      -9.721  12.748  69.807  1.00  0.00     2.070 C  
HETATM   20  C   UNL     1     -12.042  13.457  69.600  1.00  0.00    -0.289 C  
HETATM   21  C   UNL     1     -11.493  12.025  71.349  1.00  0.00     2.466 C  
HETATM   22  N   UNL     1     -10.954  13.052  70.547  1.00  0.00     1.348 NA 
ENDROOT
BRANCH   3  23
HETATM   23  O   UNL     1     -10.105   9.680  69.557  1.00  0.00    -0.185 OA 
BRANCH  23  24
HETATM   24  C   UNL     1      -9.580   9.430  68.323  1.00  0.00    -0.142 C  
HETATM   25  O   UNL     1      -9.007   8.418  67.975  1.00  0.00    -0.137 OA 
BRANCH  24  26
HETATM   26  C   UNL     1      -9.919  10.637  67.408  1.00  0.00    -0.213 C  
HETATM   27  C   UNL     1     -10.817  10.803  66.395  1.00  0.00    -0.172 C  
BRANCH  27  28
HETATM   28  C   UNL     1     -11.133  12.103  65.644  1.00  0.00    -0.360 A  
HETATM   29  C   UNL     1     -10.451  13.295  65.912  1.00  0.00    -0.289 A  
HETATM   30  C   UNL     1     -12.155  12.202  64.663  1.00  0.00    -0.389 A  
HETATM   31  C   UNL     1     -12.458  13.423  63.976  1.00  0.00    -0.241 A  
HETATM   32  C   UNL     1     -10.683  14.494  65.196  1.00  0.00    -0.406 A  
HETATM   33  C   UNL     1     -11.702  14.581  64.232  1.00  0.00    -0.295 A  
BRANCH  32  34
HETATM   34  O   UNL     1      -9.944  15.635  65.435  1.00  0.00    -0.331 OA 
HETATM   35  C   UNL     1      -8.629  15.604  64.886  1.00  0.00     4.530 C  
ENDBRANCH  32  34
BRANCH  33  36
HETATM   36  O   UNL     1     -11.882  15.836  63.689  1.00  0.00    -0.403 OA 
HETATM   37  C   UNL     1     -12.626  16.822  64.393  1.00  0.00     3.605 C  
ENDBRANCH  33  36
BRANCH  31  38
HETATM   38  O   UNL     1     -13.484  13.572  63.079  1.00  0.00     1.419 OA 
HETATM   39  C   UNL     1     -14.016  12.450  62.405  1.00  0.00     5.385 C  
ENDBRANCH  31  38
ENDBRANCH  27  28
ENDBRANCH  24  26
ENDBRANCH  23  24
ENDBRANCH   3  23
BRANCH   5  40
HETATM   40  O   UNL     1     -10.909   7.374  72.246  1.00  0.00    -0.224 OA 
HETATM   41  C   UNL     1     -10.409   7.515  73.559  1.00  0.00    -0.317 C  
ENDBRANCH   5  40
BRANCH   8  42
HETATM   42  C   UNL     1      -7.767   8.274  70.812  1.00  0.00    -0.079 C  
HETATM   43  O   UNL     1      -6.867   8.863  70.259  1.00  0.00    -0.039 OA 
BRANCH  42  44
HETATM   44  O   UNL     1      -7.889   6.901  70.863  1.00  0.00    -0.095 OA 
HETATM   45  C   UNL     1      -7.163   6.032  69.983  1.00  0.00    -0.073 C  
ENDBRANCH  42  44
ENDBRANCH   8  42
BRANCH   6  46
HETATM   46  O   UNL     1      -7.551  18.915  66.136  1.00  0.00    -0.263 OA 
HETATM   47  C   UNL     1      -6.262  18.587  65.665  1.00  0.00    -0.259 C  
ENDBRANCH   6  46
TORSDOF 11
ENDMDL
MODEL      116
REMARK 921   NORMALIZED FREE ENERGY PREDICTED BY IDOCK:   24.08 KCAL/MOL
REMARK 922        TOTAL FREE ENERGY PREDICTED BY IDOCK:   37.52 KCAL/MOL
REMARK 923 INTER-LIGAND FREE ENERGY PREDICTED BY IDOCK:   25.98 KCAL/MOL
REMARK 924 INTRA-LIGAND FREE ENERGY PREDICTED BY IDOCK:   11.54 KCAL/MOL
REMARK 927      BINDING AFFINITY PREDICTED BY RF-SCORE:    0.00 PKD
ROOT
HETATM    1  C   UNL     1     -10.025   7.038  68.778  1.00  0.00    -0.160 C  
HETATM    2  C   UNL     1     -10.857   6.209  67.854  1.00  0.00    -0.406 C  
HETATM    3  C   UNL     1     -10.811   6.808  66.381  1.00  0.00     0.403 C  
HETATM    4  C   UNL     1      -8.387  14.783  69.736  1.00  0.00     0.258 A  
HETATM    5  C   UNL     1      -9.775   5.842  65.856  1.00  0.00     0.057 C  
HETATM    6  C   UNL     1      -9.057  15.793  70.465  1.00  0.00     1.541 A  
HETATM    7  C   UNL     1     -10.307  15.569  71.034  1.00  0.00     0.462 A  
HETATM    8  C   UNL     1      -8.439   6.344  66.650  1.00  0.00    -0.115 C  
HETATM    9  C   UNL     1      -8.703   7.417  68.051  1.00  0.00    -0.124 C  
HETATM   10  C   UNL     1     -10.932  14.337  70.888  1.00  0.00     0.719 A  
HETATM   11  C   UNL     1     -10.271  13.322  70.171  1.00  0.00     2.182 A  
HETATM   12  H   UNL     1      -7.730  12.211  68.504  1.00  0.00     0.000 HD 
HETATM   13  C   UNL     1      -9.014  13.531  69.615  1.00  0.00     1.618 A  
HETATM   14  C   UNL     1      -8.460   9.012  68.315  1.00  0.00    -0.129 C  
HETATM   15  N   UNL     1      -8.614  12.346  68.992  1.00  0.00     0.325 NA 
HETATM   16  C   UNL     1      -9.590  11.389  69.135  1.00  0.00     0.121 A  
HETATM   17  C   UNL     1     -10.641  12.024  69.813  1.00  0.00     0.605 A  
HETATM   18  C   UNL     1     -11.958  11.392  70.071  1.00  0.00    -0.442 C  
HETATM   19  C   UNL     1      -9.721   9.968  68.539  1.00  0.00    -0.155 C  
HETATM   20  C   UNL     1     -12.053  10.150  69.219  1.00  0.00     0.280 C  
HETATM   21  C   UNL     1     -11.098   8.030  69.165  1.00  0.00     0.205 C  
HETATM   22  N   UNL     1     -10.775   9.385  69.382  1.00  0.00    -0.226 NA 
ENDROOT
BRANCH   3  23
HETATM   23  O   UNL     1     -10.056   8.113  66.075  1.00  0.00    -0.002 OA 
BRANCH  23  24
HETATM   24  C   UNL     1      -9.212   8.652  65.148  1.00  0.00     0.115 C  
HETATM   25  O   UNL     1      -8.528   8.040  64.354  1.00  0.00    -0.071 OA 
BRANCH  24  26
HETATM   26  C   UNL     1      -9.344  10.196  65.227  1.00  0.00    -0.278 C  
HETATM   27  C   UNL     1     -10.117  11.019  65.992  1.00  0.00    -0.297 C  
BRANCH  27  28
HETATM   28  C   UNL     1     -10.060  12.551  66.049  1.00  0.00    -0.268 A  
HETATM   29  C   UNL     1     -11.134  13.313  66.522  1.00  0.00    -0.313 A  
HETATM   30  C   UNL     1      -8.944  13.302  65.592  1.00  0.00     0.798 A  
HETATM   31  C   UNL     1      -8.902  14.734  65.631  1.00  0.00     1.008 A  
HETATM   32  C   UNL     1     -11.087  14.724  66.638  1.00  0.00    -0.333 A  
HETATM   33  C   UNL     1      -9.979  15.456  66.176  1.00  0.00    -0.307 A  
BRANCH  32  34
HETATM   34  O   UNL     1     -12.136  15.441  67.176  1.00  0.00     0.145 OA 
HETATM   35  C   UNL     1     -11.973  15.768  68.554  1.00  0.00    -0.094 C  
ENDBRANCH  32  34
BRANCH  33  36
HETATM   36  O   UNL     1     -10.115  16.825  66.259  1.00  0.00    -0.297 OA 
HETATM   37  C   UNL     1      -9.777  17.648  65.149  1.00  0.00     1.651 C  
ENDBRANCH  33  36
BRANCH  31  38
HETATM   38  O   UNL     1      -7.875  15.492  65.133  1.00  0.00     3.875 OA 
HETATM   39  C   UNL     1      -6.539  15.226  65.511  1.00  0.00     8.500 C  
ENDBRANCH  31  38
ENDBRANCH  27  28
ENDBRANCH  24  26
ENDBRANCH  23  24
ENDBRANCH   3  23
BRANCH   5  40
HETATM   40  O   UNL     1     -10.193   4.483  66.102  1.00  0.00    -0.247 OA 
HETATM   41  C   UNL     1     -11.090   3.877  65.195  1.00  0.00     0.624 C  
ENDBRANCH   5  40
BRANCH   8  42
HETATM   42  C   UNL     1      -7.461   6.706  65.523  1.00  0.00    -0.079 C  
HETATM   43  O   UNL     1      -6.495   7.424  65.639  1.00  0.00    -0.043 OA 
BRANCH  42  44
HETATM   44  O   UNL     1      -7.825   6.068  64.356  1.00  0.00    -0.101 OA 
HETATM   45  C   UNL     1      -8.118   6.782  63.148  1.00  0.00    -0.023 C  
ENDBRANCH  42  44
ENDBRANCH   8  42
BRANCH   6  46
HETATM   46  O   UNL     1      -8.580  17.059  70.693  1.00  0.00     3.463 OA 
HETATM   47  C   UNL     1      -9.048  18.079  69.838  1.00  0.00     1.538 C  
ENDBRANCH   6  46
TORSDOF 11
ENDMDL
MODEL      117
REMARK 921   NORMALIZED FREE ENERGY PREDICTED BY IDOCK:   24.93 KCAL/MOL
REMARK 922        TOTAL FREE ENERGY PREDICTED BY IDOCK:   38.92 KCAL/MOL
REMARK 923 INTER-LIGAND FREE ENERGY PREDICTED BY IDOCK:   10.64 KCAL/MOL
REMARK 924 INTRA-LIGAND FREE ENERGY PREDICTED BY IDOCK:   28.28 KCAL/MOL
REMARK 927      BINDING AFFINITY PREDICTED BY RF-SCORE:    0.00 PKD
ROOT
HETATM    1  C   UNL     1     -11.681  13.824  67.567  1.00  0.00    -0.410 C  
HETATM    2  C   UNL     1     -11.249  14.991  68.395  1.00  0.00    -0.303 C  
HETATM    3  C   UNL     1      -9.870  15.572  67.854  1.00  0.00    -0.216 C  
HETATM    4  C   UNL     1      -8.145   7.698  63.885  1.00  0.00    -0.041 A  
HETATM    5  C   UNL     1     -10.481  16.714  67.077  1.00  0.00    -0.283 C  
HETATM    6  C   UNL     1      -7.782   6.414  64.354  1.00  0.00    -0.108 A  
HETATM    7  C   UNL     1      -7.862   6.085  65.704  1.00  0.00    -0.103 A  
HETATM    8  C   UNL     1     -11.209  15.913  65.853  1.00  0.00     0.065 C  
HETATM    9  C   UNL     1     -11.422  14.154  66.069  1.00  0.00    -0.343 C  
HETATM   10  C   UNL     1      -8.296   7.026  66.629  1.00  0.00    -0.118 A  
HETATM   11  C   UNL     1      -8.667   8.304  66.173  1.00  0.00    -0.174 A  
HETATM   12  H   UNL     1      -9.121  10.455  63.798  1.00  0.00     0.000 HD 
HETATM   13  C   UNL     1      -8.608   8.635  64.824  1.00  0.00    -0.111 A  
HETATM   14  C   UNL     1     -10.706  12.840  65.413  1.00  0.00    -0.309 C  
HETATM   15  N   UNL     1      -9.055   9.952  64.682  1.00  0.00    -0.224 NA 
HETATM   16  C   UNL     1      -9.392  10.467  65.911  1.00  0.00    -0.181 A  
HETATM   17  C   UNL     1      -9.088   9.459  66.836  1.00  0.00    -0.160 A  
HETATM   18  C   UNL     1      -9.179   9.634  68.307  1.00  0.00    -0.131 C  
HETATM   19  C   UNL     1      -9.810  11.894  66.339  1.00  0.00    -0.213 C  
HETATM   20  C   UNL     1      -9.321  11.109  68.593  1.00  0.00    -0.184 C  
HETATM   21  C   UNL     1     -10.945  12.755  68.342  1.00  0.00    -0.254 C  
HETATM   22  N   UNL     1     -10.374  11.652  67.675  1.00  0.00    -0.186 NA 
ENDROOT
BRANCH   3  23
HETATM   23  O   UNL     1      -9.124  14.898  66.690  1.00  0.00    -0.252 OA 
BRANCH  23  24
HETATM   24  C   UNL     1      -7.883  14.444  66.355  1.00  0.00     1.298 C  
HETATM   25  O   UNL     1      -7.092  14.988  65.612  1.00  0.00     4.383 OA 
BRANCH  24  26
HETATM   26  C   UNL     1      -7.619  13.143  67.160  1.00  0.00    -0.008 C  
HETATM   27  C   UNL     1      -8.058  12.706  68.376  1.00  0.00    -0.137 C  
BRANCH  27  28
HETATM   28  C   UNL     1      -7.808  11.330  69.007  1.00  0.00    -0.079 A  
HETATM   29  C   UNL     1      -8.627  10.824  70.022  1.00  0.00     0.829 A  
HETATM   30  C   UNL     1      -6.716  10.497  68.642  1.00  0.00    -0.053 A  
HETATM   31  C   UNL     1      -6.477   9.220  69.247  1.00  0.00    -0.045 A  
HETATM   32  C   UNL     1      -8.453   9.536  70.583  1.00  0.00    -0.115 A  
HETATM   33  C   UNL     1      -7.365   8.723  70.218  1.00  0.00    -0.058 A  
BRANCH  32  34
HETATM   34  O   UNL     1      -9.321   9.036  71.532  1.00  0.00    -0.266 OA 
HETATM   35  C   UNL     1     -10.306   8.146  71.011  1.00  0.00    -0.195 C  
ENDBRANCH  32  34
BRANCH  33  36
HETATM   36  O   UNL     1      -7.264   7.540  70.919  1.00  0.00    -0.065 OA 
HETATM   37  C   UNL     1      -7.476   6.297  70.262  1.00  0.00    -0.094 C  
ENDBRANCH  33  36
BRANCH  31  38
HETATM   38  O   UNL     1      -5.395   8.424  68.973  1.00  0.00    -0.033 OA 
HETATM   39  C   UNL     1      -5.241   7.177  69.620  1.00  0.00    -0.015 C  
ENDBRANCH  31  38
ENDBRANCH  27  28
ENDBRANCH  24  26
ENDBRANCH  23  24
ENDBRANCH   3  23
BRANCH   5  40
HETATM   40  O   UNL     1     -11.342  17.494  67.932  1.00  0.00     0.023 OA 
HETATM   41  C   UNL     1     -10.754  18.436  68.805  1.00  0.00     0.328 C  
ENDBRANCH   5  40
BRANCH   8  42
HETATM   42  C   UNL     1     -10.556  16.503  64.595  1.00  0.00     0.380 C  
HETATM   43  O   UNL     1      -9.541  17.162  64.577  1.00  0.00     2.539 OA 
BRANCH  42  44
HETATM   44  O   UNL     1     -11.279  16.151  63.475  1.00  0.00    -0.100 OA 
HETATM   45  C   UNL     1     -12.621  16.605  63.252  1.00  0.00     6.453 C  
ENDBRANCH  42  44
ENDBRANCH   8  42
BRANCH   6  46
HETATM   46  O   UNL     1      -7.330   5.381  63.574  1.00  0.00    -0.048 OA 
HETATM   47  C   UNL     1      -6.566   4.384  64.217  1.00  0.00    -0.043 C  
ENDBRANCH   6  46
TORSDOF 11
ENDMDL
MODEL      118
REMARK 921   NORMALIZED FREE ENERGY PREDICTED BY IDOCK:   25.71 KCAL/MOL
REMARK 922        TOTAL FREE ENERGY PREDICTED BY IDOCK:   40.20 KCAL/MOL
REMARK 923 INTER-LIGAND FREE ENERGY PREDICTED BY IDOCK:   -2.40 KCAL/MOL
REMARK 924 INTRA-LIGAND FREE ENERGY PREDICTED BY IDOCK:   42.60 KCAL/MOL
REMARK 927      BINDING AFFINITY PREDICTED BY RF-SCORE:    0.00 PKD
ROOT
HETATM    1  C   UNL     1      -5.981   6.957  70.240  1.00  0.00    -0.024 C  
HETATM    2  C   UNL     1      -6.122   6.124  71.472  1.00  0.00    -0.040 C  
HETATM    3  C   UNL     1      -7.633   6.127  71.972  1.00  0.00    -0.096 C  
HETATM    4  C   UNL     1      -9.080  13.750  67.440  1.00  0.00    -0.221 A  
HETATM    5  C   UNL     1      -7.994   4.790  71.372  1.00  0.00    -0.101 C  
HETATM    6  C   UNL     1      -8.686  15.096  67.621  1.00  0.00    -0.170 A  
HETATM    7  C   UNL     1      -7.700  15.448  68.538  1.00  0.00    -0.132 A  
HETATM    8  C   UNL     1      -7.986   5.143  69.777  1.00  0.00    -0.078 C  
HETATM    9  C   UNL     1      -7.190   6.668  69.304  1.00  0.00    -0.090 C  
HETATM   10  C   UNL     1      -7.082  14.471  69.309  1.00  0.00    -0.140 A  
HETATM   11  C   UNL     1      -7.460  13.128  69.132  1.00  0.00     0.189 A  
HETATM   12  H   UNL     1      -9.212  10.835  67.667  1.00  0.00     0.000 HD 
HETATM   13  C   UNL     1      -8.431  12.766  68.205  1.00  0.00    -0.161 A  
HETATM   14  C   UNL     1      -7.741   8.117  68.785  1.00  0.00    -0.107 C  
HETATM   15  N   UNL     1      -8.570  11.376  68.245  1.00  0.00    -0.150 NA 
HETATM   16  C   UNL     1      -7.714  10.846  69.180  1.00  0.00    -0.127 A  
HETATM   17  C   UNL     1      -7.075  11.946  69.769  1.00  0.00     0.344 A  
HETATM   18  C   UNL     1      -6.150  11.842  70.926  1.00  0.00     0.419 C  
HETATM   19  C   UNL     1      -7.553   9.403  69.715  1.00  0.00    -0.095 C  
HETATM   20  C   UNL     1      -6.295  10.460  71.514  1.00  0.00     0.732 C  
HETATM   21  C   UNL     1      -5.734   8.280  70.927  1.00  0.00    -0.032 C  
HETATM   22  N   UNL     1      -6.246   9.476  70.385  1.00  0.00    -0.056 NA 
ENDROOT
BRANCH   3  23
HETATM   23  O   UNL     1      -8.704   6.974  71.262  1.00  0.00    -0.129 OA 
BRANCH  23  24
HETATM   24  C   UNL     1      -9.790   6.835  70.449  1.00  0.00    -0.175 C  
HETATM   25  O   UNL     1     -10.937   6.653  70.804  1.00  0.00    -0.242 OA 
BRANCH  24  26
HETATM   26  C   UNL     1      -9.318   7.036  68.985  1.00  0.00    -0.136 C  
HETATM   27  C   UNL     1      -8.138   7.460  68.446  1.00  0.00    -0.125 C  
BRANCH  27  28
HETATM   28  C   UNL     1      -7.764   7.500  66.959  1.00  0.00    -0.111 A  
HETATM   29  C   UNL     1      -6.665   8.231  66.493  1.00  0.00    -0.063 A  
HETATM   30  C   UNL     1      -8.520   6.842  65.952  1.00  0.00    -0.146 A  
HETATM   31  C   UNL     1      -8.176   6.896  64.561  1.00  0.00    -0.001 A  
HETATM   32  C   UNL     1      -6.265   8.240  65.135  1.00  0.00    -0.045 A  
HETATM   33  C   UNL     1      -7.025   7.590  64.147  1.00  0.00    -0.061 A  
BRANCH  32  34
HETATM   34  O   UNL     1      -5.134   8.913  64.718  1.00  0.00    -0.037 OA 
HETATM   35  C   UNL     1      -5.125  10.300  65.047  1.00  0.00    -0.086 C  
ENDBRANCH  32  34
BRANCH  33  36
HETATM   36  O   UNL     1      -6.573   7.769  62.857  1.00  0.00    -0.073 OA 
HETATM   37  C   UNL     1      -5.182   7.708  62.568  1.00  0.00    -0.046 C  
ENDBRANCH  33  36
BRANCH  31  38
HETATM   38  O   UNL     1      -8.922   6.336  63.558  1.00  0.00     0.552 OA 
HETATM   39  C   UNL     1      -8.305   5.539  62.567  1.00  0.00    -0.110 C  
ENDBRANCH  31  38
ENDBRANCH  27  28
ENDBRANCH  24  26
ENDBRANCH  23  24
ENDBRANCH   3  23
BRANCH   5  40
HETATM   40  O   UNL     1      -7.060   3.780  71.808  1.00  0.00    -0.036 OA 
HETATM   41  C   UNL     1      -7.027   3.437  73.178  1.00  0.00    -0.040 C  
ENDBRANCH   5  40
BRANCH   8  42
HETATM   42  C   UNL     1      -9.411   4.794  69.321  1.00  0.00    -0.135 C  
HETATM   43  O   UNL     1     -10.349   5.558  69.316  1.00  0.00    -0.225 OA 
BRANCH  42  44
HETATM   44  O   UNL     1      -9.464   3.487  68.887  1.00  0.00    -0.164 OA 
HETATM   45  C   UNL     1      -8.300   2.651  68.822  1.00  0.00    -0.064 C  
ENDBRANCH  42  44
ENDBRANCH   8  42
BRANCH   6  46
HETATM   46  O   UNL     1      -9.202  16.173  66.946  1.00  0.00    -0.209 OA 
HETATM   47  C   UNL     1     -10.013  15.894  65.825  1.00  0.00    -0.360 C  
ENDBRANCH   6  46
TORSDOF 11
ENDMDL
MODEL      119
REMARK 921   NORMALIZED FREE ENERGY PREDICTED BY IDOCK:   26.01 KCAL/MOL
REMARK 922        TOTAL FREE ENERGY PREDICTED BY IDOCK:   40.69 KCAL/MOL
REMARK 923 INTER-LIGAND FREE ENERGY PREDICTED BY IDOCK:   26.44 KCAL/MOL
REMARK 924 INTRA-LIGAND FREE ENERGY PREDICTED BY IDOCK:   14.26 KCAL/MOL
REMARK 927      BINDING AFFINITY PREDICTED BY RF-SCORE:    0.00 PKD
ROOT
HETATM    1  C   UNL     1      -7.698   7.704  66.437  1.00  0.00    -0.089 C  
HETATM    2  C   UNL     1      -7.016   7.126  67.634  1.00  0.00    -0.079 C  
HETATM    3  C   UNL     1      -7.959   7.229  68.911  1.00  0.00    -0.123 C  
HETATM    4  C   UNL     1     -12.573  13.832  64.930  1.00  0.00    -0.380 A  
HETATM    5  C   UNL     1      -8.447   5.801  68.855  1.00  0.00    -0.104 C  
HETATM    6  C   UNL     1     -12.300  15.187  64.632  1.00  0.00    -0.149 A  
HETATM    7  C   UNL     1     -11.014  15.707  64.733  1.00  0.00    -0.418 A  
HETATM    8  C   UNL     1      -9.391   5.838  67.522  1.00  0.00    -0.111 C  
HETATM    9  C   UNL     1      -9.183   7.242  66.440  1.00  0.00    -0.201 C  
HETATM   10  C   UNL     1      -9.962  14.898  65.144  1.00  0.00    -0.277 A  
HETATM   11  C   UNL     1     -10.220  13.546  65.436  1.00  0.00    -0.316 A  
HETATM   12  H   UNL     1     -12.227  11.016  65.649  1.00  0.00     0.000 HD 
HETATM   13  C   UNL     1     -11.499  13.013  65.318  1.00  0.00    -0.309 A  
HETATM   14  C   UNL     1     -10.089   8.563  66.117  1.00  0.00    -0.053 C  
HETATM   15  N   UNL     1     -11.435  11.658  65.652  1.00  0.00    -0.207 NA 
HETATM   16  C   UNL     1     -10.145  11.317  65.983  1.00  0.00    -0.239 A  
HETATM   17  C   UNL     1      -9.412  12.510  65.907  1.00  0.00    -0.111 A  
HETATM   18  C   UNL     1      -7.988  12.630  66.308  1.00  0.00     0.835 C  
HETATM   19  C   UNL     1      -9.548  10.005  66.545  1.00  0.00    -0.187 C  
HETATM   20  C   UNL     1      -7.615  11.388  67.080  1.00  0.00    -0.145 C  
HETATM   21  C   UNL     1      -7.251   9.135  66.632  1.00  0.00    -0.085 C  
HETATM   22  N   UNL     1      -8.111  10.204  66.307  1.00  0.00    -0.121 NA 
ENDROOT
BRANCH   3  23
HETATM   23  O   UNL     1      -9.330   7.923  68.834  1.00  0.00    -0.150 OA 
BRANCH  23  24
HETATM   24  C   UNL     1     -10.480   8.070  69.553  1.00  0.00    -0.226 C  
HETATM   25  O   UNL     1     -11.190   7.177  69.968  1.00  0.00    -0.270 OA 
BRANCH  24  26
HETATM   26  C   UNL     1     -10.681   9.584  69.825  1.00  0.00    -0.259 C  
HETATM   27  C   UNL     1      -9.872  10.540  70.367  1.00  0.00     0.671 C  
BRANCH  27  28
HETATM   28  C   UNL     1     -10.160  12.043  70.471  1.00  0.00     4.090 A  
HETATM   29  C   UNL     1      -9.373  12.993  69.809  1.00  0.00     2.291 A  
HETATM   30  C   UNL     1     -11.206  12.579  71.269  1.00  0.00     3.238 A  
HETATM   31  C   UNL     1     -11.460  13.985  71.377  1.00  0.00     0.850 A  
HETATM   32  C   UNL     1      -9.649  14.381  69.842  1.00  0.00     0.805 A  
HETATM   33  C   UNL     1     -10.684  14.899  70.641  1.00  0.00     0.069 A  
BRANCH  32  34
HETATM   34  O   UNL     1      -8.898  15.287  69.121  1.00  0.00    -0.209 OA 
HETATM   35  C   UNL     1      -8.271  14.735  67.965  1.00  0.00    -0.142 C  
ENDBRANCH  32  34
BRANCH  33  36
HETATM   36  O   UNL     1     -10.772  16.275  70.656  1.00  0.00    -0.135 OA 
HETATM   37  C   UNL     1     -10.854  16.976  71.890  1.00  0.00     2.059 C  
ENDBRANCH  33  36
BRANCH  31  38
HETATM   38  O   UNL     1     -12.411  14.540  72.193  1.00  0.00    -0.326 OA 
HETATM   39  C   UNL     1     -12.630  14.025  73.491  1.00  0.00     0.697 C  
ENDBRANCH  31  38
ENDBRANCH  27  28
ENDBRANCH  24  26
ENDBRANCH  23  24
ENDBRANCH   3  23
BRANCH   5  40
HETATM   40  O   UNL     1      -7.326   4.893  68.820  1.00  0.00    -0.060 OA 
HETATM   41  C   UNL     1      -6.048   5.408  68.510  1.00  0.00    -0.026 C  
ENDBRANCH   5  40
BRANCH   8  42
HETATM   42  C   UNL     1     -10.771   5.410  68.043  1.00  0.00    -0.006 C  
HETATM   43  O   UNL     1     -11.364   4.410  67.709  1.00  0.00     2.813 OA 
BRANCH  42  44
HETATM   44  O   UNL     1     -11.229   6.318  68.974  1.00  0.00    -0.375 OA 
HETATM   45  C   UNL     1     -12.594   6.754  69.015  1.00  0.00     3.728 C  
ENDBRANCH  42  44
ENDBRANCH   8  42
BRANCH   6  46
HETATM   46  O   UNL     1     -13.225  16.113  64.222  1.00  0.00     0.540 OA 
HETATM   47  C   UNL     1     -13.076  17.425  64.718  1.00  0.00     9.638 C  
ENDBRANCH   6  46
TORSDOF 11
ENDMDL
MODEL      120
REMARK 921   NORMALIZED FREE ENERGY PREDICTED BY IDOCK:   26.48 KCAL/MOL
REMARK 922        TOTAL FREE ENERGY PREDICTED BY IDOCK:   41.47 KCAL/MOL
REMARK 923 INTER-LIGAND FREE ENERGY PREDICTED BY IDOCK:   21.28 KCAL/MOL
REMARK 924 INTRA-LIGAND FREE ENERGY PREDICTED BY IDOCK:   20.19 KCAL/MOL
REMARK 927      BINDING AFFINITY PREDICTED BY RF-SCORE:    0.00 PKD
ROOT
HETATM    1  C   UNL     1     -11.858   7.344  66.199  1.00  0.00     5.451 C  
HETATM    2  C   UNL     1     -11.794   6.461  64.994  1.00  0.00     7.656 C  
HETATM    3  C   UNL     1     -10.322   5.886  64.809  1.00  0.00     2.573 C  
HETATM    4  C   UNL     1      -7.088  12.642  69.772  1.00  0.00     0.528 A  
HETATM    5  C   UNL     1     -10.608   4.538  65.427  1.00  0.00    -0.162 C  
HETATM    6  C   UNL     1      -6.912  14.028  69.557  1.00  0.00    -0.007 A  
HETATM    7  C   UNL     1      -7.496  14.675  68.473  1.00  0.00    -0.120 A  
HETATM    8  C   UNL     1     -10.800   4.943  66.998  1.00  0.00     0.315 C  
HETATM    9  C   UNL     1     -11.052   6.674  67.349  1.00  0.00    -0.398 C  
HETATM   10  C   UNL     1      -8.265  13.960  67.563  1.00  0.00    -0.196 A  
HETATM   11  C   UNL     1      -8.454  12.581  67.771  1.00  0.00    -0.171 A  
HETATM   12  H   UNL     1      -8.000   9.876  69.487  1.00  0.00     0.000 HD 
HETATM   13  C   UNL     1      -7.889  11.931  68.862  1.00  0.00     0.015 A  
HETATM   14  C   UNL     1     -10.119   7.840  68.012  1.00  0.00    -0.227 C  
HETATM   15  N   UNL     1      -8.269  10.587  68.808  1.00  0.00    -0.125 NA 
HETATM   16  C   UNL     1      -9.057  10.367  67.704  1.00  0.00    -0.138 A  
HETATM   17  C   UNL     1      -9.114  11.596  67.033  1.00  0.00    -0.179 A  
HETATM   18  C   UNL     1      -9.763  11.786  65.712  1.00  0.00    -0.260 C  
HETATM   19  C   UNL     1      -9.630   9.061  67.103  1.00  0.00    -0.167 C  
HETATM   20  C   UNL     1     -10.027  10.423  65.122  1.00  0.00    -0.322 C  
HETATM   21  C   UNL     1     -11.457   8.631  65.516  1.00  0.00     7.070 C  
HETATM   22  N   UNL     1     -10.657   9.579  66.188  1.00  0.00     0.010 NA 
ENDROOT
BRANCH   3  23
HETATM   23  O   UNL     1      -9.177   6.310  65.745  1.00  0.00    -0.090 OA 
BRANCH  23  24
HETATM   24  C   UNL     1      -8.620   7.430  66.290  1.00  0.00    -0.142 C  
HETATM   25  O   UNL     1      -8.442   8.492  65.729  1.00  0.00    -0.136 OA 
BRANCH  24  26
HETATM   26  C   UNL     1      -8.330   7.137  67.785  1.00  0.00    -0.118 C  
HETATM   27  C   UNL     1      -7.614   7.805  68.735  1.00  0.00    -0.101 C  
BRANCH  27  28
HETATM   28  C   UNL     1      -7.505   7.458  70.225  1.00  0.00    -0.083 A  
HETATM   29  C   UNL     1      -7.328   6.142  70.666  1.00  0.00    -0.086 A  
HETATM   30  C   UNL     1      -7.618   8.428  71.257  1.00  0.00    -0.100 A  
HETATM   31  C   UNL     1      -7.534   8.097  72.649  1.00  0.00    -0.121 A  
HETATM   32  C   UNL     1      -7.169   5.800  72.030  1.00  0.00    -0.089 A  
HETATM   33  C   UNL     1      -7.289   6.769  73.042  1.00  0.00    -0.079 A  
BRANCH  32  34
HETATM   34  O   UNL     1      -6.923   4.502  72.428  1.00  0.00    -0.053 OA 
HETATM   35  C   UNL     1      -6.932   3.554  71.363  1.00  0.00    -0.032 C  
ENDBRANCH  32  34
BRANCH  33  36
HETATM   36  O   UNL     1      -7.214   6.276  74.328  1.00  0.00    -0.089 OA 
HETATM   37  C   UNL     1      -7.005   4.888  74.554  1.00  0.00    -0.073 C  
ENDBRANCH  33  36
BRANCH  31  38
HETATM   38  O   UNL     1      -7.711   8.993  73.670  1.00  0.00    -0.277 OA 
HETATM   39  C   UNL     1      -6.616   9.730  74.174  1.00  0.00     1.050 C  
ENDBRANCH  31  38
ENDBRANCH  27  28
ENDBRANCH  24  26
ENDBRANCH  23  24
ENDBRANCH   3  23
BRANCH   5  40
HETATM   40  O   UNL     1     -11.742   3.924  64.781  1.00  0.00     0.417 OA 
HETATM   41  C   UNL     1     -11.609   3.502  63.440  1.00  0.00     1.117 C  
ENDBRANCH   5  40
BRANCH   8  42
HETATM   42  C   UNL     1      -9.725   4.116  67.720  1.00  0.00    -0.111 C  
HETATM   43  O   UNL     1      -9.776   3.759  68.875  1.00  0.00    -0.151 OA 
BRANCH  42  44
HETATM   44  O   UNL     1      -8.700   3.809  66.852  1.00  0.00    -0.105 OA 
HETATM   45  C   UNL     1      -7.511   3.128  67.276  1.00  0.00    -0.062 C  
ENDBRANCH  42  44
ENDBRANCH   8  42
BRANCH   6  46
HETATM   46  O   UNL     1      -6.180  14.870  70.355  1.00  0.00    -0.162 OA 
HETATM   47  C   UNL     1      -5.425  14.273  71.387  1.00  0.00    -0.193 C  
ENDBRANCH   6  46
TORSDOF 11
ENDMDL
MODEL      121
REMARK 921   NORMALIZED FREE ENERGY PREDICTED BY IDOCK:   30.75 KCAL/MOL
REMARK 922        TOTAL FREE ENERGY PREDICTED BY IDOCK:   48.48 KCAL/MOL
REMARK 923 INTER-LIGAND FREE ENERGY PREDICTED BY IDOCK:   -3.22 KCAL/MOL
REMARK 924 INTRA-LIGAND FREE ENERGY PREDICTED BY IDOCK:   51.70 KCAL/MOL
REMARK 927      BINDING AFFINITY PREDICTED BY RF-SCORE:    0.00 PKD
ROOT
HETATM    1  C   UNL     1      -9.825   5.515  67.378  1.00  0.00    -0.167 C  
HETATM    2  C   UNL     1     -10.516   4.691  66.340  1.00  0.00    -0.207 C  
HETATM    3  C   UNL     1      -9.900   4.984  64.902  1.00  0.00     0.286 C  
HETATM    4  C   UNL     1      -6.788  12.871  67.875  1.00  0.00    -0.120 A  
HETATM    5  C   UNL     1      -9.010   3.764  64.868  1.00  0.00    -0.126 C  
HETATM    6  C   UNL     1      -7.389  14.105  68.216  1.00  0.00    -0.120 A  
HETATM    7  C   UNL     1      -8.767  14.224  68.366  1.00  0.00    -0.181 A  
HETATM    8  C   UNL     1      -7.889   4.155  65.989  1.00  0.00    -0.094 C  
HETATM    9  C   UNL     1      -8.296   5.503  67.086  1.00  0.00    -0.104 C  
HETATM   10  C   UNL     1      -9.590  13.121  68.173  1.00  0.00    -0.227 A  
HETATM   11  C   UNL     1      -9.002  11.887  67.842  1.00  0.00    -0.179 A  
HETATM   12  H   UNL     1      -6.414  10.037  67.248  1.00  0.00     0.000 HD 
HETATM   13  C   UNL     1      -7.625  11.755  67.708  1.00  0.00    -0.127 A  
HETATM   14  C   UNL     1      -7.779   7.047  67.219  1.00  0.00    -0.109 C  
HETATM   15  N   UNL     1      -7.346  10.421  67.399  1.00  0.00    -0.092 NA 
HETATM   16  C   UNL     1      -8.516   9.702  67.329  1.00  0.00    -0.132 A  
HETATM   17  C   UNL     1      -9.541  10.634  67.542  1.00  0.00    -0.180 A  
HETATM   18  C   UNL     1     -10.985  10.312  67.428  1.00  0.00    -0.317 C  
HETATM   19  C   UNL     1      -8.791   8.241  66.899  1.00  0.00    -0.140 C  
HETATM   20  C   UNL     1     -11.111   8.970  66.749  1.00  0.00     0.686 C  
HETATM   21  C   UNL     1     -10.702   6.740  67.268  1.00  0.00    -0.353 C  
HETATM   22  N   UNL     1     -10.152   8.030  67.414  1.00  0.00    -0.205 NA 
ENDROOT
BRANCH   3  23
HETATM   23  O   UNL     1      -8.807   6.048  64.706  1.00  0.00     0.033 OA 
BRANCH  23  24
HETATM   24  C   UNL     1      -8.512   7.334  65.052  1.00  0.00     0.025 C  
HETATM   25  O   UNL     1      -8.671   8.321  64.362  1.00  0.00     0.006 OA 
BRANCH  24  26
HETATM   26  C   UNL     1      -8.016   7.330  66.522  1.00  0.00    -0.115 C  
HETATM   27  C   UNL     1      -7.406   6.379  67.287  1.00  0.00    -0.087 C  
BRANCH  27  28
HETATM   28  C   UNL     1      -6.857   6.550  68.710  1.00  0.00    -0.070 A  
HETATM   29  C   UNL     1      -6.792   7.803  69.330  1.00  0.00    -0.044 A  
HETATM   30  C   UNL     1      -6.342   5.471  69.476  1.00  0.00    -0.033 A  
HETATM   31  C   UNL     1      -5.814   5.638  70.799  1.00  0.00    -0.024 A  
HETATM   32  C   UNL     1      -6.342   7.982  70.661  1.00  0.00    -0.036 A  
HETATM   33  C   UNL     1      -5.829   6.906  71.407  1.00  0.00    -0.036 A  
BRANCH  32  34
HETATM   34  O   UNL     1      -6.357   9.220  71.270  1.00  0.00    -0.077 OA 
HETATM   35  C   UNL     1      -5.601  10.216  70.586  1.00  0.00    -0.078 C  
ENDBRANCH  32  34
BRANCH  33  36
HETATM   36  O   UNL     1      -5.334   7.246  72.648  1.00  0.00    -0.037 OA 
HETATM   37  C   UNL     1      -5.974   6.779  73.829  1.00  0.00    -0.062 C  
ENDBRANCH  33  36
BRANCH  31  38
HETATM   38  O   UNL     1      -5.244   4.635  71.537  1.00  0.00    -0.003 OA 
HETATM   39  C   UNL     1      -5.431   3.282  71.173  1.00  0.00    -0.008 C  
ENDBRANCH  31  38
ENDBRANCH  27  28
ENDBRANCH  24  26
ENDBRANCH  23  24
ENDBRANCH   3  23
BRANCH   5  40
HETATM   40  O   UNL     1      -9.786   2.575  65.125  1.00  0.00    -0.005 OA 
HETATM   41  C   UNL     1     -10.054   1.697  64.052  1.00  0.00    -0.033 C  
ENDBRANCH   5  40
BRANCH   8  42
HETATM   42  C   UNL     1      -6.566   4.113  65.210  1.00  0.00    -0.047 C  
HETATM   43  O   UNL     1      -5.508   4.546  65.605  1.00  0.00    -0.012 OA 
BRANCH  42  44
HETATM   44  O   UNL     1      -6.749   3.481  63.998  1.00  0.00    -0.040 OA 
HETATM   45  C   UNL     1      -5.816   2.521  63.483  1.00  0.00    -0.010 C  
ENDBRANCH  42  44
ENDBRANCH   8  42
BRANCH   6  46
HETATM   46  O   UNL     1      -6.720  15.283  68.432  1.00  0.00    -0.104 OA 
HETATM   47  C   UNL     1      -5.317  15.255  68.285  1.00  0.00    -0.115 C  
ENDBRANCH   6  46
TORSDOF 11
ENDMDL
MODEL      122
REMARK 921   NORMALIZED FREE ENERGY PREDICTED BY IDOCK:   37.04 KCAL/MOL
REMARK 922        TOTAL FREE ENERGY PREDICTED BY IDOCK:   58.81 KCAL/MOL
REMARK 923 INTER-LIGAND FREE ENERGY PREDICTED BY IDOCK:   12.28 KCAL/MOL
REMARK 924 INTRA-LIGAND FREE ENERGY PREDICTED BY IDOCK:   46.53 KCAL/MOL
REMARK 927      BINDING AFFINITY PREDICTED BY RF-SCORE:    0.00 PKD
ROOT
HETATM    1  C   UNL     1     -10.692   8.619  66.592  1.00  0.00     0.033 C  
HETATM    2  C   UNL     1      -9.835   7.875  65.619  1.00  0.00     0.721 C  
HETATM    3  C   UNL     1      -8.298   8.186  65.888  1.00  0.00    -0.132 C  
HETATM    4  C   UNL     1     -10.603  15.767  70.124  1.00  0.00    -0.334 A  
HETATM    5  C   UNL     1      -8.020   6.920  66.663  1.00  0.00    -0.108 C  
HETATM    6  C   UNL     1     -11.107  17.019  69.703  1.00  0.00     0.273 A  
HETATM    7  C   UNL     1     -11.591  17.211  68.413  1.00  0.00     0.648 A  
HETATM    8  C   UNL     1      -8.844   7.204  68.044  1.00  0.00    -0.129 C  
HETATM    9  C   UNL     1     -10.037   8.531  68.000  1.00  0.00    -0.245 C  
HETATM   10  C   UNL     1     -11.579  16.164  67.499  1.00  0.00     0.227 A  
HETATM   11  C   UNL     1     -11.087  14.912  67.909  1.00  0.00    -0.304 A  
HETATM   12  H   UNL     1      -9.840  12.942  70.154  1.00  0.00     0.000 HD 
HETATM   13  C   UNL     1     -10.619  14.707  69.202  1.00  0.00    -0.242 A  
HETATM   14  C   UNL     1     -10.076  10.037  68.633  1.00  0.00    -0.187 C  
HETATM   15  N   UNL     1     -10.222  13.372  69.311  1.00  0.00     0.202 NA 
HETATM   16  C   UNL     1     -10.421  12.724  68.116  1.00  0.00    -0.236 A  
HETATM   17  C   UNL     1     -10.899  13.704  67.234  1.00  0.00    -0.292 A  
HETATM   18  C   UNL     1     -11.131  13.469  65.787  1.00  0.00    -0.295 C  
HETATM   19  C   UNL     1     -10.039  11.298  67.652  1.00  0.00    -0.179 C  
HETATM   20  C   UNL     1     -10.473  12.163  65.416  1.00  0.00    -0.270 C  
HETATM   21  C   UNL     1     -10.827   9.895  65.794  1.00  0.00     0.623 C  
HETATM   22  N   UNL     1     -10.864  11.146  66.444  1.00  0.00    -0.256 NA 
ENDROOT
BRANCH   3  23
HETATM   23  O   UNL     1      -7.866   9.194  66.968  1.00  0.00    -0.100 OA 
BRANCH  23  24
HETATM   24  C   UNL     1      -8.391   9.956  67.969  1.00  0.00    -0.113 C  
HETATM   25  O   UNL     1      -8.471  11.167  67.987  1.00  0.00    -0.126 OA 
BRANCH  24  26
HETATM   26  C   UNL     1      -8.950   8.997  69.054  1.00  0.00    -0.140 C  
HETATM   27  C   UNL     1      -8.743   8.904  70.399  1.00  0.00    -0.200 C  
BRANCH  27  28
HETATM   28  C   UNL     1      -9.460   7.970  71.382  1.00  0.00    -0.194 A  
HETATM   29  C   UNL     1      -8.881   6.775  71.821  1.00  0.00    -0.128 A  
HETATM   30  C   UNL     1     -10.767   8.225  71.879  1.00  0.00    -0.350 A  
HETATM   31  C   UNL     1     -11.441   7.341  72.783  1.00  0.00    -0.230 A  
HETATM   32  C   UNL     1      -9.497   5.922  72.769  1.00  0.00    -0.148 A  
HETATM   33  C   UNL     1     -10.793   6.182  73.249  1.00  0.00    -0.244 A  
BRANCH  32  34
HETATM   34  O   UNL     1      -8.869   4.787  73.238  1.00  0.00    -0.108 OA 
HETATM   35  C   UNL     1      -7.445   4.858  73.221  1.00  0.00    -0.088 C  
ENDBRANCH  32  34
BRANCH  33  36
HETATM   36  O   UNL     1     -11.305   5.215  74.088  1.00  0.00     0.023 OA 
HETATM   37  C   UNL     1     -12.685   5.220  74.430  1.00  0.00     8.667 C  
ENDBRANCH  33  36
BRANCH  31  38
HETATM   38  O   UNL     1     -12.726   7.517  73.225  1.00  0.00     1.009 OA 
HETATM   39  C   UNL     1     -13.643   8.285  72.472  1.00  0.00    -0.038 C  
ENDBRANCH  31  38
ENDBRANCH  27  28
ENDBRANCH  24  26
ENDBRANCH  23  24
ENDBRANCH   3  23
BRANCH   5  40
HETATM   40  O   UNL     1      -8.432   5.768  65.898  1.00  0.00    -0.127 OA 
HETATM   41  C   UNL     1      -7.493   4.738  65.669  1.00  0.00    -0.081 C  
ENDBRANCH   5  40
BRANCH   8  42
HETATM   42  C   UNL     1      -7.766   7.117  69.134  1.00  0.00    -0.109 C  
HETATM   43  O   UNL     1      -7.915   6.616  70.226  1.00  0.00    -0.111 OA 
BRANCH  42  44
HETATM   44  O   UNL     1      -6.587   7.668  68.681  1.00  0.00    -0.050 OA 
HETATM   45  C   UNL     1      -5.999   7.300  67.426  1.00  0.00    -0.037 C  
ENDBRANCH  42  44
ENDBRANCH   8  42
BRANCH   6  46
HETATM   46  O   UNL     1     -11.182  18.148  70.479  1.00  0.00     2.174 OA 
HETATM   47  C   UNL     1     -10.455  18.140  71.688  1.00  0.00     3.612 C  
ENDBRANCH   6  46
TORSDOF 11
ENDMDL
MODEL      123
REMARK 921   NORMALIZED FREE ENERGY PREDICTED BY IDOCK:   37.90 KCAL/MOL
REMARK 922        TOTAL FREE ENERGY PREDICTED BY IDOCK:   60.23 KCAL/MOL
REMARK 923 INTER-LIGAND FREE ENERGY PREDICTED BY IDOCK:    8.41 KCAL/MOL
REMARK 924 INTRA-LIGAND FREE ENERGY PREDICTED BY IDOCK:   51.83 KCAL/MOL
REMARK 927      BINDING AFFINITY PREDICTED BY RF-SCORE:    0.00 PKD
ROOT
HETATM    1  C   UNL     1      -8.463  13.817  68.406  1.00  0.00    -0.154 C  
HETATM    2  C   UNL     1      -8.232  15.240  68.013  1.00  0.00    -0.143 C  
HETATM    3  C   UNL     1      -8.928  15.547  66.615  1.00  0.00    -0.287 C  
HETATM    4  C   UNL     1      -8.883   6.768  64.702  1.00  0.00     0.531 A  
HETATM    5  C   UNL     1     -10.155  16.206  67.198  1.00  0.00    -0.269 C  
HETATM    6  C   UNL     1      -7.876   5.838  64.354  1.00  0.00    -0.110 A  
HETATM    7  C   UNL     1      -6.525   6.147  64.487  1.00  0.00    -0.034 A  
HETATM    8  C   UNL     1     -10.914  14.927  67.872  1.00  0.00    -0.288 C  
HETATM    9  C   UNL     1      -9.940  13.447  68.088  1.00  0.00    -0.237 C  
HETATM   10  C   UNL     1      -6.136   7.393  64.962  1.00  0.00    -0.038 A  
HETATM   11  C   UNL     1      -7.129   8.323  65.318  1.00  0.00    -0.074 A  
HETATM   12  H   UNL     1     -10.230   9.173  65.684  1.00  0.00     0.000 HD 
HETATM   13  C   UNL     1      -8.481   8.016  65.206  1.00  0.00    -0.117 A  
HETATM   14  C   UNL     1      -9.912  11.994  67.341  1.00  0.00    -0.200 C  
HETATM   15  N   UNL     1      -9.213   9.120  65.651  1.00  0.00    -0.225 NA 
HETATM   16  C   UNL     1      -8.358  10.124  66.040  1.00  0.00    -0.130 A  
HETATM   17  C   UNL     1      -7.069   9.643  65.770  1.00  0.00    -0.099 A  
HETATM   18  C   UNL     1      -5.837  10.456  65.921  1.00  0.00    -0.099 C  
HETATM   19  C   UNL     1      -8.630  11.582  66.480  1.00  0.00    -0.172 C  
HETATM   20  C   UNL     1      -6.248  11.900  66.080  1.00  0.00     1.083 C  
HETATM   21  C   UNL     1      -7.266  13.225  67.698  1.00  0.00    -0.162 C  
HETATM   22  N   UNL     1      -7.347  11.952  67.097  1.00  0.00    -0.144 NA 
ENDROOT
BRANCH   3  23
HETATM   23  O   UNL     1      -9.640  14.439  65.820  1.00  0.00    -0.273 OA 
BRANCH  23  24
HETATM   24  C   UNL     1      -9.414  13.193  65.313  1.00  0.00     0.310 C  
HETATM   25  O   UNL     1      -8.837  12.929  64.278  1.00  0.00     1.577 OA 
BRANCH  24  26
HETATM   26  C   UNL     1      -9.952  12.159  66.338  1.00  0.00    -0.243 C  
HETATM   27  C   UNL     1      -9.839  12.059  67.694  1.00  0.00    -0.191 C  
BRANCH  27  28
HETATM   28  C   UNL     1     -10.528  11.035  68.605  1.00  0.00    -0.214 A  
HETATM   29  C   UNL     1     -10.886   9.762  68.147  1.00  0.00    -0.264 A  
HETATM   30  C   UNL     1     -10.887  11.314  69.951  1.00  0.00     0.004 A  
HETATM   31  C   UNL     1     -11.547  10.360  70.793  1.00  0.00    -0.358 A  
HETATM   32  C   UNL     1     -11.472   8.779  68.981  1.00  0.00     0.712 A  
HETATM   33  C   UNL     1     -11.829   9.070  70.309  1.00  0.00     0.100 A  
BRANCH  32  34
HETATM   34  O   UNL     1     -11.748   7.509  68.519  1.00  0.00     0.915 OA 
HETATM   35  C   UNL     1     -10.685   6.577  68.703  1.00  0.00    -0.271 C  
ENDBRANCH  32  34
BRANCH  33  36
HETATM   36  O   UNL     1     -12.483   8.052  70.970  1.00  0.00    -0.239 OA 
HETATM   37  C   UNL     1     -13.771   8.271  71.531  1.00  0.00    -0.308 C  
ENDBRANCH  33  36
BRANCH  31  38
HETATM   38  O   UNL     1     -11.973  10.619  72.069  1.00  0.00     0.287 OA 
HETATM   39  C   UNL     1     -12.287  11.939  72.466  1.00  0.00     2.404 C  
ENDBRANCH  31  38
ENDBRANCH  27  28
ENDBRANCH  24  26
ENDBRANCH  23  24
ENDBRANCH   3  23
BRANCH   5  40
HETATM   40  O   UNL     1      -9.771  17.268  68.095  1.00  0.00    -0.264 OA 
HETATM   41  C   UNL     1     -10.781  18.089  68.644  1.00  0.00     0.057 C  
ENDBRANCH   5  40
BRANCH   8  42
HETATM   42  C   UNL     1     -12.281  14.905  67.171  1.00  0.00     0.160 C  
HETATM   43  O   UNL     1     -13.139  14.068  67.338  1.00  0.00     1.010 OA 
BRANCH  42  44
HETATM   44  O   UNL     1     -12.405  15.998  66.340  1.00  0.00     1.482 OA 
HETATM   45  C   UNL     1     -13.379  16.058  65.290  1.00  0.00     3.521 C  
ENDBRANCH  42  44
ENDBRANCH   8  42
BRANCH   6  46
HETATM   46  O   UNL     1      -8.094   4.575  63.867  1.00  0.00    -0.089 OA 
HETATM   47  C   UNL     1      -7.138   3.591  64.196  1.00  0.00    -0.050 C  
ENDBRANCH   6  46
TORSDOF 11
ENDMDL
MODEL      124
REMARK 921   NORMALIZED FREE ENERGY PREDICTED BY IDOCK:   38.60 KCAL/MOL
REMARK 922        TOTAL FREE ENERGY PREDICTED BY IDOCK:   61.39 KCAL/MOL
REMARK 923 INTER-LIGAND FREE ENERGY PREDICTED BY IDOCK:   36.93 KCAL/MOL
REMARK 924 INTRA-LIGAND FREE ENERGY PREDICTED BY IDOCK:   24.46 KCAL/MOL
REMARK 927      BINDING AFFINITY PREDICTED BY RF-SCORE:    0.00 PKD
ROOT
HETATM    1  C   UNL     1      -8.563   8.889  70.772  1.00  0.00    -0.236 C  
HETATM    2  C   UNL     1      -8.644   8.678  72.249  1.00  0.00    -0.175 C  
HETATM    3  C   UNL     1      -9.948   9.376  72.836  1.00  0.00     2.837 C  
HETATM    4  C   UNL     1     -10.266  14.753  65.644  1.00  0.00    -0.382 A  
HETATM    5  C   UNL     1     -10.779   8.117  72.898  1.00  0.00    -0.247 C  
HETATM    6  C   UNL     1      -9.496  15.852  65.198  1.00  0.00     0.635 A  
HETATM    7  C   UNL     1      -8.274  16.167  65.782  1.00  0.00     0.710 A  
HETATM    8  C   UNL     1     -11.032   7.823  71.312  1.00  0.00    -0.259 C  
HETATM    9  C   UNL     1      -9.982   8.696  70.163  1.00  0.00    -0.193 C  
HETATM   10  C   UNL     1      -7.785  15.404  66.836  1.00  0.00    -0.159 A  
HETATM   11  C   UNL     1      -8.539  14.304  67.283  1.00  0.00    -0.229 A  
HETATM   12  H   UNL     1     -11.123  12.364  67.101  1.00  0.00     0.000 HD 
HETATM   13  C   UNL     1      -9.752  13.971  66.692  1.00  0.00    -0.289 A  
HETATM   14  C   UNL     1     -10.225   9.939  69.130  1.00  0.00    -0.218 C  
HETATM   15  N   UNL     1     -10.247  12.832  67.333  1.00  0.00    -0.221 NA 
HETATM   16  C   UNL     1      -9.378  12.436  68.321  1.00  0.00    -0.199 A  
HETATM   17  C   UNL     1      -8.354  13.392  68.324  1.00  0.00    -0.160 A  
HETATM   18  C   UNL     1      -7.258  13.424  69.325  1.00  0.00     0.117 C  
HETATM   19  C   UNL     1      -9.497  11.335  69.402  1.00  0.00     0.357 C  
HETATM   20  C   UNL     1      -7.633  12.498  70.456  1.00  0.00     3.887 C  
HETATM   21  C   UNL     1      -7.823  10.206  70.805  1.00  0.00     0.861 C  
HETATM   22  N   UNL     1      -8.103  11.209  69.854  1.00  0.00     0.600 NA 
ENDROOT
BRANCH   3  23
HETATM   23  O   UNL     1     -10.883  10.202  71.935  1.00  0.00     0.805 OA 
BRANCH  23  24
HETATM   24  C   UNL     1     -12.081  10.853  71.974  1.00  0.00     0.926 C  
HETATM   25  O   UNL     1     -13.150  10.376  72.294  1.00  0.00    -0.397 OA 
BRANCH  24  26
HETATM   26  C   UNL     1     -11.825  12.342  71.617  1.00  0.00     1.634 C  
HETATM   27  C   UNL     1     -11.012  12.945  70.702  1.00  0.00     2.090 C  
BRANCH  27  28
HETATM   28  C   UNL     1     -10.944  14.441  70.372  1.00  0.00     0.142 A  
HETATM   29  C   UNL     1      -9.982  15.281  70.943  1.00  0.00     0.889 A  
HETATM   30  C   UNL     1     -11.868  15.086  69.506  1.00  0.00    -0.360 A  
HETATM   31  C   UNL     1     -11.812  16.488  69.213  1.00  0.00     0.307 A  
HETATM   32  C   UNL     1      -9.862  16.653  70.614  1.00  0.00     2.066 A  
HETATM   33  C   UNL     1     -10.786  17.280  69.760  1.00  0.00     0.395 A  
BRANCH  32  34
HETATM   34  O   UNL     1      -8.857  17.439  71.139  1.00  0.00     6.207 OA 
HETATM   35  C   UNL     1      -8.219  18.285  70.185  1.00  0.00     2.315 C  
ENDBRANCH  32  34
BRANCH  33  36
HETATM   36  O   UNL     1     -10.607  18.639  69.610  1.00  0.00     0.487 OA 
HETATM   37  C   UNL     1     -10.687  19.236  68.322  1.00  0.00    -0.040 C  
ENDBRANCH  33  36
BRANCH  31  38
HETATM   38  O   UNL     1     -12.728  17.155  68.443  1.00  0.00     2.206 OA 
HETATM   39  C   UNL     1     -12.629  17.134  67.033  1.00  0.00     4.880 C  
ENDBRANCH  31  38
ENDBRANCH  27  28
ENDBRANCH  24  26
ENDBRANCH  23  24
ENDBRANCH   3  23
BRANCH   5  40
HETATM   40  O   UNL     1     -10.078   7.094  73.636  1.00  0.00    -0.282 OA 
HETATM   41  C   UNL     1     -10.811   6.282  74.529  1.00  0.00     0.801 C  
ENDBRANCH   5  40
BRANCH   8  42
HETATM   42  C   UNL     1     -12.562   7.830  71.180  1.00  0.00    -0.198 C  
HETATM   43  O   UNL     1     -13.271   6.849  71.205  1.00  0.00    -0.311 OA 
BRANCH  42  44
HETATM   44  O   UNL     1     -13.022   9.124  71.059  1.00  0.00    -0.221 OA 
HETATM   45  C   UNL     1     -12.139  10.240  70.880  1.00  0.00    -0.368 C  
ENDBRANCH  42  44
ENDBRANCH   8  42
BRANCH   6  46
HETATM   46  O   UNL     1      -9.841  16.703  64.178  1.00  0.00     2.604 OA 
HETATM   47  C   UNL     1     -10.479  17.907  64.542  1.00  0.00     3.313 C  
ENDBRANCH   6  46
TORSDOF 11
ENDMDL
MODEL      125
REMARK 921   NORMALIZED FREE ENERGY PREDICTED BY IDOCK:   40.31 KCAL/MOL
REMARK 922        TOTAL FREE ENERGY PREDICTED BY IDOCK:   64.19 KCAL/MOL
REMARK 923 INTER-LIGAND FREE ENERGY PREDICTED BY IDOCK:   59.93 KCAL/MOL
REMARK 924 INTRA-LIGAND FREE ENERGY PREDICTED BY IDOCK:    4.26 KCAL/MOL
REMARK 927      BINDING AFFINITY PREDICTED BY RF-SCORE:    0.00 PKD
ROOT
HETATM    1  C   UNL     1     -10.237  12.725  71.295  1.00  0.00     8.386 C  
HETATM    2  C   UNL     1      -9.916  14.095  70.790  1.00  0.00     2.788 C  
HETATM    3  C   UNL     1      -9.181  14.006  69.382  1.00  0.00     0.592 C  
HETATM    4  C   UNL     1      -6.759   5.549  71.213  1.00  0.00    -0.052 A  
HETATM    5  C   UNL     1     -10.408  14.298  68.551  1.00  0.00    -0.244 C  
HETATM    6  C   UNL     1      -5.824   4.959  72.093  1.00  0.00    -0.016 A  
HETATM    7  C   UNL     1      -5.209   5.696  73.100  1.00  0.00    -0.022 A  
HETATM    8  C   UNL     1     -11.268  12.925  68.761  1.00  0.00    -0.323 C  
HETATM    9  C   UNL     1     -10.765  11.869  70.108  1.00  0.00     1.061 C  
HETATM   10  C   UNL     1      -5.499   7.046  73.255  1.00  0.00    -0.042 A  
HETATM   11  C   UNL     1      -6.434   7.643  72.390  1.00  0.00    -0.056 A  
HETATM   12  H   UNL     1      -8.546   7.489  69.943  1.00  0.00     0.000 HD 
HETATM   13  C   UNL     1      -7.067   6.909  71.394  1.00  0.00    -0.074 A  
HETATM   14  C   UNL     1      -9.998  10.428  70.188  1.00  0.00     0.086 C  
HETATM   15  N   UNL     1      -7.946   7.762  70.721  1.00  0.00    -0.099 NA 
HETATM   16  C   UNL     1      -7.883   9.023  71.264  1.00  0.00    -0.085 A  
HETATM   17  C   UNL     1      -6.896   8.954  72.257  1.00  0.00     0.069 A  
HETATM   18  C   UNL     1      -6.409  10.130  73.020  1.00  0.00     1.710 C  
HETATM   19  C   UNL     1      -8.534  10.356  70.826  1.00  0.00     1.885 C  
HETATM   20  C   UNL     1      -6.904  11.374  72.323  1.00  0.00     6.220 C  
HETATM   21  C   UNL     1      -8.930  12.473  72.011  1.00  0.00    21.115 C  
HETATM   22  N   UNL     1      -8.360  11.183  72.029  1.00  0.00    10.213 NA 
ENDROOT
BRANCH   3  23
HETATM   23  O   UNL     1      -8.820  12.648  68.756  1.00  0.00    -0.000 OA 
BRANCH  23  24
HETATM   24  C   UNL     1      -8.435  12.104  67.566  1.00  0.00    -0.169 C  
HETATM   25  O   UNL     1      -7.833  12.669  66.676  1.00  0.00     0.081 OA 
BRANCH  24  26
HETATM   26  C   UNL     1      -8.826  10.603  67.580  1.00  0.00    -0.131 C  
HETATM   27  C   UNL     1      -8.437   9.540  66.818  1.00  0.00    -0.129 C  
BRANCH  27  28
HETATM   28  C   UNL     1      -8.822   8.069  67.020  1.00  0.00    -0.143 A  
HETATM   29  C   UNL     1      -9.756   7.675  67.984  1.00  0.00    -0.173 A  
HETATM   30  C   UNL     1      -8.234   7.006  66.282  1.00  0.00    -0.120 A  
HETATM   31  C   UNL     1      -8.584   5.631  66.486  1.00  0.00    -0.119 A  
HETATM   32  C   UNL     1     -10.170   6.332  68.154  1.00  0.00    -0.169 A  
HETATM   33  C   UNL     1      -9.576   5.289  67.422  1.00  0.00    -0.134 A  
BRANCH  32  34
HETATM   34  O   UNL     1     -11.146   5.984  69.065  1.00  0.00    -0.351 OA 
HETATM   35  C   UNL     1     -10.821   6.297  70.418  1.00  0.00    -0.299 C  
ENDBRANCH  32  34
BRANCH  33  36
HETATM   36  O   UNL     1     -10.004   4.023  67.764  1.00  0.00    -0.084 OA 
HETATM   37  C   UNL     1      -9.384   3.320  68.832  1.00  0.00    -0.164 C  
ENDBRANCH  33  36
BRANCH  31  38
HETATM   38  O   UNL     1      -7.986   4.578  65.846  1.00  0.00    -0.097 OA 
HETATM   39  C   UNL     1      -7.190   3.659  66.567  1.00  0.00    -0.067 C  
ENDBRANCH  31  38
ENDBRANCH  27  28
ENDBRANCH  24  26
ENDBRANCH  23  24
ENDBRANCH   3  23
BRANCH   5  40
HETATM   40  O   UNL     1     -11.032  15.519  68.998  1.00  0.00    -0.230 OA 
HETATM   41  C   UNL     1     -11.835  15.484  70.159  1.00  0.00    -0.356 C  
ENDBRANCH   5  40
BRANCH   8  42
HETATM   42  C   UNL     1     -11.451  12.390  67.333  1.00  0.00    -0.352 C  
HETATM   43  O   UNL     1     -10.592  12.361  66.482  1.00  0.00    -0.231 OA 
BRANCH  42  44
HETATM   44  O   UNL     1     -12.735  11.915  67.165  1.00  0.00     0.989 OA 
HETATM   45  C   UNL     1     -13.092  10.553  67.434  1.00  0.00     9.288 C  
ENDBRANCH  42  44
ENDBRANCH   8  42
BRANCH   6  46
HETATM   46  O   UNL     1      -5.426   3.647  72.067  1.00  0.00    -0.006 OA 
HETATM   47  C   UNL     1      -5.808   2.887  70.941  1.00  0.00    -0.014 C  
ENDBRANCH   6  46
TORSDOF 11
ENDMDL
MODEL      126
REMARK 921   NORMALIZED FREE ENERGY PREDICTED BY IDOCK:   40.84 KCAL/MOL
REMARK 922        TOTAL FREE ENERGY PREDICTED BY IDOCK:   65.07 KCAL/MOL
REMARK 923 INTER-LIGAND FREE ENERGY PREDICTED BY IDOCK:   -0.99 KCAL/MOL
REMARK 924 INTRA-LIGAND FREE ENERGY PREDICTED BY IDOCK:   66.06 KCAL/MOL
REMARK 927      BINDING AFFINITY PREDICTED BY RF-SCORE:    0.00 PKD
ROOT
HETATM    1  C   UNL     1      -9.438   6.060  67.459  1.00  0.00    -0.113 C  
HETATM    2  C   UNL     1     -10.000   5.043  66.518  1.00  0.00    -0.249 C  
HETATM    3  C   UNL     1      -9.600   5.396  65.019  1.00  0.00     0.365 C  
HETATM    4  C   UNL     1      -8.221  13.940  67.434  1.00  0.00    -0.198 A  
HETATM    5  C   UNL     1      -8.451   4.420  64.935  1.00  0.00    -0.126 C  
HETATM    6  C   UNL     1      -9.068  15.014  67.793  1.00  0.00    -0.180 A  
HETATM    7  C   UNL     1     -10.416  14.812  68.074  1.00  0.00    -0.246 A  
HETATM    8  C   UNL     1      -7.362   5.123  65.930  1.00  0.00    -0.081 C  
HETATM    9  C   UNL     1      -7.983   6.393  67.019  1.00  0.00    -0.109 C  
HETATM   10  C   UNL     1     -10.964  13.538  67.996  1.00  0.00    -0.271 A  
HETATM   11  C   UNL     1     -10.129  12.461  67.646  1.00  0.00    -0.199 A  
HETATM   12  H   UNL     1      -7.235  11.245  66.860  1.00  0.00     0.000 HD 
HETATM   13  C   UNL     1      -8.777  12.651  67.383  1.00  0.00    -0.191 A  
HETATM   14  C   UNL     1      -7.841   8.020  67.055  1.00  0.00    -0.104 C  
HETATM   15  N   UNL     1      -8.215  11.406  67.089  1.00  0.00    -0.150 NA 
HETATM   16  C   UNL     1      -9.180  10.429  67.155  1.00  0.00    -0.143 A  
HETATM   17  C   UNL     1     -10.376  11.103  67.439  1.00  0.00    -0.231 A  
HETATM   18  C   UNL     1     -11.705  10.444  67.476  1.00  0.00     0.708 C  
HETATM   19  C   UNL     1      -9.134   8.924  66.799  1.00  0.00    -0.143 C  
HETATM   20  C   UNL     1     -11.565   9.076  66.853  1.00  0.00     2.800 C  
HETATM   21  C   UNL     1     -10.590   7.036  67.398  1.00  0.00    -0.302 C  
HETATM   22  N   UNL     1     -10.354   8.425  67.450  1.00  0.00    -0.263 NA 
ENDROOT
BRANCH   3  23
HETATM   23  O   UNL     1      -8.815   6.677  64.685  1.00  0.00     0.264 OA 
BRANCH  23  24
HETATM   24  C   UNL     1      -8.782   8.005  64.994  1.00  0.00     0.070 C  
HETATM   25  O   UNL     1      -9.029   8.926  64.243  1.00  0.00    -0.071 OA 
BRANCH  24  26
HETATM   26  C   UNL     1      -8.457   8.133  66.506  1.00  0.00    -0.132 C  
HETATM   27  C   UNL     1      -8.303   7.210  67.499  1.00  0.00    -0.116 C  
BRANCH  27  28
HETATM   28  C   UNL     1      -7.861   7.474  68.944  1.00  0.00    -0.124 A  
HETATM   29  C   UNL     1      -8.595   7.004  70.038  1.00  0.00    -0.141 A  
HETATM   30  C   UNL     1      -6.710   8.239  69.274  1.00  0.00    -0.043 A  
HETATM   31  C   UNL     1      -6.310   8.497  70.626  1.00  0.00    -0.037 A  
HETATM   32  C   UNL     1      -8.181   7.184  71.380  1.00  0.00    -0.107 A  
HETATM   33  C   UNL     1      -7.044   7.950  71.694  1.00  0.00    -0.067 A  
BRANCH  32  34
HETATM   34  O   UNL     1      -8.889   6.647  72.435  1.00  0.00    -0.133 OA 
HETATM   35  C   UNL     1      -8.937   5.222  72.441  1.00  0.00    -0.131 C  
ENDBRANCH  32  34
BRANCH  33  36
HETATM   36  O   UNL     1      -6.819   8.126  73.043  1.00  0.00    -0.093 OA 
HETATM   37  C   UNL     1      -5.846   7.338  73.718  1.00  0.00    -0.057 C  
ENDBRANCH  33  36
BRANCH  31  38
HETATM   38  O   UNL     1      -5.252   9.291  70.982  1.00  0.00    -0.028 OA 
HETATM   39  C   UNL     1      -5.470  10.534  71.618  1.00  0.00     0.109 C  
ENDBRANCH  31  38
ENDBRANCH  27  28
ENDBRANCH  24  26
ENDBRANCH  23  24
ENDBRANCH   3  23
BRANCH   5  40
HETATM   40  O   UNL     1      -8.893   3.097  65.303  1.00  0.00    -0.123 OA 
HETATM   41  C   UNL     1      -7.973   2.029  65.221  1.00  0.00    -0.078 C  
ENDBRANCH   5  40
BRANCH   8  42
HETATM   42  C   UNL     1      -6.141   5.353  65.027  1.00  0.00    -0.026 C  
HETATM   43  O   UNL     1      -5.796   4.630  64.120  1.00  0.00    -0.017 OA 
BRANCH  42  44
HETATM   44  O   UNL     1      -5.505   6.525  65.378  1.00  0.00    -0.020 OA 
HETATM   45  C   UNL     1      -5.863   7.793  64.811  1.00  0.00    -0.038 C  
ENDBRANCH  42  44
ENDBRANCH   8  42
BRANCH   6  46
HETATM   46  O   UNL     1      -8.684  16.326  67.908  1.00  0.00    -0.173 OA 
HETATM   47  C   UNL     1      -9.444  17.276  67.193  1.00  0.00    -0.256 C  
ENDBRANCH   6  46
TORSDOF 11
ENDMDL
MODEL      127
REMARK 921   NORMALIZED FREE ENERGY PREDICTED BY IDOCK:   44.06 KCAL/MOL
REMARK 922        TOTAL FREE ENERGY PREDICTED BY IDOCK:   70.36 KCAL/MOL
REMARK 923 INTER-LIGAND FREE ENERGY PREDICTED BY IDOCK:   57.83 KCAL/MOL
REMARK 924 INTRA-LIGAND FREE ENERGY PREDICTED BY IDOCK:   12.53 KCAL/MOL
REMARK 927      BINDING AFFINITY PREDICTED BY RF-SCORE:    0.00 PKD
ROOT
HETATM    1  C   UNL     1      -7.786   9.395  69.134  1.00  0.00    -0.080 C  
HETATM    2  C   UNL     1      -7.727   8.745  70.479  1.00  0.00    -0.089 C  
HETATM    3  C   UNL     1      -9.137   8.856  71.208  1.00  0.00    -0.253 C  
HETATM    4  C   UNL     1     -11.283  15.808  65.935  1.00  0.00     0.004 A  
HETATM    5  C   UNL     1      -9.593   7.457  70.869  1.00  0.00    -0.166 C  
HETATM    6  C   UNL     1     -10.863  17.155  65.858  1.00  0.00    -0.017 A  
HETATM    7  C   UNL     1      -9.741  17.606  66.546  1.00  0.00    -0.310 A  
HETATM    8  C   UNL     1      -9.843   7.584  69.260  1.00  0.00    -0.170 C  
HETATM    9  C   UNL     1      -9.132   9.009  68.454  1.00  0.00    -0.133 C  
HETATM   10  C   UNL     1      -9.008  16.731  67.339  1.00  0.00    -0.211 A  
HETATM   11  C   UNL     1      -9.412  15.386  67.417  1.00  0.00    -0.207 A  
HETATM   12  H   UNL     1     -11.383  12.957  66.589  1.00  0.00     0.000 HD 
HETATM   13  C   UNL     1     -10.521  14.923  66.718  1.00  0.00    -0.284 A  
HETATM   14  C   UNL     1      -9.756  10.385  67.831  1.00  0.00    -0.168 C  
HETATM   15  N   UNL     1     -10.655  13.557  66.976  1.00  0.00    -0.268 NA 
HETATM   16  C   UNL     1      -9.659  13.140  67.827  1.00  0.00    -0.208 A  
HETATM   17  C   UNL     1      -8.932  14.296  68.145  1.00  0.00    -0.189 A  
HETATM   18  C   UNL     1      -7.832  14.330  69.141  1.00  0.00     0.018 C  
HETATM   19  C   UNL     1      -9.418  11.783  68.528  1.00  0.00    -0.163 C  
HETATM   20  C   UNL     1      -7.882  13.048  69.934  1.00  0.00     1.857 C  
HETATM   21  C   UNL     1      -7.428  10.794  69.580  1.00  0.00    -0.110 C  
HETATM   22  N   UNL     1      -8.019  11.915  68.962  1.00  0.00     0.054 NA 
ENDROOT
BRANCH   3  23
HETATM   23  O   UNL     1     -10.308   9.622  70.567  1.00  0.00    -0.263 OA 
BRANCH  23  24
HETATM   24  C   UNL     1     -11.455  10.275  70.910  1.00  0.00    -0.339 C  
HETATM   25  O   UNL     1     -12.533   9.766  71.139  1.00  0.00    -0.314 OA 
BRANCH  24  26
HETATM   26  C   UNL     1     -11.122  11.785  71.040  1.00  0.00     2.394 C  
HETATM   27  C   UNL     1     -10.849  12.752  70.118  1.00  0.00     1.098 C  
BRANCH  27  28
HETATM   28  C   UNL     1     -10.650  14.250  70.383  1.00  0.00     0.698 A  
HETATM   29  C   UNL     1      -9.426  14.767  70.822  1.00  0.00     1.890 A  
HETATM   30  C   UNL     1     -11.692  15.207  70.244  1.00  0.00    -0.338 A  
HETATM   31  C   UNL     1     -11.506  16.603  70.509  1.00  0.00     0.201 A  
HETATM   32  C   UNL     1      -9.199  16.150  71.021  1.00  0.00     3.564 A  
HETATM   33  C   UNL     1     -10.240  17.085  70.886  1.00  0.00     2.230 A  
BRANCH  32  34
HETATM   34  O   UNL     1      -7.960  16.635  71.385  1.00  0.00     6.041 OA 
HETATM   35  C   UNL     1      -7.088  15.653  71.940  1.00  0.00     4.152 C  
ENDBRANCH  32  34
BRANCH  33  36
HETATM   36  O   UNL     1      -9.899  18.382  71.209  1.00  0.00     3.615 OA 
HETATM   37  C   UNL     1      -9.175  18.658  72.401  1.00  0.00     9.709 C  
ENDBRANCH  33  36
BRANCH  31  38
HETATM   38  O   UNL     1     -12.504  17.540  70.457  1.00  0.00     5.168 OA 
HETATM   39  C   UNL     1     -13.532  17.439  69.492  1.00  0.00    11.162 C  
ENDBRANCH  31  38
ENDBRANCH  27  28
ENDBRANCH  24  26
ENDBRANCH  23  24
ENDBRANCH   3  23
BRANCH   5  40
HETATM   40  O   UNL     1      -8.604   6.495  71.289  1.00  0.00    -0.126 OA 
HETATM   41  C   UNL     1      -8.794   5.137  70.950  1.00  0.00    -0.134 C  
ENDBRANCH   5  40
BRANCH   8  42
HETATM   42  C   UNL     1     -11.324   7.212  69.092  1.00  0.00     0.135 C  
HETATM   43  O   UNL     1     -11.833   6.815  68.068  1.00  0.00     0.632 OA 
BRANCH  42  44
HETATM   44  O   UNL     1     -11.991   7.365  70.288  1.00  0.00    -0.098 OA 
HETATM   45  C   UNL     1     -11.954   6.371  71.322  1.00  0.00    -0.227 C  
ENDBRANCH  42  44
ENDBRANCH   8  42
BRANCH   6  46
HETATM   46  O   UNL     1     -11.479  18.140  65.129  1.00  0.00     0.309 OA 
HETATM   47  C   UNL     1     -12.206  17.730  63.991  1.00  0.00     7.759 C  
ENDBRANCH   6  46
TORSDOF 11
ENDMDL
MODEL      128
REMARK 921   NORMALIZED FREE ENERGY PREDICTED BY IDOCK:   46.43 KCAL/MOL
REMARK 922        TOTAL FREE ENERGY PREDICTED BY IDOCK:   74.25 KCAL/MOL
REMARK 923 INTER-LIGAND FREE ENERGY PREDICTED BY IDOCK:   36.38 KCAL/MOL
REMARK 924 INTRA-LIGAND FREE ENERGY PREDICTED BY IDOCK:   37.87 KCAL/MOL
REMARK 927      BINDING AFFINITY PREDICTED BY RF-SCORE:    0.00 PKD
ROOT
HETATM    1  C   UNL     1      -8.996  16.210  71.414  1.00  0.00     5.610 C  
HETATM    2  C   UNL     1      -8.478  17.611  71.392  1.00  0.00     9.772 C  
HETATM    3  C   UNL     1      -7.957  17.986  69.936  1.00  0.00     1.452 C  
HETATM    4  C   UNL     1      -7.040   9.248  68.052  1.00  0.00    -0.078 A  
HETATM    5  C   UNL     1      -9.196  18.741  69.522  1.00  0.00     0.419 C  
HETATM    6  C   UNL     1      -6.137   8.240  68.458  1.00  0.00    -0.045 A  
HETATM    7  C   UNL     1      -5.267   8.433  69.527  1.00  0.00    -0.030 A  
HETATM    8  C   UNL     1     -10.278  17.525  69.376  1.00  0.00    -0.089 C  
HETATM    9  C   UNL     1      -9.827  15.967  70.121  1.00  0.00     0.297 C  
HETATM   10  C   UNL     1      -5.263   9.638  70.217  1.00  0.00    -0.028 A  
HETATM   11  C   UNL     1      -6.163  10.646  69.826  1.00  0.00    -0.085 A  
HETATM   12  H   UNL     1      -8.554  11.751  67.946  1.00  0.00     0.000 HD 
HETATM   13  C   UNL     1      -7.049  10.455  68.772  1.00  0.00    -0.074 A  
HETATM   14  C   UNL     1      -9.356  14.522  69.521  1.00  0.00     0.288 C  
HETATM   15  N   UNL     1      -7.820  11.613  68.639  1.00  0.00    -0.142 NA 
HETATM   16  C   UNL     1      -7.441  12.538  69.582  1.00  0.00     0.792 A  
HETATM   17  C   UNL     1      -6.371  11.953  70.272  1.00  0.00     0.081 A  
HETATM   18  C   UNL     1      -5.569  12.659  71.303  1.00  0.00     0.025 C  
HETATM   19  C   UNL     1      -7.866  14.011  69.795  1.00  0.00     0.716 C  
HETATM   20  C   UNL     1      -5.893  14.130  71.218  1.00  0.00    -0.206 C  
HETATM   21  C   UNL     1      -7.685  15.524  71.723  1.00  0.00     5.134 C  
HETATM   22  N   UNL     1      -7.383  14.267  71.160  1.00  0.00     1.668 NA 
ENDROOT
BRANCH   3  23
HETATM   23  O   UNL     1      -7.952  16.947  68.801  1.00  0.00    -0.242 OA 
BRANCH  23  24
HETATM   24  C   UNL     1      -7.200  15.918  68.316  1.00  0.00    -0.116 C  
HETATM   25  O   UNL     1      -6.000  15.926  68.131  1.00  0.00    -0.107 OA 
BRANCH  24  26
HETATM   26  C   UNL     1      -8.136  14.696  68.122  1.00  0.00    -0.137 C  
HETATM   27  C   UNL     1      -9.000  14.052  68.959  1.00  0.00     0.167 C  
BRANCH  27  28
HETATM   28  C   UNL     1      -9.963  12.914  68.596  1.00  0.00    -0.099 A  
HETATM   29  C   UNL     1     -10.399  11.985  69.546  1.00  0.00     0.483 A  
HETATM   30  C   UNL     1     -10.443  12.698  67.276  1.00  0.00    -0.237 A  
HETATM   31  C   UNL     1     -11.329  11.623  66.938  1.00  0.00    -0.295 A  
HETATM   32  C   UNL     1     -11.330  10.959  69.251  1.00  0.00    -0.277 A  
HETATM   33  C   UNL     1     -11.793  10.751  67.940  1.00  0.00     0.228 A  
BRANCH  32  34
HETATM   34  O   UNL     1     -11.797  10.102  70.227  1.00  0.00    -0.266 OA 
HETATM   35  C   UNL     1     -12.159  10.747  71.446  1.00  0.00    -0.195 C  
ENDBRANCH  32  34
BRANCH  33  36
HETATM   36  O   UNL     1     -12.615   9.655  67.782  1.00  0.00     4.307 OA 
HETATM   37  C   UNL     1     -12.903   8.809  68.888  1.00  0.00     5.968 C  
ENDBRANCH  33  36
BRANCH  31  38
HETATM   38  O   UNL     1     -11.753  11.340  65.666  1.00  0.00    -0.017 OA 
HETATM   39  C   UNL     1     -11.362  12.159  64.582  1.00  0.00    -0.326 C  
ENDBRANCH  31  38
ENDBRANCH  27  28
ENDBRANCH  24  26
ENDBRANCH  23  24
ENDBRANCH   3  23
BRANCH   5  40
HETATM   40  O   UNL     1      -9.507  19.761  70.494  1.00  0.00     0.756 OA 
HETATM   41  C   UNL     1     -10.755  20.415  70.413  1.00  0.00     1.866 C  
ENDBRANCH   5  40
BRANCH   8  42
HETATM   42  C   UNL     1     -10.740  17.624  67.915  1.00  0.00    -0.337 C  
HETATM   43  O   UNL     1     -11.644  16.986  67.424  1.00  0.00     0.398 OA 
BRANCH  42  44
HETATM   44  O   UNL     1      -9.995  18.569  67.244  1.00  0.00    -0.305 OA 
HETATM   45  C   UNL     1      -8.803  18.236  66.519  1.00  0.00    -0.271 C  
ENDBRANCH  42  44
ENDBRANCH   8  42
BRANCH   6  46
HETATM   46  O   UNL     1      -6.012   7.003  67.879  1.00  0.00    -0.026 OA 
HETATM   47  C   UNL     1      -5.237   6.925  66.703  1.00  0.00    -0.017 C  
ENDBRANCH   6  46
TORSDOF 11
ENDMDL
MODEL      129
REMARK 921   NORMALIZED FREE ENERGY PREDICTED BY IDOCK:   46.84 KCAL/MOL
REMARK 922        TOTAL FREE ENERGY PREDICTED BY IDOCK:   74.93 KCAL/MOL
REMARK 923 INTER-LIGAND FREE ENERGY PREDICTED BY IDOCK:    7.73 KCAL/MOL
REMARK 924 INTRA-LIGAND FREE ENERGY PREDICTED BY IDOCK:   67.20 KCAL/MOL
REMARK 927      BINDING AFFINITY PREDICTED BY RF-SCORE:    0.00 PKD
ROOT
HETATM    1  C   UNL     1      -6.551   4.583  70.270  1.00  0.00    -0.035 C  
HETATM    2  C   UNL     1      -6.913   3.923  71.561  1.00  0.00    -0.031 C  
HETATM    3  C   UNL     1      -8.463   4.116  71.866  1.00  0.00    -0.104 C  
HETATM    4  C   UNL     1      -8.623  11.222  66.369  1.00  0.00    -0.174 A  
HETATM    5  C   UNL     1      -8.885   2.751  71.378  1.00  0.00    -0.078 C  
HETATM    6  C   UNL     1      -8.121  12.542  66.446  1.00  0.00     0.439 A  
HETATM    7  C   UNL     1      -7.215  12.917  67.433  1.00  0.00    -0.130 A  
HETATM    8  C   UNL     1      -8.661   2.904  69.767  1.00  0.00    -0.130 C  
HETATM    9  C   UNL     1      -7.670   4.287  69.230  1.00  0.00    -0.054 C  
HETATM   10  C   UNL     1      -6.789  11.993  68.379  1.00  0.00    -0.072 A  
HETATM   11  C   UNL     1      -7.275  10.676  68.308  1.00  0.00    -0.083 A  
HETATM   12  H   UNL     1      -9.069   8.379  66.900  1.00  0.00     0.000 HD 
HETATM   13  C   UNL     1      -8.166  10.287  67.313  1.00  0.00    -0.121 A  
HETATM   14  C   UNL     1      -8.012   5.702  68.489  1.00  0.00    -0.100 C  
HETATM   15  N   UNL     1      -8.446   8.930  67.490  1.00  0.00    -0.116 NA 
HETATM   16  C   UNL     1      -7.758   8.447  68.577  1.00  0.00    -0.104 A  
HETATM   17  C   UNL     1      -7.084   9.553  69.115  1.00  0.00    -0.062 A  
HETATM   18  C   UNL     1      -6.311   9.512  70.382  1.00  0.00    -0.073 C  
HETATM   19  C   UNL     1      -7.804   7.072  69.286  1.00  0.00    -0.114 C  
HETATM   20  C   UNL     1      -6.658   8.230  71.098  1.00  0.00    -0.046 C  
HETATM   21  C   UNL     1      -6.254   5.954  70.832  1.00  0.00    -0.035 C  
HETATM   22  N   UNL     1      -6.580   7.115  70.100  1.00  0.00    -0.046 NA 
ENDROOT
BRANCH   3  23
HETATM   23  O   UNL     1      -9.357   4.957  70.939  1.00  0.00    -0.139 OA 
BRANCH  23  24
HETATM   24  C   UNL     1     -10.650   5.040  70.510  1.00  0.00    -0.080 C  
HETATM   25  O   UNL     1     -11.502   4.183  70.621  1.00  0.00     3.247 OA 
BRANCH  24  26
HETATM   26  C   UNL     1     -10.868   6.462  69.929  1.00  0.00    -0.370 C  
HETATM   27  C   UNL     1     -10.334   7.678  70.240  1.00  0.00    -0.214 C  
BRANCH  27  28
HETATM   28  C   UNL     1     -10.555   9.002  69.497  1.00  0.00    -0.231 A  
HETATM   29  C   UNL     1     -11.740   9.733  69.628  1.00  0.00     0.049 A  
HETATM   30  C   UNL     1      -9.603   9.554  68.599  1.00  0.00    -0.151 A  
HETATM   31  C   UNL     1      -9.821  10.783  67.893  1.00  0.00    -0.167 A  
HETATM   32  C   UNL     1     -11.949  10.984  68.998  1.00  0.00    -0.293 A  
HETATM   33  C   UNL     1     -11.001  11.517  68.106  1.00  0.00    -0.228 A  
BRANCH  32  34
HETATM   34  O   UNL     1     -13.101  11.716  69.204  1.00  0.00     0.785 OA 
HETATM   35  C   UNL     1     -13.033  12.610  70.313  1.00  0.00     0.523 C  
ENDBRANCH  32  34
BRANCH  33  36
HETATM   36  O   UNL     1     -11.382  12.690  67.489  1.00  0.00    -0.271 OA 
HETATM   37  C   UNL     1     -12.631  13.294  67.802  1.00  0.00     0.691 C  
ENDBRANCH  33  36
BRANCH  31  38
HETATM   38  O   UNL     1      -8.959  11.307  66.966  1.00  0.00    -0.149 OA 
HETATM   39  C   UNL     1      -8.645  10.585  65.792  1.00  0.00    -0.173 C  
ENDBRANCH  31  38
ENDBRANCH  27  28
ENDBRANCH  24  26
ENDBRANCH  23  24
ENDBRANCH   3  23
BRANCH   5  40
HETATM   40  O   UNL     1      -8.112   1.726  72.037  1.00  0.00    -0.044 OA 
HETATM   41  C   UNL     1      -7.478   2.038  73.260  1.00  0.00    -0.037 C  
ENDBRANCH   5  40
BRANCH   8  42
HETATM   42  C   UNL     1     -10.053   2.625  69.180  1.00  0.00     0.991 C  
HETATM   43  O   UNL     1     -10.931   2.000  69.730  1.00  0.00     3.139 OA 
BRANCH  42  44
HETATM   44  O   UNL     1     -10.172   3.216  67.940  1.00  0.00     0.684 OA 
HETATM   45  C   UNL     1      -9.559   2.669  66.765  1.00  0.00     0.212 C  
ENDBRANCH  42  44
ENDBRANCH   8  42
BRANCH   6  46
HETATM   46  O   UNL     1      -8.447  13.568  65.596  1.00  0.00     1.438 OA 
HETATM   47  C   UNL     1      -9.299  14.571  66.105  1.00  0.00    -0.209 C  
ENDBRANCH   6  46
TORSDOF 11
ENDMDL
MODEL      130
REMARK 921   NORMALIZED FREE ENERGY PREDICTED BY IDOCK:   47.40 KCAL/MOL
REMARK 922        TOTAL FREE ENERGY PREDICTED BY IDOCK:   75.84 KCAL/MOL
REMARK 923 INTER-LIGAND FREE ENERGY PREDICTED BY IDOCK:   60.73 KCAL/MOL
REMARK 924 INTRA-LIGAND FREE ENERGY PREDICTED BY IDOCK:   15.11 KCAL/MOL
REMARK 927      BINDING AFFINITY PREDICTED BY RF-SCORE:    0.00 PKD
ROOT
HETATM    1  C   UNL     1      -9.324   6.888  65.868  1.00  0.00     0.058 C  
HETATM    2  C   UNL     1      -8.919   5.456  66.010  1.00  0.00    -0.147 C  
HETATM    3  C   UNL     1      -8.744   5.081  67.546  1.00  0.00    -0.103 C  
HETATM    4  C   UNL     1      -7.655  13.780  69.516  1.00  0.00     0.419 A  
HETATM    5  C   UNL     1     -10.092   4.416  67.694  1.00  0.00     0.023 C  
HETATM    6  C   UNL     1      -6.619  14.718  69.303  1.00  0.00    -0.128 A  
HETATM    7  C   UNL     1      -5.558  14.446  68.445  1.00  0.00    -0.107 A  
HETATM    8  C   UNL     1     -11.094   5.703  67.597  1.00  0.00     0.209 C  
HETATM    9  C   UNL     1     -10.392   7.212  66.953  1.00  0.00    -0.349 C  
HETATM   10  C   UNL     1      -5.491  13.227  67.781  1.00  0.00    -0.098 A  
HETATM   11  C   UNL     1      -6.520  12.289  67.979  1.00  0.00    -0.076 A  
HETATM   12  H   UNL     1      -9.323  11.383  69.317  1.00  0.00     0.000 HD 
HETATM   13  C   UNL     1      -7.593  12.561  68.820  1.00  0.00    -0.024 A  
HETATM   14  C   UNL     1      -9.960   8.636  67.629  1.00  0.00    -0.248 C  
HETATM   15  N   UNL     1      -8.451  11.458  68.794  1.00  0.00    -0.129 NA 
HETATM   16  C   UNL     1      -7.946  10.490  67.960  1.00  0.00    -0.106 A  
HETATM   17  C   UNL     1      -6.716  10.989  67.509  1.00  0.00    -0.072 A  
HETATM   18  C   UNL     1      -5.765  10.211  66.677  1.00  0.00    -0.051 C  
HETATM   19  C   UNL     1      -8.416   9.044  67.673  1.00  0.00    -0.117 C  
HETATM   20  C   UNL     1      -6.198   8.765  66.703  1.00  0.00    -0.058 C  
HETATM   21  C   UNL     1      -7.934   7.480  65.839  1.00  0.00    -0.117 C  
HETATM   22  N   UNL     1      -7.674   8.727  66.444  1.00  0.00    -0.097 NA 
ENDROOT
BRANCH   3  23
HETATM   23  O   UNL     1      -8.909   6.141  68.649  1.00  0.00    -0.115 OA 
BRANCH  23  24
HETATM   24  C   UNL     1      -9.455   6.297  69.889  1.00  0.00    -0.149 C  
HETATM   25  O   UNL     1      -9.429   5.490  70.795  1.00  0.00    -0.158 OA 
BRANCH  24  26
HETATM   26  C   UNL     1     -10.046   7.730  69.971  1.00  0.00    -0.201 C  
HETATM   27  C   UNL     1     -11.280   8.201  70.314  1.00  0.00    -0.182 C  
BRANCH  27  28
HETATM   28  C   UNL     1     -11.698   9.669  70.467  1.00  0.00    -0.312 A  
HETATM   29  C   UNL     1     -11.299  10.440  71.564  1.00  0.00     0.425 A  
HETATM   30  C   UNL     1     -12.545  10.334  69.540  1.00  0.00     0.398 A  
HETATM   31  C   UNL     1     -12.947  11.701  69.696  1.00  0.00     0.868 A  
HETATM   32  C   UNL     1     -11.623  11.811  71.702  1.00  0.00     2.463 A  
HETATM   33  C   UNL     1     -12.468  12.456  70.781  1.00  0.00    -0.267 A  
BRANCH  32  34
HETATM   34  O   UNL     1     -11.154  12.564  72.759  1.00  0.00     7.856 OA 
HETATM   35  C   UNL     1     -12.179  13.131  73.573  1.00  0.00     4.484 C  
ENDBRANCH  32  34
BRANCH  33  36
HETATM   36  O   UNL     1     -12.780  13.762  71.096  1.00  0.00    -0.337 OA 
HETATM   37  C   UNL     1     -13.368  14.075  72.353  1.00  0.00    -0.518 C  
ENDBRANCH  33  36
BRANCH  31  38
HETATM   38  O   UNL     1     -13.820  12.351  68.863  1.00  0.00     5.134 OA 
HETATM   39  C   UNL     1     -13.882  13.763  68.851  1.00  0.00     6.728 C  
ENDBRANCH  31  38
ENDBRANCH  27  28
ENDBRANCH  24  26
ENDBRANCH  23  24
ENDBRANCH   3  23
BRANCH   5  40
HETATM   40  O   UNL     1     -10.258   3.398  66.685  1.00  0.00     0.476 OA 
HETATM   41  C   UNL     1     -11.563   2.944  66.392  1.00  0.00     9.434 C  
ENDBRANCH   5  40
BRANCH   8  42
HETATM   42  C   UNL     1     -11.861   5.667  68.927  1.00  0.00     2.644 C  
HETATM   43  O   UNL     1     -11.356   5.580  70.023  1.00  0.00    -0.023 OA 
BRANCH  42  44
HETATM   44  O   UNL     1     -13.216   5.777  68.697  1.00  0.00     9.559 OA 
HETATM   45  C   UNL     1     -13.956   6.963  69.016  1.00  0.00    12.380 C  
ENDBRANCH  42  44
ENDBRANCH   8  42
BRANCH   6  46
HETATM   46  O   UNL     1      -6.536  15.957  69.886  1.00  0.00    -0.170 OA 
HETATM   47  C   UNL     1      -7.753  16.616  70.157  1.00  0.00     1.629 C  
ENDBRANCH   6  46
TORSDOF 11
ENDMDL
MODEL      131
REMARK 921   NORMALIZED FREE ENERGY PREDICTED BY IDOCK:   50.30 KCAL/MOL
REMARK 922        TOTAL FREE ENERGY PREDICTED BY IDOCK:   80.60 KCAL/MOL
REMARK 923 INTER-LIGAND FREE ENERGY PREDICTED BY IDOCK:   44.00 KCAL/MOL
REMARK 924 INTRA-LIGAND FREE ENERGY PREDICTED BY IDOCK:   36.61 KCAL/MOL
REMARK 927      BINDING AFFINITY PREDICTED BY RF-SCORE:    0.00 PKD
ROOT
HETATM    1  C   UNL     1     -10.075   7.032  68.805  1.00  0.00    -0.170 C  
HETATM    2  C   UNL     1     -10.509   6.492  67.481  1.00  0.00    -0.297 C  
HETATM    3  C   UNL     1     -10.272   7.574  66.339  1.00  0.00     0.048 C  
HETATM    4  C   UNL     1     -10.261  14.073  72.544  1.00  0.00     6.961 A  
HETATM    5  C   UNL     1      -8.977   6.982  65.835  1.00  0.00    -0.062 C  
HETATM    6  C   UNL     1     -11.258  14.675  73.345  1.00  0.00     1.306 A  
HETATM    7  C   UNL     1     -12.530  14.121  73.459  1.00  0.00     0.340 A  
HETATM    8  C   UNL     1      -7.968   7.323  67.073  1.00  0.00    -0.109 C  
HETATM    9  C   UNL     1      -8.732   7.793  68.616  1.00  0.00    -0.128 C  
HETATM   10  C   UNL     1     -12.850  12.957  72.772  1.00  0.00     0.673 A  
HETATM   11  C   UNL     1     -11.863  12.345  71.978  1.00  0.00     2.550 A  
HETATM   12  H   UNL     1      -8.856  12.196  70.791  1.00  0.00     0.000 HD 
HETATM   13  C   UNL     1     -10.585  12.881  71.874  1.00  0.00     9.173 A  
HETATM   14  C   UNL     1      -8.875   9.208  69.421  1.00  0.00    -0.146 C  
HETATM   15  N   UNL     1      -9.833  12.047  71.042  1.00  0.00     6.777 NA 
HETATM   16  C   UNL     1     -10.606  10.995  70.611  1.00  0.00     1.352 A  
HETATM   17  C   UNL     1     -11.881  11.223  71.146  1.00  0.00     0.092 A  
HETATM   18  C   UNL     1     -13.070  10.392  70.830  1.00  0.00    -0.412 C  
HETATM   19  C   UNL     1     -10.320   9.871  69.587  1.00  0.00    -0.241 C  
HETATM   20  C   UNL     1     -12.732   9.530  69.639  1.00  0.00     1.505 C  
HETATM   21  C   UNL     1     -11.382   7.691  69.181  1.00  0.00     0.411 C  
HETATM   22  N   UNL     1     -11.391   8.910  69.891  1.00  0.00    -0.068 NA 
ENDROOT
BRANCH   3  23
HETATM   23  O   UNL     1      -9.746   8.981  66.672  1.00  0.00    -0.189 OA 
BRANCH  23  24
HETATM   24  C   UNL     1      -8.739   9.838  66.336  1.00  0.00    -0.131 C  
HETATM   25  O   UNL     1      -7.785   9.587  65.628  1.00  0.00    -0.098 OA 
BRANCH  24  26
HETATM   26  C   UNL     1      -9.070  11.224  66.949  1.00  0.00    -0.172 C  
HETATM   27  C   UNL     1     -10.222  11.764  67.442  1.00  0.00    -0.220 C  
BRANCH  27  28
HETATM   28  C   UNL     1     -10.382  13.124  68.134  1.00  0.00    -0.247 A  
HETATM   29  C   UNL     1     -10.092  13.300  69.492  1.00  0.00     0.800 A  
HETATM   30  C   UNL     1     -10.870  14.280  67.468  1.00  0.00    -0.284 A  
HETATM   31  C   UNL     1     -11.035  15.544  68.123  1.00  0.00    -0.312 A  
HETATM   32  C   UNL     1     -10.177  14.555  70.142  1.00  0.00     0.524 A  
HETATM   33  C   UNL     1     -10.668  15.690  69.473  1.00  0.00    -0.271 A  
BRANCH  32  34
HETATM   34  O   UNL     1      -9.815  14.712  71.464  1.00  0.00     2.225 OA 
HETATM   35  C   UNL     1      -8.461  15.118  71.655  1.00  0.00     4.801 C  
ENDBRANCH  32  34
BRANCH  33  36
HETATM   36  O   UNL     1     -10.792  16.817  70.258  1.00  0.00    -0.214 OA 
HETATM   37  C   UNL     1     -11.979  17.598  70.209  1.00  0.00     5.281 C  
ENDBRANCH  33  36
BRANCH  31  38
HETATM   38  O   UNL     1     -11.571  16.658  67.532  1.00  0.00     0.201 OA 
HETATM   39  C   UNL     1     -11.036  17.155  66.322  1.00  0.00     0.414 C  
ENDBRANCH  31  38
ENDBRANCH  27  28
ENDBRANCH  24  26
ENDBRANCH  23  24
ENDBRANCH   3  23
BRANCH   5  40
HETATM   40  O   UNL     1      -9.157   5.586  65.521  1.00  0.00    -0.155 OA 
HETATM   41  C   UNL     1      -9.716   5.240  64.271  1.00  0.00     0.796 C  
ENDBRANCH   5  40
BRANCH   8  42
HETATM   42  C   UNL     1      -6.866   8.170  66.421  1.00  0.00    -0.066 C  
HETATM   43  O   UNL     1      -6.000   8.769  67.017  1.00  0.00    -0.054 OA 
BRANCH  42  44
HETATM   44  O   UNL     1      -6.985   8.128  65.048  1.00  0.00    -0.067 OA 
HETATM   45  C   UNL     1      -7.231   9.301  64.261  1.00  0.00    -0.101 C  
ENDBRANCH  42  44
ENDBRANCH   8  42
BRANCH   6  46
HETATM   46  O   UNL     1     -11.104  15.825  74.077  1.00  0.00     1.430 OA 
HETATM   47  C   UNL     1     -11.577  17.019  73.494  1.00  0.00     0.549 C  
ENDBRANCH   6  46
TORSDOF 11
ENDMDL
MODEL      132
REMARK 921   NORMALIZED FREE ENERGY PREDICTED BY IDOCK:   57.54 KCAL/MOL
REMARK 922        TOTAL FREE ENERGY PREDICTED BY IDOCK:   92.49 KCAL/MOL
REMARK 923 INTER-LIGAND FREE ENERGY PREDICTED BY IDOCK:   91.57 KCAL/MOL
REMARK 924 INTRA-LIGAND FREE ENERGY PREDICTED BY IDOCK:    0.93 KCAL/MOL
REMARK 927      BINDING AFFINITY PREDICTED BY RF-SCORE:    0.00 PKD
ROOT
HETATM    1  C   UNL     1     -10.066  13.107  72.080  1.00  0.00    12.765 C  
HETATM    2  C   UNL     1      -9.118  14.223  72.380  1.00  0.00     8.763 C  
HETATM    3  C   UNL     1      -7.838  14.128  71.439  1.00  0.00     4.714 C  
HETATM    4  C   UNL     1      -9.517   5.406  70.084  1.00  0.00    -0.213 A  
HETATM    5  C   UNL     1      -8.301  15.169  70.448  1.00  0.00     1.089 C  
HETATM    6  C   UNL     1      -9.407   4.244  70.881  1.00  0.00    -0.150 A  
HETATM    7  C   UNL     1      -9.197   4.323  72.255  1.00  0.00    -0.155 A  
HETATM    8  C   UNL     1      -9.530  14.384  69.712  1.00  0.00     0.657 C  
HETATM    9  C   UNL     1     -10.152  12.928  70.537  1.00  0.00     4.448 C  
HETATM   10  C   UNL     1      -9.081   5.561  72.874  1.00  0.00    -0.122 A  
HETATM   11  C   UNL     1      -9.197   6.724  72.092  1.00  0.00    -0.141 A  
HETATM   12  H   UNL     1      -9.681   8.209  69.258  1.00  0.00     0.000 HD 
HETATM   13  C   UNL     1      -9.425   6.654  70.723  1.00  0.00    -0.168 A  
HETATM   14  C   UNL     1     -10.036  11.325  70.240  1.00  0.00     1.636 C  
HETATM   15  N   UNL     1      -9.513   7.960  70.232  1.00  0.00    -0.163 NA 
HETATM   16  C   UNL     1      -9.341   8.858  71.258  1.00  0.00    -0.266 A  
HETATM   17  C   UNL     1      -9.083   8.082  72.396  1.00  0.00    -0.254 A  
HETATM   18  C   UNL     1      -8.711   8.651  73.716  1.00  0.00     0.294 C  
HETATM   19  C   UNL     1      -9.215  10.400  71.253  1.00  0.00     3.469 C  
HETATM   20  C   UNL     1      -8.357  10.104  73.513  1.00  0.00     7.586 C  
HETATM   21  C   UNL     1      -9.468  12.087  73.022  1.00  0.00    24.676 C  
HETATM   22  N   UNL     1      -9.430  10.722  72.671  1.00  0.00    10.946 NA 
ENDROOT
BRANCH   3  23
HETATM   23  O   UNL     1      -7.659  12.961  70.453  1.00  0.00     1.963 OA 
BRANCH  23  24
HETATM   24  C   UNL     1      -6.742  12.020  70.088  1.00  0.00     0.445 C  
HETATM   25  O   UNL     1      -5.876  11.546  70.793  1.00  0.00    -0.292 OA 
BRANCH  24  26
HETATM   26  C   UNL     1      -7.054  11.593  68.629  1.00  0.00    -0.099 C  
HETATM   27  C   UNL     1      -6.650  10.532  67.871  1.00  0.00    -0.061 C  
BRANCH  27  28
HETATM   28  C   UNL     1      -7.135  10.166  66.463  1.00  0.00    -0.103 A  
HETATM   29  C   UNL     1      -8.082  10.939  65.783  1.00  0.00    -0.094 A  
HETATM   30  C   UNL     1      -6.696   9.006  65.770  1.00  0.00    -0.072 A  
HETATM   31  C   UNL     1      -7.164   8.657  64.461  1.00  0.00    -0.093 A  
HETATM   32  C   UNL     1      -8.505  10.655  64.462  1.00  0.00    -0.079 A  
HETATM   33  C   UNL     1      -8.068   9.501  63.789  1.00  0.00    -0.152 A  
BRANCH  32  34
HETATM   34  O   UNL     1      -9.387  11.478  63.791  1.00  0.00    -0.158 OA 
HETATM   35  C   UNL     1     -10.664  11.596  64.413  1.00  0.00    -0.330 C  
ENDBRANCH  32  34
BRANCH  33  36
HETATM   36  O   UNL     1      -8.640   9.299  62.551  1.00  0.00    -0.194 OA 
HETATM   37  C   UNL     1      -9.907   8.663  62.441  1.00  0.00     2.698 C  
ENDBRANCH  33  36
BRANCH  31  38
HETATM   38  O   UNL     1      -6.819   7.511  63.794  1.00  0.00    -0.052 OA 
HETATM   39  C   UNL     1      -5.462   7.142  63.659  1.00  0.00    -0.033 C  
ENDBRANCH  31  38
ENDBRANCH  27  28
ENDBRANCH  24  26
ENDBRANCH  23  24
ENDBRANCH   3  23
BRANCH   5  40
HETATM   40  O   UNL     1      -8.642  16.392  71.133  1.00  0.00     4.431 OA 
HETATM   41  C   UNL     1      -9.797  16.414  71.945  1.00  0.00     5.551 C  
ENDBRANCH   5  40
BRANCH   8  42
HETATM   42  C   UNL     1      -9.116  14.365  68.234  1.00  0.00    -0.193 C  
HETATM   43  O   UNL     1      -8.003  14.593  67.817  1.00  0.00    -0.131 OA 
BRANCH  42  44
HETATM   44  O   UNL     1     -10.192  14.020  67.443  1.00  0.00    -0.245 OA 
HETATM   45  C   UNL     1     -10.242  14.316  66.041  1.00  0.00    -0.315 C  
ENDBRANCH  42  44
ENDBRANCH   8  42
BRANCH   6  46
HETATM   46  O   UNL     1      -9.491   2.953  70.423  1.00  0.00    -0.147 OA 
HETATM   47  C   UNL     1      -9.454   2.770  69.024  1.00  0.00    -0.090 C  
ENDBRANCH   6  46
TORSDOF 11
ENDMDL
MODEL      133
REMARK 921   NORMALIZED FREE ENERGY PREDICTED BY IDOCK:   66.31 KCAL/MOL
REMARK 922        TOTAL FREE ENERGY PREDICTED BY IDOCK:  106.92 KCAL/MOL
REMARK 923 INTER-LIGAND FREE ENERGY PREDICTED BY IDOCK:   63.64 KCAL/MOL
REMARK 924 INTRA-LIGAND FREE ENERGY PREDICTED BY IDOCK:   43.28 KCAL/MOL
REMARK 927      BINDING AFFINITY PREDICTED BY RF-SCORE:    0.00 PKD
ROOT
HETATM    1  C   UNL     1     -11.419  14.453  66.630  1.00  0.00    -0.372 C  
HETATM    2  C   UNL     1     -11.091  15.783  67.227  1.00  0.00    -0.211 C  
HETATM    3  C   UNL     1      -9.708  16.320  66.654  1.00  0.00    -0.250 C  
HETATM    4  C   UNL     1      -7.399   7.922  64.444  1.00  0.00    -0.087 A  
HETATM    5  C   UNL     1     -10.318  17.250  65.632  1.00  0.00    -0.171 C  
HETATM    6  C   UNL     1      -7.011   6.779  65.179  1.00  0.00    -0.055 A  
HETATM    7  C   UNL     1      -7.161   6.720  66.561  1.00  0.00    -0.071 A  
HETATM    8  C   UNL     1     -10.932  16.184  64.558  1.00  0.00    -0.142 C  
HETATM    9  C   UNL     1     -11.083  14.494  65.111  1.00  0.00    -0.374 C  
HETATM   10  C   UNL     1      -7.692   7.800  67.255  1.00  0.00    -0.113 A  
HETATM   11  C   UNL     1      -8.088   8.940  66.532  1.00  0.00    -0.107 A  
HETATM   12  H   UNL     1      -8.487  10.550  63.754  1.00  0.00     0.000 HD 
HETATM   13  C   UNL     1      -7.960   9.000  65.149  1.00  0.00    -0.119 A  
HETATM   14  C   UNL     1     -10.271  13.117  64.771  1.00  0.00    -0.321 C  
HETATM   15  N   UNL     1      -8.454  10.236  64.723  1.00  0.00    -0.169 NA 
HETATM   16  C   UNL     1      -8.889  10.966  65.804  1.00  0.00    -0.191 A  
HETATM   17  C   UNL     1      -8.599  10.179  66.927  1.00  0.00    -0.127 A  
HETATM   18  C   UNL     1      -8.789  10.636  68.326  1.00  0.00    -0.139 C  
HETATM   19  C   UNL     1      -9.394  12.424  65.914  1.00  0.00    -0.062 C  
HETATM   20  C   UNL     1      -9.012  12.128  68.302  1.00  0.00    -0.186 C  
HETATM   21  C   UNL     1     -10.687  13.601  67.641  1.00  0.00    -0.245 C  
HETATM   22  N   UNL     1     -10.029  12.421  67.240  1.00  0.00    -0.205 NA 
ENDROOT
BRANCH   3  23
HETATM   23  O   UNL     1      -8.862  15.471  65.689  1.00  0.00    -0.005 OA 
BRANCH  23  24
HETATM   24  C   UNL     1      -7.601  14.969  65.554  1.00  0.00     5.865 C  
HETATM   25  O   UNL     1      -6.743  15.370  64.796  1.00  0.00    10.899 OA 
BRANCH  24  26
HETATM   26  C   UNL     1      -7.423  13.842  66.606  1.00  0.00     1.208 C  
HETATM   27  C   UNL     1      -7.954  13.646  67.848  1.00  0.00    -0.161 C  
BRANCH  27  28
HETATM   28  C   UNL     1      -7.780  12.412  68.742  1.00  0.00    -0.007 A  
HETATM   29  C   UNL     1      -6.580  11.694  68.784  1.00  0.00    -0.072 A  
HETATM   30  C   UNL     1      -8.823  11.889  69.552  1.00  0.00     1.240 A  
HETATM   31  C   UNL     1      -8.661  10.725  70.374  1.00  0.00     1.907 A  
HETATM   32  C   UNL     1      -6.373  10.586  69.641  1.00  0.00    -0.074 A  
HETATM   33  C   UNL     1      -7.416  10.074  70.434  1.00  0.00    -0.050 A  
BRANCH  32  34
HETATM   34  O   UNL     1      -5.155   9.942  69.713  1.00  0.00    -0.034 OA 
HETATM   35  C   UNL     1      -5.199   8.679  70.372  1.00  0.00    -0.021 C  
ENDBRANCH  32  34
BRANCH  33  36
HETATM   36  O   UNL     1      -7.101   8.932  71.140  1.00  0.00    -0.083 OA 
HETATM   37  C   UNL     1      -6.617   9.024  72.474  1.00  0.00     0.185 C  
ENDBRANCH  33  36
BRANCH  31  38
HETATM   38  O   UNL     1      -9.665  10.151  71.109  1.00  0.00     0.488 OA 
HETATM   39  C   UNL     1      -9.411   9.002  71.892  1.00  0.00    -0.109 C  
ENDBRANCH  31  38
ENDBRANCH  27  28
ENDBRANCH  24  26
ENDBRANCH  23  24
ENDBRANCH   3  23
BRANCH   5  40
HETATM   40  O   UNL     1     -11.263  18.136  66.267  1.00  0.00     0.390 OA 
HETATM   41  C   UNL     1     -10.772  19.262  66.964  1.00  0.00    -0.464 C  
ENDBRANCH   5  40
BRANCH   8  42
HETATM   42  C   UNL     1     -10.229  16.548  63.242  1.00  0.00     9.478 C  
HETATM   43  O   UNL     1      -9.595  15.782  62.553  1.00  0.00    13.574 OA 
BRANCH  42  44
HETATM   44  O   UNL     1     -10.448  17.875  62.939  1.00  0.00    11.111 OA 
HETATM   45  C   UNL     1      -9.936  18.943  63.747  1.00  0.00    12.142 C  
ENDBRANCH  42  44
ENDBRANCH   8  42
BRANCH   6  46
HETATM   46  O   UNL     1      -6.467   5.638  64.647  1.00  0.00    -0.038 OA 
HETATM   47  C   UNL     1      -5.303   5.137  65.268  1.00  0.00    -0.013 C  
ENDBRANCH   6  46
TORSDOF 11
ENDMDL
MODEL      134
REMARK 921   NORMALIZED FREE ENERGY PREDICTED BY IDOCK:   75.84 KCAL/MOL
REMARK 922        TOTAL FREE ENERGY PREDICTED BY IDOCK:  122.58 KCAL/MOL
REMARK 923 INTER-LIGAND FREE ENERGY PREDICTED BY IDOCK:  109.01 KCAL/MOL
REMARK 924 INTRA-LIGAND FREE ENERGY PREDICTED BY IDOCK:   13.57 KCAL/MOL
REMARK 927      BINDING AFFINITY PREDICTED BY RF-SCORE:    0.00 PKD
ROOT
HETATM    1  C   UNL     1      -9.581   6.885  65.632  1.00  0.00     0.512 C  
HETATM    2  C   UNL     1      -9.027   5.653  66.270  1.00  0.00    -0.141 C  
HETATM    3  C   UNL     1      -8.387   6.003  67.684  1.00  0.00    -0.108 C  
HETATM    4  C   UNL     1      -7.556  14.582  65.145  1.00  0.00     9.448 A  
HETATM    5  C   UNL     1      -9.571   5.550  68.503  1.00  0.00    -0.127 C  
HETATM    6  C   UNL     1      -6.712  15.267  64.241  1.00  0.00    20.051 A  
HETATM    7  C   UNL     1      -5.922  14.581  63.324  1.00  0.00    22.615 A  
HETATM    8  C   UNL     1     -10.669   6.704  68.144  1.00  0.00    -0.320 C  
HETATM    9  C   UNL     1     -10.317   7.720  66.719  1.00  0.00    -0.348 C  
HETATM   10  C   UNL     1      -5.940  13.192  63.286  1.00  0.00    12.592 A  
HETATM   11  C   UNL     1      -6.781  12.500  64.176  1.00  0.00     9.123 A  
HETATM   12  H   UNL     1      -8.992  12.447  66.539  1.00  0.00     0.000 HD 
HETATM   13  C   UNL     1      -7.588  13.179  65.082  1.00  0.00     6.994 A  
HETATM   14  C   UNL     1      -9.839   9.271  66.527  1.00  0.00    -0.331 C  
HETATM   15  N   UNL     1      -8.316  12.231  65.807  1.00  0.00     0.677 NA 
HETATM   16  C   UNL     1      -7.987  10.965  65.385  1.00  0.00     0.046 A  
HETATM   17  C   UNL     1      -6.987  11.141  64.418  1.00  0.00     1.103 A  
HETATM   18  C   UNL     1      -6.249  10.021  63.781  1.00  0.00    -0.132 C  
HETATM   19  C   UNL     1      -8.389   9.573  65.927  1.00  0.00    -0.120 C  
HETATM   20  C   UNL     1      -6.527   8.769  64.576  1.00  0.00    -0.067 C  
HETATM   21  C   UNL     1      -8.316   7.326  64.932  1.00  0.00    -0.016 C  
HETATM   22  N   UNL     1      -8.005   8.696  64.810  1.00  0.00    -0.133 NA 
ENDROOT
BRANCH   3  23
HETATM   23  O   UNL     1      -8.322   7.455  68.191  1.00  0.00    -0.123 OA 
BRANCH  23  24
HETATM   24  C   UNL     1      -8.468   8.179  69.338  1.00  0.00    -0.127 C  
HETATM   25  O   UNL     1      -8.385   7.756  70.473  1.00  0.00    -0.121 OA 
BRANCH  24  26
HETATM   26  C   UNL     1      -8.676   9.664  68.939  1.00  0.00    -0.132 C  
HETATM   27  C   UNL     1      -9.631  10.582  69.265  1.00  0.00    -0.199 C  
BRANCH  27  28
HETATM   28  C   UNL     1      -9.650  12.069  68.887  1.00  0.00     0.100 A  
HETATM   29  C   UNL     1      -8.870  13.013  69.564  1.00  0.00     1.570 A  
HETATM   30  C   UNL     1     -10.481  12.597  67.863  1.00  0.00    -0.225 A  
HETATM   31  C   UNL     1     -10.509  13.990  67.525  1.00  0.00    -0.252 A  
HETATM   32  C   UNL     1      -8.826  14.381  69.200  1.00  0.00     0.100 A  
HETATM   33  C   UNL     1      -9.659  14.892  68.189  1.00  0.00    -0.210 A  
BRANCH  32  34
HETATM   34  O   UNL     1      -7.993  15.274  69.841  1.00  0.00    -0.139 OA 
HETATM   35  C   UNL     1      -8.672  16.354  70.477  1.00  0.00     2.831 C  
ENDBRANCH  32  34
BRANCH  33  36
HETATM   36  O   UNL     1      -9.584  16.258  68.012  1.00  0.00    -0.221 OA 
HETATM   37  C   UNL     1      -9.714  17.134  69.125  1.00  0.00    -0.150 C  
ENDBRANCH  33  36
BRANCH  31  38
HETATM   38  O   UNL     1     -11.349  14.544  66.596  1.00  0.00    -0.337 OA 
HETATM   39  C   UNL     1     -11.091  15.832  66.074  1.00  0.00    -0.085 C  
ENDBRANCH  31  38
ENDBRANCH  27  28
ENDBRANCH  24  26
ENDBRANCH  23  24
ENDBRANCH   3  23
BRANCH   5  40
HETATM   40  O   UNL     1      -9.928   4.196  68.155  1.00  0.00    -0.067 OA 
HETATM   41  C   UNL     1     -11.224   3.735  68.476  1.00  0.00     6.332 C  
ENDBRANCH   5  40
BRANCH   8  42
HETATM   42  C   UNL     1     -11.016   7.314  69.510  1.00  0.00    -0.164 C  
HETATM   43  O   UNL     1     -10.230   7.853  70.255  1.00  0.00    -0.195 OA 
BRANCH  42  44
HETATM   44  O   UNL     1     -12.366   7.186  69.757  1.00  0.00     0.360 OA 
HETATM   45  C   UNL     1     -13.285   8.275  69.594  1.00  0.00     4.074 C  
ENDBRANCH  42  44
ENDBRANCH   8  42
BRANCH   6  46
HETATM   46  O   UNL     1      -6.576  16.629  64.156  1.00  0.00     7.260 OA 
HETATM   47  C   UNL     1      -7.737  17.401  64.372  1.00  0.00     7.813 C  
ENDBRANCH   6  46
TORSDOF 11
ENDMDL
MODEL      135
REMARK 921   NORMALIZED FREE ENERGY PREDICTED BY IDOCK:   79.45 KCAL/MOL
REMARK 922        TOTAL FREE ENERGY PREDICTED BY IDOCK:  128.50 KCAL/MOL
REMARK 923 INTER-LIGAND FREE ENERGY PREDICTED BY IDOCK:   78.01 KCAL/MOL
REMARK 924 INTRA-LIGAND FREE ENERGY PREDICTED BY IDOCK:   50.49 KCAL/MOL
REMARK 927      BINDING AFFINITY PREDICTED BY RF-SCORE:    0.00 PKD
ROOT
HETATM    1  C   UNL     1     -10.092  14.355  71.251  1.00  0.00     3.017 C  
HETATM    2  C   UNL     1      -9.063  14.878  72.200  1.00  0.00     6.009 C  
HETATM    3  C   UNL     1      -7.603  14.652  71.610  1.00  0.00     3.498 C  
HETATM    4  C   UNL     1     -10.790   8.155  66.285  1.00  0.00     1.290 A  
HETATM    5  C   UNL     1      -7.429  16.060  71.094  1.00  0.00     3.692 C  
HETATM    6  C   UNL     1     -11.248   6.835  66.503  1.00  0.00     0.607 A  
HETATM    7  C   UNL     1     -11.509   6.360  67.784  1.00  0.00     0.208 A  
HETATM    8  C   UNL     1      -8.482  16.075  69.846  1.00  0.00     0.560 C  
HETATM    9  C   UNL     1      -9.684  14.757  69.804  1.00  0.00     0.193 C  
HETATM   10  C   UNL     1     -11.315   7.181  68.888  1.00  0.00     0.157 A  
HETATM   11  C   UNL     1     -10.867   8.498  68.683  1.00  0.00     0.014 A  
HETATM   12  H   UNL     1      -9.971  10.927  66.741  1.00  0.00     0.000 HD 
HETATM   13  C   UNL     1     -10.622   8.987  67.404  1.00  0.00    -0.239 A  
HETATM   14  C   UNL     1      -9.869  13.425  68.875  1.00  0.00     0.074 C  
HETATM   15  N   UNL     1     -10.214  10.319  67.522  1.00  0.00    -0.198 NA 
HETATM   16  C   UNL     1     -10.191  10.687  68.846  1.00  0.00    -0.201 A  
HETATM   17  C   UNL     1     -10.536   9.532  69.561  1.00  0.00    -0.238 A  
HETATM   18  C   UNL     1     -10.513   9.441  71.043  1.00  0.00    -0.392 C  
HETATM   19  C   UNL     1      -9.698  11.981  69.536  1.00  0.00     1.083 C  
HETATM   20  C   UNL     1      -9.768  10.642  71.571  1.00  0.00     5.278 C  
HETATM   21  C   UNL     1     -10.122  12.933  71.762  1.00  0.00    12.161 C  
HETATM   22  N   UNL     1     -10.301  11.855  70.871  1.00  0.00     4.198 NA 
ENDROOT
BRANCH   3  23
HETATM   23  O   UNL     1      -7.387  13.911  70.279  1.00  0.00     0.578 OA 
BRANCH  23  24
HETATM   24  C   UNL     1      -6.537  13.884  69.212  1.00  0.00    -0.113 C  
HETATM   25  O   UNL     1      -5.621  14.652  69.001  1.00  0.00    -0.087 OA 
BRANCH  24  26
HETATM   26  C   UNL     1      -6.893  12.642  68.352  1.00  0.00    -0.090 C  
HETATM   27  C   UNL     1      -6.223  11.486  68.079  1.00  0.00    -0.046 C  
BRANCH  27  28
HETATM   28  C   UNL     1      -6.749  10.276  67.297  1.00  0.00    -0.073 A  
HETATM   29  C   UNL     1      -6.147   9.846  66.109  1.00  0.00    -0.067 A  
HETATM   30  C   UNL     1      -7.897   9.538  67.692  1.00  0.00    -0.102 A  
HETATM   31  C   UNL     1      -8.395   8.418  66.948  1.00  0.00    -0.106 A  
HETATM   32  C   UNL     1      -6.578   8.701  65.397  1.00  0.00    -0.067 A  
HETATM   33  C   UNL     1      -7.719   7.982  65.795  1.00  0.00    -0.093 A  
BRANCH  32  34
HETATM   34  O   UNL     1      -5.919   8.260  64.267  1.00  0.00    -0.063 OA 
HETATM   35  C   UNL     1      -5.949   6.846  64.088  1.00  0.00    -0.036 C  
ENDBRANCH  32  34
BRANCH  33  36
HETATM   36  O   UNL     1      -8.079   6.953  64.951  1.00  0.00    -0.125 OA 
HETATM   37  C   UNL     1      -8.146   7.166  63.546  1.00  0.00     0.001 C  
ENDBRANCH  33  36
BRANCH  31  38
HETATM   38  O   UNL     1      -9.539   7.730  67.259  1.00  0.00    -0.146 OA 
HETATM   39  C   UNL     1     -10.005   6.698  66.414  1.00  0.00    -0.010 C  
ENDBRANCH  31  38
ENDBRANCH  27  28
ENDBRANCH  24  26
ENDBRANCH  23  24
ENDBRANCH   3  23
BRANCH   5  40
HETATM   40  O   UNL     1      -7.674  17.012  72.150  1.00  0.00    10.087 OA 
HETATM   41  C   UNL     1      -9.010  17.317  72.489  1.00  0.00    15.082 C  
ENDBRANCH   5  40
BRANCH   8  42
HETATM   42  C   UNL     1      -7.604  16.413  68.633  1.00  0.00    -0.197 C  
HETATM   43  O   UNL     1      -7.823  16.068  67.493  1.00  0.00    -0.131 OA 
BRANCH  42  44
HETATM   44  O   UNL     1      -6.537  17.194  69.022  1.00  0.00    -0.194 OA 
HETATM   45  C   UNL     1      -6.624  18.129  70.105  1.00  0.00     0.437 C  
ENDBRANCH  42  44
ENDBRANCH   8  42
BRANCH   6  46
HETATM   46  O   UNL     1     -11.482   5.902  65.525  1.00  0.00     1.699 OA 
HETATM   47  C   UNL     1     -11.729   6.391  64.224  1.00  0.00    11.098 C  
ENDBRANCH   6  46
TORSDOF 11
ENDMDL
MODEL      136
REMARK 921   NORMALIZED FREE ENERGY PREDICTED BY IDOCK:   89.91 KCAL/MOL
REMARK 922        TOTAL FREE ENERGY PREDICTED BY IDOCK:  145.69 KCAL/MOL
REMARK 923 INTER-LIGAND FREE ENERGY PREDICTED BY IDOCK:   31.78 KCAL/MOL
REMARK 924 INTRA-LIGAND FREE ENERGY PREDICTED BY IDOCK:  113.91 KCAL/MOL
REMARK 927      BINDING AFFINITY PREDICTED BY RF-SCORE:    0.00 PKD
ROOT
HETATM    1  C   UNL     1      -8.868   7.087  67.689  1.00  0.00    -0.119 C  
HETATM    2  C   UNL     1      -9.380   5.729  67.329  1.00  0.00    -0.113 C  
HETATM    3  C   UNL     1      -9.435   5.561  65.748  1.00  0.00    -0.052 C  
HETATM    4  C   UNL     1      -9.574  14.499  64.834  1.00  0.00     0.563 A  
HETATM    5  C   UNL     1      -8.142   4.791  65.632  1.00  0.00    -0.111 C  
HETATM    6  C   UNL     1     -10.541  15.501  65.077  1.00  0.00    -0.409 A  
HETATM    7  C   UNL     1     -11.700  15.232  65.798  1.00  0.00     0.083 A  
HETATM    8  C   UNL     1      -7.047   5.952  65.980  1.00  0.00    -0.074 C  
HETATM    9  C   UNL     1      -7.676   7.434  66.751  1.00  0.00    -0.109 C  
HETATM   10  C   UNL     1     -11.937  13.955  66.291  1.00  0.00    -0.462 A  
HETATM   11  C   UNL     1     -10.978  12.952  66.062  1.00  0.00    -0.301 A  
HETATM   12  H   UNL     1      -8.146  11.945  64.864  1.00  0.00     0.000 HD 
HETATM   13  C   UNL     1      -9.809  13.217  65.359  1.00  0.00    -0.106 A  
HETATM   14  C   UNL     1      -7.915   8.964  66.231  1.00  0.00    -0.103 C  
HETATM   15  N   UNL     1      -9.055  12.041  65.315  1.00  0.00     0.161 NA 
HETATM   16  C   UNL     1      -9.721  11.032  65.970  1.00  0.00    -0.224 A  
HETATM   17  C   UNL     1     -10.941  11.591  66.375  1.00  0.00    -0.336 A  
HETATM   18  C   UNL     1     -12.032  10.815  67.014  1.00  0.00     1.438 C  
HETATM   19  C   UNL     1      -9.408   9.523  66.106  1.00  0.00    -0.198 C  
HETATM   20  C   UNL     1     -11.724   9.348  66.839  1.00  0.00     3.183 C  
HETATM   21  C   UNL     1     -10.198   7.804  67.675  1.00  0.00    -0.219 C  
HETATM   22  N   UNL     1     -10.290   9.134  67.216  1.00  0.00    -0.255 NA 
ENDROOT
BRANCH   3  23
HETATM   23  O   UNL     1      -9.073   6.726  64.810  1.00  0.00     0.505 OA 
BRANCH  23  24
HETATM   24  C   UNL     1      -9.582   7.903  64.345  1.00  0.00     2.597 C  
HETATM   25  O   UNL     1      -9.980   8.122  63.220  1.00  0.00     3.999 OA 
BRANCH  24  26
HETATM   26  C   UNL     1      -9.643   8.897  65.535  1.00  0.00    -0.088 C  
HETATM   27  C   UNL     1     -10.032   8.758  66.835  1.00  0.00    -0.327 C  
BRANCH  27  28
HETATM   28  C   UNL     1      -9.929   9.809  67.948  1.00  0.00    -0.196 A  
HETATM   29  C   UNL     1     -10.244  11.154  67.725  1.00  0.00    -0.205 A  
HETATM   30  C   UNL     1      -9.472   9.507  69.258  1.00  0.00    -0.171 A  
HETATM   31  C   UNL     1      -9.360  10.496  70.290  1.00  0.00     0.836 A  
HETATM   32  C   UNL     1     -10.211  12.134  68.746  1.00  0.00    -0.116 A  
HETATM   33  C   UNL     1      -9.751  11.823  70.038  1.00  0.00     2.284 A  
BRANCH  32  34
HETATM   34  O   UNL     1     -10.597  13.438  68.512  1.00  0.00    -0.244 OA 
HETATM   35  C   UNL     1     -11.779  13.564  67.725  1.00  0.00    -0.359 C  
ENDBRANCH  32  34
BRANCH  33  36
HETATM   36  O   UNL     1      -9.677  12.897  70.901  1.00  0.00     6.295 OA 
HETATM   37  C   UNL     1     -10.464  12.922  72.085  1.00  0.00    11.335 C  
ENDBRANCH  33  36
BRANCH  31  38
HETATM   38  O   UNL     1      -8.855  10.256  71.541  1.00  0.00     1.997 OA 
HETATM   39  C   UNL     1      -9.557   9.435  72.452  1.00  0.00     1.596 C  
ENDBRANCH  31  38
ENDBRANCH  27  28
ENDBRANCH  24  26
ENDBRANCH  23  24
ENDBRANCH   3  23
BRANCH   5  40
HETATM   40  O   UNL     1      -8.163   3.647  66.510  1.00  0.00    -0.098 OA 
HETATM   41  C   UNL     1      -7.690   2.410  66.021  1.00  0.00    -0.076 C  
ENDBRANCH   5  40
BRANCH   8  42
HETATM   42  C   UNL     1      -6.160   6.002  64.727  1.00  0.00    -0.026 C  
HETATM   43  O   UNL     1      -5.235   6.764  64.555  1.00  0.00    -0.025 OA 
BRANCH  42  44
HETATM   44  O   UNL     1      -6.550   5.031  63.830  1.00  0.00    -0.036 OA 
HETATM   45  C   UNL     1      -6.612   3.641  64.181  1.00  0.00    -0.042 C  
ENDBRANCH  42  44
ENDBRANCH   8  42
BRANCH   6  46
HETATM   46  O   UNL     1     -10.460  16.804  64.654  1.00  0.00    -0.405 OA 
HETATM   47  C   UNL     1     -11.126  17.771  65.437  1.00  0.00     0.513 C  
ENDBRANCH   6  46
TORSDOF 11
ENDMDL
