MODEL        1
REMARK 921   NORMALIZED FREE ENERGY PREDICTED BY IDOCK:   -6.36 KCAL/MOL
REMARK 922        TOTAL FREE ENERGY PREDICTED BY IDOCK:  -12.83 KCAL/MOL
REMARK 923 INTER-LIGAND FREE ENERGY PREDICTED BY IDOCK:  -10.08 KCAL/MOL
REMARK 924 INTRA-LIGAND FREE ENERGY PREDICTED BY IDOCK:   -2.76 KCAL/MOL
REMARK 927      BINDING AFFINITY PREDICTED BY RF-SCORE:    0.00 PKD
ROOT
HETATM    1  C   UNL     1      -9.744   9.037  65.924  1.00  0.00    -0.306 C  
HETATM    2  C   UNL     1      -8.248   8.705  65.889  1.00  0.00    -0.123 C  
HETATM    3  C   UNL     1      -7.701   7.952  67.141  1.00  0.00    -0.101 C  
HETATM    4  C   UNL     1      -9.933  13.351  67.479  1.00  0.00    -0.230 C  
HETATM    5  C   UNL     1      -8.268   6.541  66.990  1.00  0.00    -0.113 C  
HETATM    6  C   UNL     1      -9.892  10.557  66.067  1.00  0.00    -0.222 C  
HETATM    7  C   UNL     1      -9.823   6.702  67.140  1.00  0.00    -0.194 C  
HETATM    8  C   UNL     1      -8.801  12.312  67.389  1.00  0.00    -0.185 C  
HETATM    9  C   UNL     1     -10.847  12.943  68.582  1.00  0.00    -0.288 A  
HETATM   10  C   UNL     1     -10.466   8.199  66.994  1.00  0.00    -0.396 C  
HETATM   11  C   UNL     1     -12.932  13.397  71.488  1.00  0.00    -0.429 A  
HETATM   12  C   UNL     1     -10.920  11.627  69.009  1.00  0.00    -0.233 A  
HETATM   13  N   UNL     1     -11.702  11.624  70.139  1.00  0.00    -0.458 NA 
HETATM   14  C   UNL     1     -10.875   9.128  68.216  1.00  0.00    -0.104 C  
HETATM   15  C   UNL     1     -13.215  14.772  71.519  1.00  0.00    -0.356 A  
HETATM   16  N   UNL     1      -9.275  10.919  67.323  1.00  0.00    -0.151 NA 
HETATM   17  C   UNL     1     -12.722  15.604  70.531  1.00  0.00    -0.391 A  
HETATM   18  C   UNL     1     -10.077  10.473  68.476  1.00  0.00    -0.173 C  
HETATM   19  C   UNL     1     -11.922  15.129  69.480  1.00  0.00    -0.351 A  
HETATM   20  C   UNL     1     -11.643  13.744  69.426  1.00  0.00    -0.365 A  
HETATM   21  H   UNL     1     -11.924  10.795  70.690  1.00  0.00     0.000 HD 
HETATM   22  C   UNL     1     -12.148  12.908  70.423  1.00  0.00    -0.306 A  
ENDROOT
BRANCH   3  23
HETATM   23  O   UNL     1      -8.116   8.431  68.471  1.00  0.00    -0.119 OA 
BRANCH  23  24
HETATM   24  C   UNL     1      -7.290   8.036  69.475  1.00  0.00    -0.086 C  
HETATM   25  O   UNL     1      -6.070   8.054  69.358  1.00  0.00    -0.033 OA 
BRANCH  24  26
HETATM   26  C   UNL     1      -7.871   7.583  70.797  1.00  0.00    -0.098 A  
HETATM   27  C   UNL     1      -7.522   6.526  71.632  1.00  0.00    -0.089 A  
HETATM   28  C   UNL     1      -9.886   7.881  72.153  1.00  0.00    -0.205 A  
HETATM   29  C   UNL     1      -8.365   6.086  72.684  1.00  0.00    -0.118 A  
HETATM   30  C   UNL     1      -8.981   8.325  71.186  1.00  0.00    -0.192 A  
HETATM   31  C   UNL     1      -9.607   6.723  72.903  1.00  0.00    -0.149 A  
BRANCH  28  32
HETATM   32  O   UNL     1     -11.047   8.588  72.352  1.00  0.00    -0.361 OA 
HETATM   33  C   UNL     1     -12.148   8.178  71.531  1.00  0.00    -0.298 C  
ENDBRANCH  28  32
BRANCH  31  34
HETATM   34  O   UNL     1     -10.449   6.147  73.814  1.00  0.00    -0.252 OA 
HETATM   35  C   UNL     1     -11.244   5.035  73.425  1.00  0.00    -0.319 C  
ENDBRANCH  31  34
BRANCH  29  36
HETATM   36  O   UNL     1      -7.832   4.999  73.349  1.00  0.00    -0.098 OA 
HETATM   37  C   UNL     1      -7.768   3.741  72.682  1.00  0.00    -0.069 C  
ENDBRANCH  29  36
ENDBRANCH  24  26
ENDBRANCH  23  24
ENDBRANCH   3  23
BRANCH   5  38
HETATM   38  O   UNL     1      -7.902   6.033  65.688  1.00  0.00    -0.094 OA 
HETATM   39  C   UNL     1      -8.673   4.959  65.173  1.00  0.00    -0.148 C  
ENDBRANCH   5  38
BRANCH   7  40
HETATM   40  C   UNL     1     -10.289   5.965  68.381  1.00  0.00    -0.210 C  
HETATM   41  O   UNL     1     -11.365   6.121  68.946  1.00  0.00    -0.367 OA 
BRANCH  40  42
HETATM   42  O   UNL     1      -9.305   5.136  68.813  1.00  0.00    -0.114 OA 
HETATM   43  C   UNL     1      -9.722   4.032  69.616  1.00  0.00    -0.175 C  
ENDBRANCH  40  42
ENDBRANCH   7  40
BRANCH  15  44
HETATM   44  O   UNL     1     -13.966  15.417  72.466  1.00  0.00    -0.519 OA 
HETATM   45  C   UNL     1     -13.271  16.000  73.559  1.00  0.00    -0.492 C  
ENDBRANCH  15  44
TORSDOF 10
ENDMDL
MODEL        2
REMARK 921   NORMALIZED FREE ENERGY PREDICTED BY IDOCK:   -5.95 KCAL/MOL
REMARK 922        TOTAL FREE ENERGY PREDICTED BY IDOCK:  -12.18 KCAL/MOL
REMARK 923 INTER-LIGAND FREE ENERGY PREDICTED BY IDOCK:  -10.50 KCAL/MOL
REMARK 924 INTRA-LIGAND FREE ENERGY PREDICTED BY IDOCK:   -1.68 KCAL/MOL
REMARK 927      BINDING AFFINITY PREDICTED BY RF-SCORE:    0.00 PKD
ROOT
HETATM    1  C   UNL     1     -11.855  11.870  68.808  1.00  0.00    -0.371 C  
HETATM    2  C   UNL     1     -11.045  13.008  69.438  1.00  0.00    -0.137 C  
HETATM    3  C   UNL     1     -10.134  13.806  68.454  1.00  0.00    -0.241 C  
HETATM    4  C   UNL     1      -9.322   8.112  69.536  1.00  0.00    -0.155 C  
HETATM    5  C   UNL     1     -11.124  14.634  67.636  1.00  0.00    -0.304 C  
HETATM    6  C   UNL     1     -11.286  10.541  69.321  1.00  0.00    -0.262 C  
HETATM    7  C   UNL     1     -11.958  13.587  66.814  1.00  0.00    -0.453 C  
HETATM    8  C   UNL     1      -9.046   9.618  69.701  1.00  0.00    -0.210 C  
HETATM    9  C   UNL     1      -9.318   7.800  68.080  1.00  0.00    -0.148 A  
HETATM   10  C   UNL     1     -11.910  12.020  67.278  1.00  0.00    -0.257 C  
HETATM   11  C   UNL     1      -8.529   5.926  65.103  1.00  0.00    -0.130 A  
HETATM   12  C   UNL     1      -9.568   8.777  67.131  1.00  0.00    -0.175 A  
HETATM   13  N   UNL     1      -9.310   8.211  65.906  1.00  0.00    -0.398 NA 
HETATM   14  C   UNL     1     -11.004  10.906  66.598  1.00  0.00    -0.212 C  
HETATM   15  C   UNL     1      -8.177   4.647  65.562  1.00  0.00    -0.115 A  
HETATM   16  N   UNL     1      -9.913  10.477  68.876  1.00  0.00    -0.194 NA 
HETATM   17  C   UNL     1      -8.216   4.361  66.914  1.00  0.00    -0.102 A  
HETATM   18  C   UNL     1      -9.817  10.253  67.423  1.00  0.00    -0.179 C  
HETATM   19  C   UNL     1      -8.587   5.317  67.873  1.00  0.00    -0.103 A  
HETATM   20  C   UNL     1      -8.961   6.604  67.424  1.00  0.00    -0.114 A  
HETATM   21  H   UNL     1      -9.391   8.695  65.012  1.00  0.00     0.000 HD 
HETATM   22  C   UNL     1      -8.926   6.885  66.057  1.00  0.00    -0.105 A  
ENDROOT
BRANCH   3  23
HETATM   23  O   UNL     1      -9.327  13.041  67.487  1.00  0.00    -0.187 OA 
BRANCH  23  24
HETATM   24  C   UNL     1      -8.028  13.436  67.429  1.00  0.00    -0.163 C  
HETATM   25  O   UNL     1      -7.116  12.642  67.223  1.00  0.00    -0.149 OA 
BRANCH  24  26
HETATM   26  C   UNL     1      -7.675  14.898  67.594  1.00  0.00    -0.197 A  
HETATM   27  C   UNL     1      -6.982  15.560  68.603  1.00  0.00    -0.116 A  
HETATM   28  C   UNL     1      -8.320  17.087  66.712  1.00  0.00    -0.234 A  
HETATM   29  C   UNL     1      -7.000  16.974  68.727  1.00  0.00    -0.211 A  
HETATM   30  C   UNL     1      -8.200  15.701  66.587  1.00  0.00    -0.284 A  
HETATM   31  C   UNL     1      -7.745  17.750  67.812  1.00  0.00    -0.214 A  
BRANCH  28  32
HETATM   32  O   UNL     1      -9.009  17.784  65.749  1.00  0.00    -0.509 OA 
HETATM   33  C   UNL     1     -10.431  17.812  65.930  1.00  0.00    -0.251 C  
ENDBRANCH  28  32
BRANCH  31  34
HETATM   34  O   UNL     1      -7.865  19.085  68.084  1.00  0.00    -0.279 OA 
HETATM   35  C   UNL     1      -8.972  19.546  68.848  1.00  0.00    -0.267 C  
ENDBRANCH  31  34
BRANCH  29  36
HETATM   36  O   UNL     1      -6.278  17.402  69.824  1.00  0.00    -0.250 OA 
HETATM   37  C   UNL     1      -5.294  16.537  70.386  1.00  0.00    -0.200 C  
ENDBRANCH  29  36
ENDBRANCH  24  26
ENDBRANCH  23  24
ENDBRANCH   3  23
BRANCH   5  38
HETATM   38  O   UNL     1     -11.954  15.390  68.544  1.00  0.00    -0.316 OA 
HETATM   39  C   UNL     1     -11.327  16.426  69.285  1.00  0.00    -0.225 C  
ENDBRANCH   5  38
BRANCH   7  40
HETATM   40  C   UNL     1     -11.697  13.786  65.333  1.00  0.00    -0.335 C  
HETATM   41  O   UNL     1     -10.743  14.383  64.847  1.00  0.00    -0.388 OA 
BRANCH  40  42
HETATM   42  O   UNL     1     -12.715  13.248  64.616  1.00  0.00    -0.643 OA 
HETATM   43  C   UNL     1     -12.339  12.417  63.519  1.00  0.00    -0.546 C  
ENDBRANCH  40  42
ENDBRANCH   7  40
BRANCH  15  44
HETATM   44  O   UNL     1      -7.780   3.592  64.782  1.00  0.00    -0.079 OA 
HETATM   45  C   UNL     1      -8.137   3.632  63.408  1.00  0.00    -0.088 C  
ENDBRANCH  15  44
TORSDOF 10
ENDMDL
MODEL        3
REMARK 921   NORMALIZED FREE ENERGY PREDICTED BY IDOCK:   -5.92 KCAL/MOL
REMARK 922        TOTAL FREE ENERGY PREDICTED BY IDOCK:  -12.14 KCAL/MOL
REMARK 923 INTER-LIGAND FREE ENERGY PREDICTED BY IDOCK:  -10.62 KCAL/MOL
REMARK 924 INTRA-LIGAND FREE ENERGY PREDICTED BY IDOCK:   -1.52 KCAL/MOL
REMARK 927      BINDING AFFINITY PREDICTED BY RF-SCORE:    0.00 PKD
ROOT
HETATM    1  C   UNL     1     -12.071  12.742  68.830  1.00  0.00    -0.175 C  
HETATM    2  C   UNL     1     -11.077  13.766  69.385  1.00  0.00    -0.206 C  
HETATM    3  C   UNL     1      -9.978  14.242  68.385  1.00  0.00    -0.240 C  
HETATM    4  C   UNL     1     -10.395   8.677  70.146  1.00  0.00    -0.219 C  
HETATM    5  C   UNL     1     -10.740  15.143  67.413  1.00  0.00    -0.286 C  
HETATM    6  C   UNL     1     -11.810  11.399  69.525  1.00  0.00    -0.357 C  
HETATM    7  C   UNL     1     -11.731  14.188  66.656  1.00  0.00    -0.422 C  
HETATM    8  C   UNL     1      -9.826  10.107  70.162  1.00  0.00    -0.053 C  
HETATM    9  C   UNL     1     -10.386   8.194  68.737  1.00  0.00    -0.220 A  
HETATM   10  C   UNL     1     -12.024  12.711  67.293  1.00  0.00    -0.321 C  
HETATM   11  C   UNL     1      -9.859   5.850  66.048  1.00  0.00     0.018 A  
HETATM   12  C   UNL     1     -10.388   9.077  67.670  1.00  0.00    -0.257 A  
HETATM   13  N   UNL     1     -10.195   8.325  66.537  1.00  0.00    -0.433 NA 
HETATM   14  C   UNL     1     -11.333  11.365  66.805  1.00  0.00    -0.252 C  
HETATM   15  C   UNL     1      -9.796   4.593  66.670  1.00  0.00    -0.221 A  
HETATM   16  N   UNL     1     -10.459  11.012  69.188  1.00  0.00    -0.222 NA 
HETATM   17  C   UNL     1      -9.955   4.488  68.040  1.00  0.00    -0.102 A  
HETATM   18  C   UNL     1     -10.344  10.598  67.779  1.00  0.00    -0.204 C  
HETATM   19  C   UNL     1     -10.168   5.609  68.858  1.00  0.00    -0.279 A  
HETATM   20  C   UNL     1     -10.251   6.879  68.244  1.00  0.00    -0.201 A  
HETATM   21  H   UNL     1     -10.133   8.703  65.592  1.00  0.00     0.000 HD 
HETATM   22  C   UNL     1     -10.096   6.978  66.860  1.00  0.00    -0.226 A  
ENDROOT
BRANCH   3  23
HETATM   23  O   UNL     1      -9.300  13.221  67.568  1.00  0.00    -0.202 OA 
BRANCH  23  24
HETATM   24  C   UNL     1      -7.953  13.386  67.497  1.00  0.00    -0.183 C  
HETATM   25  O   UNL     1      -7.202  12.474  67.170  1.00  0.00    -0.136 OA 
BRANCH  24  26
HETATM   26  C   UNL     1      -7.342  14.737  67.799  1.00  0.00    -0.186 A  
HETATM   27  C   UNL     1      -6.743  15.228  68.955  1.00  0.00    -0.122 A  
HETATM   28  C   UNL     1      -7.320  17.019  66.916  1.00  0.00    -0.209 A  
HETATM   29  C   UNL     1      -6.488  16.612  69.143  1.00  0.00    -0.200 A  
HETATM   30  C   UNL     1      -7.472  15.641  66.749  1.00  0.00    -0.063 A  
HETATM   31  C   UNL     1      -6.853  17.536  68.139  1.00  0.00    -0.197 A  
BRANCH  28  32
HETATM   32  O   UNL     1      -7.639  17.854  65.873  1.00  0.00    -0.487 OA 
HETATM   33  C   UNL     1      -6.521  18.513  65.267  1.00  0.00    -0.195 C  
ENDBRANCH  28  32
BRANCH  31  34
HETATM   34  O   UNL     1      -6.742  18.864  68.447  1.00  0.00    -0.235 OA 
HETATM   35  C   UNL     1      -7.884  19.570  68.917  1.00  0.00    -0.314 C  
ENDBRANCH  31  34
BRANCH  29  36
HETATM   36  O   UNL     1      -5.928  16.868  70.379  1.00  0.00    -0.133 OA 
HETATM   37  C   UNL     1      -5.135  15.860  71.002  1.00  0.00    -0.162 C  
ENDBRANCH  29  36
ENDBRANCH  24  26
ENDBRANCH  23  24
ENDBRANCH   3  23
BRANCH   5  38
HETATM   38  O   UNL     1     -11.439  16.153  68.171  1.00  0.00    -0.326 OA 
HETATM   39  C   UNL     1     -10.728  17.342  68.477  1.00  0.00    -0.305 C  
ENDBRANCH   5  38
BRANCH   7  40
HETATM   40  C   UNL     1     -11.365  14.148  65.184  1.00  0.00    -0.336 C  
HETATM   41  O   UNL     1     -10.291  14.486  64.702  1.00  0.00    -0.370 OA 
BRANCH  40  42
HETATM   42  O   UNL     1     -12.435  13.731  64.462  1.00  0.00    -0.571 OA 
HETATM   43  C   UNL     1     -12.204  12.643  63.567  1.00  0.00    -0.547 C  
ENDBRANCH  40  42
ENDBRANCH   7  40
BRANCH  15  44
HETATM   44  O   UNL     1      -9.587   3.393  66.042  1.00  0.00    -0.147 OA 
HETATM   45  C   UNL     1      -8.568   2.555  66.567  1.00  0.00    -0.113 C  
ENDBRANCH  15  44
TORSDOF 10
ENDMDL
MODEL        4
REMARK 921   NORMALIZED FREE ENERGY PREDICTED BY IDOCK:   -5.86 KCAL/MOL
REMARK 922        TOTAL FREE ENERGY PREDICTED BY IDOCK:  -12.04 KCAL/MOL
REMARK 923 INTER-LIGAND FREE ENERGY PREDICTED BY IDOCK:   -9.45 KCAL/MOL
REMARK 924 INTRA-LIGAND FREE ENERGY PREDICTED BY IDOCK:   -2.59 KCAL/MOL
REMARK 927      BINDING AFFINITY PREDICTED BY RF-SCORE:    0.00 PKD
ROOT
HETATM    1  C   UNL     1     -10.341   7.593  71.862  1.00  0.00    -0.240 C  
HETATM    2  C   UNL     1     -11.172   6.412  71.350  1.00  0.00    -0.340 C  
HETATM    3  C   UNL     1     -10.886   5.982  69.877  1.00  0.00    -0.363 C  
HETATM    4  C   UNL     1     -13.033  11.256  71.227  1.00  0.00    -0.427 C  
HETATM    5  C   UNL     1      -9.519   5.303  69.958  1.00  0.00    -0.160 C  
HETATM    6  C   UNL     1     -11.280   8.794  72.041  1.00  0.00    -0.373 C  
HETATM    7  C   UNL     1      -8.514   6.444  70.353  1.00  0.00    -0.131 C  
HETATM    8  C   UNL     1     -13.119   9.791  70.762  1.00  0.00    -0.135 C  
HETATM    9  C   UNL     1     -11.972  11.931  70.429  1.00  0.00    -0.400 A  
HETATM   10  C   UNL     1      -9.121   7.837  70.958  1.00  0.00    -0.152 C  
HETATM   11  C   UNL     1     -10.473  14.573  68.486  1.00  0.00    -0.250 A  
HETATM   12  C   UNL     1     -10.953  11.212  69.827  1.00  0.00    -0.150 A  
HETATM   13  N   UNL     1     -10.264  12.096  69.032  1.00  0.00    -0.425 NA 
HETATM   14  C   UNL     1      -9.336   9.168  70.116  1.00  0.00    -0.235 C  
HETATM   15  C   UNL     1     -11.227  15.718  68.788  1.00  0.00    -0.342 A  
HETATM   16  N   UNL     1     -11.821   9.097  70.736  1.00  0.00    -0.263 NA 
HETATM   17  C   UNL     1     -12.272  15.641  69.690  1.00  0.00    -0.264 A  
HETATM   18  C   UNL     1     -10.807   9.694  69.848  1.00  0.00    -0.256 C  
HETATM   19  C   UNL     1     -12.631  14.441  70.324  1.00  0.00    -0.380 A  
HETATM   20  C   UNL     1     -11.869  13.284  70.043  1.00  0.00    -0.365 A  
HETATM   21  H   UNL     1      -9.465  11.852  68.448  1.00  0.00     0.000 HD 
HETATM   22  C   UNL     1     -10.811  13.368  69.136  1.00  0.00    -0.114 A  
ENDROOT
BRANCH   3  23
HETATM   23  O   UNL     1     -10.770   7.041  68.860  1.00  0.00    -0.216 OA 
BRANCH  23  24
HETATM   24  C   UNL     1     -10.590   6.568  67.599  1.00  0.00    -0.269 C  
HETATM   25  O   UNL     1     -11.067   5.500  67.230  1.00  0.00    -0.027 OA 
BRANCH  24  26
HETATM   26  C   UNL     1      -9.804   7.381  66.593  1.00  0.00    -0.263 A  
HETATM   27  C   UNL     1      -8.769   7.016  65.736  1.00  0.00    -0.116 A  
HETATM   28  C   UNL     1      -9.336   9.716  66.032  1.00  0.00    -0.207 A  
HETATM   29  C   UNL     1      -7.964   7.979  65.074  1.00  0.00    -0.126 A  
HETATM   30  C   UNL     1     -10.149   8.728  66.592  1.00  0.00    -0.358 A  
HETATM   31  C   UNL     1      -8.200   9.356  65.285  1.00  0.00    -0.132 A  
BRANCH  28  32
HETATM   32  O   UNL     1      -9.663  11.035  66.229  1.00  0.00    -0.195 OA 
HETATM   33  C   UNL     1     -10.527  11.596  65.233  1.00  0.00    -0.273 C  
ENDBRANCH  28  32
BRANCH  31  34
HETATM   34  O   UNL     1      -7.287  10.229  64.760  1.00  0.00    -0.143 OA 
HETATM   35  C   UNL     1      -6.155  10.605  65.534  1.00  0.00    -0.105 C  
ENDBRANCH  31  34
BRANCH  29  36
HETATM   36  O   UNL     1      -6.977   7.386  64.312  1.00  0.00    -0.052 OA 
HETATM   37  C   UNL     1      -5.910   6.705  64.968  1.00  0.00    -0.031 C  
ENDBRANCH  29  36
ENDBRANCH  24  26
ENDBRANCH  23  24
ENDBRANCH   3  23
BRANCH   5  38
HETATM   38  O   UNL     1      -9.577   4.266  70.960  1.00  0.00    -0.156 OA 
HETATM   39  C   UNL     1      -8.389   4.007  71.693  1.00  0.00    -0.090 C  
ENDBRANCH   5  38
BRANCH   7  40
HETATM   40  C   UNL     1      -7.525   6.658  69.223  1.00  0.00    -0.095 C  
HETATM   41  O   UNL     1      -7.020   7.728  68.905  1.00  0.00    -0.062 OA 
BRANCH  40  42
HETATM   42  O   UNL     1      -7.320   5.486  68.571  1.00  0.00    -0.073 OA 
HETATM   43  C   UNL     1      -5.966   5.044  68.486  1.00  0.00    -0.025 C  
ENDBRANCH  40  42
ENDBRANCH   7  40
BRANCH  15  44
HETATM   44  O   UNL     1     -11.035  16.969  68.264  1.00  0.00    -0.365 OA 
HETATM   45  C   UNL     1     -10.408  17.051  66.993  1.00  0.00    -0.304 C  
ENDBRANCH  15  44
TORSDOF 10
ENDMDL
MODEL        5
REMARK 921   NORMALIZED FREE ENERGY PREDICTED BY IDOCK:   -5.76 KCAL/MOL
REMARK 922        TOTAL FREE ENERGY PREDICTED BY IDOCK:  -11.89 KCAL/MOL
REMARK 923 INTER-LIGAND FREE ENERGY PREDICTED BY IDOCK:   -9.07 KCAL/MOL
REMARK 924 INTRA-LIGAND FREE ENERGY PREDICTED BY IDOCK:   -2.82 KCAL/MOL
REMARK 927      BINDING AFFINITY PREDICTED BY RF-SCORE:    0.00 PKD
ROOT
HETATM    1  C   UNL     1     -11.909  12.447  68.808  1.00  0.00    -0.358 C  
HETATM    2  C   UNL     1     -10.900  13.514  69.247  1.00  0.00    -0.107 C  
HETATM    3  C   UNL     1      -9.914  13.998  68.139  1.00  0.00    -0.242 C  
HETATM    4  C   UNL     1      -9.992   8.465  70.046  1.00  0.00    -0.188 C  
HETATM    5  C   UNL     1     -10.790  14.853  67.224  1.00  0.00    -0.306 C  
HETATM    6  C   UNL     1     -11.543  11.130  69.503  1.00  0.00    -0.321 C  
HETATM    7  C   UNL     1     -11.815  13.851  66.582  1.00  0.00    -0.447 C  
HETATM    8  C   UNL     1      -9.469   9.912  69.980  1.00  0.00    -0.202 C  
HETATM    9  C   UNL     1     -10.098   7.950  68.653  1.00  0.00    -0.210 A  
HETATM   10  C   UNL     1     -12.003  12.382  67.273  1.00  0.00    -0.246 C  
HETATM   11  C   UNL     1      -9.747   5.560  65.976  1.00  0.00    -0.107 A  
HETATM   12  C   UNL     1     -10.225   8.807  67.573  1.00  0.00    -0.246 A  
HETATM   13  N   UNL     1     -10.114   8.035  66.442  1.00  0.00    -0.476 NA 
HETATM   14  C   UNL     1     -11.318  11.046  66.752  1.00  0.00    -0.052 C  
HETATM   15  C   UNL     1      -9.588   4.321  66.615  1.00  0.00    -0.201 A  
HETATM   16  N   UNL     1     -10.218  10.775  69.050  1.00  0.00    -0.206 NA 
HETATM   17  C   UNL     1      -9.617   4.244  67.996  1.00  0.00    -0.204 A  
HETATM   18  C   UNL     1     -10.219  10.331  67.645  1.00  0.00    -0.205 C  
HETATM   19  C   UNL     1      -9.788   5.376  68.807  1.00  0.00    -0.208 A  
HETATM   20  C   UNL     1      -9.967   6.629  68.177  1.00  0.00    -0.156 A  
HETATM   21  H   UNL     1     -10.151   8.392  65.488  1.00  0.00     0.000 HD 
HETATM   22  C   UNL     1      -9.943   6.700  66.783  1.00  0.00    -0.176 A  
ENDROOT
BRANCH   3  23
HETATM   23  O   UNL     1      -9.282  12.978  67.285  1.00  0.00    -0.197 OA 
BRANCH  23  24
HETATM   24  C   UNL     1      -7.924  13.038  67.277  1.00  0.00    -0.138 C  
HETATM   25  O   UNL     1      -7.320  14.101  67.365  1.00  0.00    -0.180 OA 
BRANCH  24  26
HETATM   26  C   UNL     1      -7.113  11.764  67.187  1.00  0.00    -0.146 A  
HETATM   27  C   UNL     1      -7.074  10.776  66.208  1.00  0.00    -0.134 A  
HETATM   28  C   UNL     1      -5.794  10.282  68.619  1.00  0.00    -0.037 A  
HETATM   29  C   UNL     1      -6.466   9.514  66.434  1.00  0.00    -0.070 A  
HETATM   30  C   UNL     1      -6.332  11.535  68.315  1.00  0.00    -0.046 A  
HETATM   31  C   UNL     1      -5.881   9.231  67.688  1.00  0.00    -0.045 A  
BRANCH  28  32
HETATM   32  O   UNL     1      -5.187  10.098  69.838  1.00  0.00    -0.037 OA 
HETATM   33  C   UNL     1      -6.079   9.770  70.910  1.00  0.00    -0.089 C  
ENDBRANCH  28  32
BRANCH  31  34
HETATM   34  O   UNL     1      -5.467   7.945  67.904  1.00  0.00    -0.031 OA 
HETATM   35  C   UNL     1      -6.384   6.994  68.430  1.00  0.00    -0.035 C  
ENDBRANCH  31  34
BRANCH  29  36
HETATM   36  O   UNL     1      -6.585   8.682  65.338  1.00  0.00    -0.065 OA 
HETATM   37  C   UNL     1      -7.441   9.069  64.265  1.00  0.00    -0.106 C  
ENDBRANCH  29  36
ENDBRANCH  24  26
ENDBRANCH  23  24
ENDBRANCH   3  23
BRANCH   5  38
HETATM   38  O   UNL     1     -11.448  15.859  68.023  1.00  0.00    -0.328 OA 
HETATM   39  C   UNL     1     -10.737  17.064  68.260  1.00  0.00    -0.372 C  
ENDBRANCH   5  38
BRANCH   7  40
HETATM   40  C   UNL     1     -11.586  13.788  65.083  1.00  0.00    -0.331 C  
HETATM   41  O   UNL     1     -10.575  14.153  64.497  1.00  0.00    -0.406 OA 
BRANCH  40  42
HETATM   42  O   UNL     1     -12.701  13.313  64.473  1.00  0.00    -0.639 OA 
HETATM   43  C   UNL     1     -12.498  12.275  63.515  1.00  0.00    -0.534 C  
ENDBRANCH  40  42
ENDBRANCH   7  40
BRANCH  15  44
HETATM   44  O   UNL     1      -9.400   3.113  65.995  1.00  0.00    -0.154 OA 
HETATM   45  C   UNL     1      -8.060   2.682  65.810  1.00  0.00    -0.084 C  
ENDBRANCH  15  44
TORSDOF 10
ENDMDL
MODEL        6
REMARK 921   NORMALIZED FREE ENERGY PREDICTED BY IDOCK:   -5.66 KCAL/MOL
REMARK 922        TOTAL FREE ENERGY PREDICTED BY IDOCK:  -11.73 KCAL/MOL
REMARK 923 INTER-LIGAND FREE ENERGY PREDICTED BY IDOCK:   -9.55 KCAL/MOL
REMARK 924 INTRA-LIGAND FREE ENERGY PREDICTED BY IDOCK:   -2.18 KCAL/MOL
REMARK 927      BINDING AFFINITY PREDICTED BY RF-SCORE:    0.00 PKD
ROOT
HETATM    1  C   UNL     1      -9.986  14.815  65.397  1.00  0.00    -0.369 C  
HETATM    2  C   UNL     1     -11.429  15.066  65.845  1.00  0.00    -0.224 C  
HETATM    3  C   UNL     1     -11.710  14.824  67.361  1.00  0.00    -0.350 C  
HETATM    4  C   UNL     1     -10.013  10.520  63.777  1.00  0.00    -0.324 C  
HETATM    5  C   UNL     1     -11.032  16.008  68.048  1.00  0.00    -0.341 C  
HETATM    6  C   UNL     1      -9.974  13.564  64.508  1.00  0.00     0.016 C  
HETATM    7  C   UNL     1      -9.495  15.813  67.784  1.00  0.00    -0.212 C  
HETATM    8  C   UNL     1     -11.034  11.354  64.571  1.00  0.00    -0.277 C  
HETATM    9  C   UNL     1      -8.913  10.135  64.704  1.00  0.00    -0.241 A  
HETATM   10  C   UNL     1      -9.036  14.775  66.607  1.00  0.00    -0.286 C  
HETATM   11  C   UNL     1      -6.487   7.944  66.227  1.00  0.00    -0.047 A  
HETATM   12  C   UNL     1      -8.645  10.864  65.851  1.00  0.00    -0.176 A  
HETATM   13  N   UNL     1      -7.712  10.150  66.563  1.00  0.00    -0.106 NA 
HETATM   14  C   UNL     1      -8.551  13.283  66.859  1.00  0.00    -0.116 C  
HETATM   15  C   UNL     1      -6.343   6.879  65.324  1.00  0.00    -0.043 A  
HETATM   16  N   UNL     1     -10.437  12.467  65.328  1.00  0.00    -0.281 NA 
HETATM   17  C   UNL     1      -7.055   6.874  64.138  1.00  0.00    -0.059 A  
HETATM   18  C   UNL     1      -9.436  12.075  66.335  1.00  0.00    -0.231 C  
HETATM   19  C   UNL     1      -7.947   7.902  63.794  1.00  0.00    -0.119 A  
HETATM   20  C   UNL     1      -8.089   8.990  64.686  1.00  0.00    -0.144 A  
HETATM   21  H   UNL     1      -7.330  10.429  67.465  1.00  0.00     0.000 HD 
HETATM   22  C   UNL     1      -7.363   8.993  65.878  1.00  0.00    -0.093 A  
ENDROOT
BRANCH   3  23
HETATM   23  O   UNL     1     -11.159  13.606  67.979  1.00  0.00    -0.247 OA 
BRANCH  23  24
HETATM   24  C   UNL     1     -11.802  13.233  69.117  1.00  0.00    -0.329 C  
HETATM   25  O   UNL     1     -12.408  14.038  69.815  1.00  0.00    -0.336 OA 
BRANCH  24  26
HETATM   26  C   UNL     1     -11.806  11.780  69.540  1.00  0.00    -0.402 A  
HETATM   27  C   UNL     1     -12.282  11.169  70.696  1.00  0.00    -0.492 A  
HETATM   28  C   UNL     1     -10.725   9.662  68.963  1.00  0.00    -0.211 A  
HETATM   29  C   UNL     1     -11.939   9.836  71.039  1.00  0.00    -0.352 A  
HETATM   30  C   UNL     1     -11.161  10.947  68.631  1.00  0.00    -0.305 A  
HETATM   31  C   UNL     1     -11.082   9.092  70.198  1.00  0.00    -0.207 A  
BRANCH  28  32
HETATM   32  O   UNL     1      -9.942   8.975  68.067  1.00  0.00    -0.161 OA 
HETATM   33  C   UNL     1     -10.659   8.089  67.198  1.00  0.00    -0.297 C  
ENDBRANCH  28  32
BRANCH  31  34
HETATM   34  O   UNL     1     -10.650   7.881  70.666  1.00  0.00    -0.212 OA 
HETATM   35  C   UNL     1     -11.463   6.729  70.481  1.00  0.00    -0.360 C  
ENDBRANCH  31  34
BRANCH  29  36
HETATM   36  O   UNL     1     -12.492   9.458  72.247  1.00  0.00    -0.341 OA 
HETATM   37  C   UNL     1     -13.861   9.059  72.287  1.00  0.00    -0.484 C  
ENDBRANCH  29  36
ENDBRANCH  24  26
ENDBRANCH  23  24
ENDBRANCH   3  23
BRANCH   5  38
HETATM   38  O   UNL     1     -11.528  17.230  67.460  1.00  0.00     0.225 OA 
HETATM   39  C   UNL     1     -10.640  18.337  67.422  1.00  0.00    -0.401 C  
ENDBRANCH   5  38
BRANCH   7  40
HETATM   40  C   UNL     1      -8.783  15.581  69.104  1.00  0.00    -0.247 C  
HETATM   41  O   UNL     1      -9.303  15.181  70.138  1.00  0.00     0.049 OA 
BRANCH  40  42
HETATM   42  O   UNL     1      -7.480  15.940  68.985  1.00  0.00    -0.166 OA 
HETATM   43  C   UNL     1      -7.232  17.233  68.436  1.00  0.00    -0.220 C  
ENDBRANCH  40  42
ENDBRANCH   7  40
BRANCH  15  44
HETATM   44  O   UNL     1      -5.533   5.787  65.490  1.00  0.00    -0.012 OA 
HETATM   45  C   UNL     1      -5.670   4.729  64.552  1.00  0.00    -0.014 C  
ENDBRANCH  15  44
TORSDOF 10
ENDMDL
MODEL        7
REMARK 921   NORMALIZED FREE ENERGY PREDICTED BY IDOCK:   -5.63 KCAL/MOL
REMARK 922        TOTAL FREE ENERGY PREDICTED BY IDOCK:  -11.69 KCAL/MOL
REMARK 923 INTER-LIGAND FREE ENERGY PREDICTED BY IDOCK:   -9.35 KCAL/MOL
REMARK 924 INTRA-LIGAND FREE ENERGY PREDICTED BY IDOCK:   -2.34 KCAL/MOL
REMARK 927      BINDING AFFINITY PREDICTED BY RF-SCORE:    0.00 PKD
ROOT
HETATM    1  C   UNL     1      -5.849  10.537  67.351  1.00  0.00    -0.045 C  
HETATM    2  C   UNL     1      -5.990   9.516  68.484  1.00  0.00    -0.043 C  
HETATM    3  C   UNL     1      -7.443   9.019  68.759  1.00  0.00    -0.076 C  
HETATM    4  C   UNL     1      -5.875  14.613  69.459  1.00  0.00    -0.101 C  
HETATM    5  C   UNL     1      -7.744   8.107  67.571  1.00  0.00    -0.102 C  
HETATM    6  C   UNL     1      -5.473  11.889  67.971  1.00  0.00    -0.049 C  
HETATM    7  C   UNL     1      -7.765   9.055  66.318  1.00  0.00    -0.095 C  
HETATM    8  C   UNL     1      -6.183  13.181  69.930  1.00  0.00    -0.094 C  
HETATM    9  C   UNL     1      -7.010  15.074  68.613  1.00  0.00    -0.110 A  
HETATM   10  C   UNL     1      -7.103  10.543  66.460  1.00  0.00    -0.120 C  
HETATM   11  C   UNL     1      -9.509  17.372  67.398  1.00  0.00    -0.246 A  
HETATM   12  C   UNL     1      -7.847  14.174  67.973  1.00  0.00    -0.146 A  
HETATM   13  N   UNL     1      -8.879  14.907  67.438  1.00  0.00    -0.183 NA 
HETATM   14  C   UNL     1      -7.930  11.878  66.710  1.00  0.00    -0.087 C  
HETATM   15  C   UNL     1      -9.071  18.639  67.816  1.00  0.00    -0.285 A  
HETATM   16  N   UNL     1      -6.563  12.264  68.842  1.00  0.00    -0.088 NA 
HETATM   17  C   UNL     1      -7.884  18.766  68.515  1.00  0.00    -0.367 A  
HETATM   18  C   UNL     1      -7.763  12.655  68.082  1.00  0.00    -0.142 C  
HETATM   19  C   UNL     1      -7.086  17.660  68.846  1.00  0.00    -0.254 A  
HETATM   20  C   UNL     1      -7.506  16.380  68.416  1.00  0.00    -0.171 A  
HETATM   21  H   UNL     1      -9.663  14.514  66.919  1.00  0.00     0.000 HD 
HETATM   22  C   UNL     1      -8.701  16.258  67.705  1.00  0.00    -0.179 A  
ENDROOT
BRANCH   3  23
HETATM   23  O   UNL     1      -8.520  10.024  68.801  1.00  0.00    -0.114 OA 
BRANCH  23  24
HETATM   24  C   UNL     1      -9.508   9.727  69.687  1.00  0.00    -0.219 C  
HETATM   25  O   UNL     1      -9.470   8.725  70.392  1.00  0.00    -0.162 OA 
BRANCH  24  26
HETATM   26  C   UNL     1     -10.686  10.664  69.843  1.00  0.00    -0.260 A  
HETATM   27  C   UNL     1     -10.932  11.918  69.293  1.00  0.00    -0.208 A  
HETATM   28  C   UNL     1     -12.606  11.023  71.316  1.00  0.00    -0.412 A  
HETATM   29  C   UNL     1     -11.959  12.767  69.781  1.00  0.00    -0.292 A  
HETATM   30  C   UNL     1     -11.638  10.196  70.743  1.00  0.00    -0.445 A  
HETATM   31  C   UNL     1     -12.763  12.346  70.864  1.00  0.00    -0.185 A  
BRANCH  28  32
HETATM   32  O   UNL     1     -13.393  10.524  72.326  1.00  0.00    -0.384 OA 
HETATM   33  C   UNL     1     -13.593   9.105  72.287  1.00  0.00    -0.489 C  
ENDBRANCH  28  32
BRANCH  31  34
HETATM   34  O   UNL     1     -13.616  13.271  71.401  1.00  0.00    -0.180 OA 
HETATM   35  C   UNL     1     -13.227  13.986  72.567  1.00  0.00    -0.505 C  
ENDBRANCH  31  34
BRANCH  29  36
HETATM   36  O   UNL     1     -11.990  13.974  69.112  1.00  0.00    -0.329 OA 
HETATM   37  C   UNL     1     -12.145  13.977  67.694  1.00  0.00    -0.309 C  
ENDBRANCH  29  36
ENDBRANCH  24  26
ENDBRANCH  23  24
ENDBRANCH   3  23
BRANCH   5  38
HETATM   38  O   UNL     1      -6.702   7.112  67.476  1.00  0.00    -0.059 OA 
HETATM   39  C   UNL     1      -6.569   6.430  66.239  1.00  0.00    -0.048 C  
ENDBRANCH   5  38
BRANCH   7  40
HETATM   40  C   UNL     1      -9.160   9.069  65.721  1.00  0.00    -0.219 C  
HETATM   41  O   UNL     1     -10.203   8.862  66.329  1.00  0.00    -0.284 OA 
BRANCH  40  42
HETATM   42  O   UNL     1      -9.079   9.293  64.385  1.00  0.00    -0.189 OA 
HETATM   43  C   UNL     1      -9.839  10.392  63.886  1.00  0.00    -0.267 C  
ENDBRANCH  40  42
ENDBRANCH   7  40
BRANCH  15  44
HETATM   44  O   UNL     1      -9.717  19.827  67.597  1.00  0.00    -0.333 OA 
HETATM   45  C   UNL     1     -10.448  19.954  66.386  1.00  0.00    -0.475 C  
ENDBRANCH  15  44
TORSDOF 10
ENDMDL
MODEL        8
REMARK 921   NORMALIZED FREE ENERGY PREDICTED BY IDOCK:   -5.60 KCAL/MOL
REMARK 922        TOTAL FREE ENERGY PREDICTED BY IDOCK:  -11.63 KCAL/MOL
REMARK 923 INTER-LIGAND FREE ENERGY PREDICTED BY IDOCK:   -8.56 KCAL/MOL
REMARK 924 INTRA-LIGAND FREE ENERGY PREDICTED BY IDOCK:   -3.07 KCAL/MOL
REMARK 927      BINDING AFFINITY PREDICTED BY RF-SCORE:    0.00 PKD
ROOT
HETATM    1  C   UNL     1     -11.170   8.910  71.515  1.00  0.00    -0.396 C  
HETATM    2  C   UNL     1     -11.985   7.800  70.845  1.00  0.00    -0.229 C  
HETATM    3  C   UNL     1     -11.187   6.882  69.867  1.00  0.00    -0.285 C  
HETATM    4  C   UNL     1     -11.889  12.610  68.896  1.00  0.00    -0.345 C  
HETATM    5  C   UNL     1     -10.326   6.027  70.796  1.00  0.00    -0.224 C  
HETATM    6  C   UNL     1     -11.637  10.255  70.943  1.00  0.00    -0.365 C  
HETATM    7  C   UNL     1      -9.326   7.031  71.473  1.00  0.00    -0.154 C  
HETATM    8  C   UNL     1     -12.209  11.115  68.719  1.00  0.00    -0.010 C  
HETATM    9  C   UNL     1     -10.423  12.793  68.705  1.00  0.00    -0.230 A  
HETATM   10  C   UNL     1      -9.662   8.630  71.399  1.00  0.00    -0.314 C  
HETATM   11  C   UNL     1      -7.420  14.365  67.476  1.00  0.00    -0.206 A  
HETATM   12  C   UNL     1      -9.534  11.747  68.892  1.00  0.00     0.070 A  
HETATM   13  N   UNL     1      -8.307  12.193  68.463  1.00  0.00    -0.283 NA 
HETATM   14  C   UNL     1      -9.008   9.642  70.363  1.00  0.00    -0.239 C  
HETATM   15  C   UNL     1      -7.812  15.663  67.115  1.00  0.00    -0.217 A  
HETATM   16  N   UNL     1     -11.358  10.223  69.526  1.00  0.00    -0.249 NA 
HETATM   17  C   UNL     1      -9.121  16.068  67.298  1.00  0.00    -0.217 A  
HETATM   18  C   UNL     1      -9.914  10.314  69.249  1.00  0.00    -0.227 C  
HETATM   19  C   UNL     1     -10.103  15.216  67.827  1.00  0.00    -0.230 A  
HETATM   20  C   UNL     1      -9.719  13.911  68.212  1.00  0.00    -0.223 A  
HETATM   21  H   UNL     1      -7.453  11.636  68.463  1.00  0.00     0.000 HD 
HETATM   22  C   UNL     1      -8.394  13.510  68.032  1.00  0.00    -0.168 A  
ENDROOT
BRANCH   3  23
HETATM   23  O   UNL     1     -10.266   7.525  68.914  1.00  0.00    -0.197 OA 
BRANCH  23  24
HETATM   24  C   UNL     1     -10.471   7.153  67.623  1.00  0.00    -0.239 C  
HETATM   25  O   UNL     1     -11.354   6.365  67.306  1.00  0.00    -0.295 OA 
BRANCH  24  26
HETATM   26  C   UNL     1      -9.612   7.740  66.524  1.00  0.00    -0.270 A  
HETATM   27  C   UNL     1      -8.550   7.194  65.807  1.00  0.00    -0.143 A  
HETATM   28  C   UNL     1      -9.042   9.913  65.554  1.00  0.00    -0.189 A  
HETATM   29  C   UNL     1      -7.684   7.994  65.018  1.00  0.00    -0.112 A  
HETATM   30  C   UNL     1      -9.913   9.070  66.249  1.00  0.00    -0.352 A  
HETATM   31  C   UNL     1      -7.885   9.390  64.949  1.00  0.00    -0.117 A  
BRANCH  28  32
HETATM   32  O   UNL     1      -9.335  11.253  65.479  1.00  0.00    -0.218 OA 
HETATM   33  C   UNL     1     -10.720  11.556  65.273  1.00  0.00    -0.279 C  
ENDBRANCH  28  32
BRANCH  31  34
HETATM   34  O   UNL     1      -6.920  10.126  64.317  1.00  0.00    -0.130 OA 
HETATM   35  C   UNL     1      -5.793  10.582  65.054  1.00  0.00    -0.115 C  
ENDBRANCH  31  34
BRANCH  29  36
HETATM   36  O   UNL     1      -6.682   7.244  64.435  1.00  0.00    -0.042 OA 
HETATM   37  C   UNL     1      -5.658   6.694  65.261  1.00  0.00    -0.030 C  
ENDBRANCH  29  36
ENDBRANCH  24  26
ENDBRANCH  23  24
ENDBRANCH   3  23
BRANCH   5  38
HETATM   38  O   UNL     1     -11.186   5.388  71.765  1.00  0.00    -0.157 OA 
HETATM   39  C   UNL     1     -10.650   5.170  73.061  1.00  0.00    -0.230 C  
ENDBRANCH   5  38
BRANCH   7  40
HETATM   40  C   UNL     1      -7.908   6.693  71.050  1.00  0.00    -0.102 C  
HETATM   41  O   UNL     1      -6.887   7.211  71.485  1.00  0.00    -0.055 OA 
BRANCH  40  42
HETATM   42  O   UNL     1      -7.939   5.759  70.067  1.00  0.00    -0.095 OA 
HETATM   43  C   UNL     1      -7.016   5.946  68.995  1.00  0.00    -0.068 C  
ENDBRANCH  40  42
ENDBRANCH   7  40
BRANCH  15  44
HETATM   44  O   UNL     1      -7.002  16.628  66.576  1.00  0.00    -0.223 OA 
HETATM   45  C   UNL     1      -6.684  17.741  67.399  1.00  0.00    -0.164 C  
ENDBRANCH  15  44
TORSDOF 10
ENDMDL
MODEL        9
REMARK 921   NORMALIZED FREE ENERGY PREDICTED BY IDOCK:   -5.51 KCAL/MOL
REMARK 922        TOTAL FREE ENERGY PREDICTED BY IDOCK:  -11.50 KCAL/MOL
REMARK 923 INTER-LIGAND FREE ENERGY PREDICTED BY IDOCK:   -9.57 KCAL/MOL
REMARK 924 INTRA-LIGAND FREE ENERGY PREDICTED BY IDOCK:   -1.93 KCAL/MOL
REMARK 927      BINDING AFFINITY PREDICTED BY RF-SCORE:    0.00 PKD
ROOT
HETATM    1  C   UNL     1      -6.073   9.708  67.247  1.00  0.00    -0.056 C  
HETATM    2  C   UNL     1      -6.030   9.014  68.612  1.00  0.00    -0.045 C  
HETATM    3  C   UNL     1      -7.408   8.527  69.158  1.00  0.00    -0.079 C  
HETATM    4  C   UNL     1      -6.240  14.187  68.236  1.00  0.00    -0.117 C  
HETATM    5  C   UNL     1      -7.740   7.321  68.281  1.00  0.00    -0.120 C  
HETATM    6  C   UNL     1      -5.754  11.194  67.458  1.00  0.00    -0.047 C  
HETATM    7  C   UNL     1      -7.948   7.905  66.838  1.00  0.00    -0.108 C  
HETATM    8  C   UNL     1      -6.388  12.913  69.087  1.00  0.00    -0.105 C  
HETATM    9  C   UNL     1      -7.479  14.348  67.427  1.00  0.00    -0.183 A  
HETATM   10  C   UNL     1      -7.399   9.413  66.524  1.00  0.00    -0.093 C  
HETATM   11  C   UNL     1     -10.254  16.107  65.941  1.00  0.00    -0.381 A  
HETATM   12  C   UNL     1      -8.294  13.267  67.131  1.00  0.00    -0.135 A  
HETATM   13  N   UNL     1      -9.425  13.777  66.541  1.00  0.00    -0.328 NA 
HETATM   14  C   UNL     1      -8.304  10.719  66.512  1.00  0.00    -0.146 C  
HETATM   15  C   UNL     1      -9.883  17.461  65.973  1.00  0.00    -0.183 A  
HETATM   16  N   UNL     1      -6.788  11.724  68.316  1.00  0.00    -0.064 NA 
HETATM   17  C   UNL     1      -8.653  17.831  66.486  1.00  0.00    -0.283 A  
HETATM   18  C   UNL     1      -8.079  11.836  67.614  1.00  0.00    -0.144 C  
HETATM   19  C   UNL     1      -7.742  16.896  67.000  1.00  0.00    -0.230 A  
HETATM   20  C   UNL     1      -8.094  15.527  66.958  1.00  0.00    -0.272 A  
HETATM   21  H   UNL     1     -10.219  13.220  66.227  1.00  0.00     0.000 HD 
HETATM   22  C   UNL     1      -9.334  15.159  66.434  1.00  0.00    -0.301 A  
ENDROOT
BRANCH   3  23
HETATM   23  O   UNL     1      -8.554   9.448  69.057  1.00  0.00    -0.127 OA 
BRANCH  23  24
HETATM   24  C   UNL     1      -9.452   9.313  70.069  1.00  0.00    -0.211 C  
HETATM   25  O   UNL     1      -9.299   8.495  70.969  1.00  0.00    -0.158 OA 
BRANCH  24  26
HETATM   26  C   UNL     1     -10.671  10.207  70.119  1.00  0.00    -0.355 A  
HETATM   27  C   UNL     1     -10.954  11.401  69.461  1.00  0.00    -0.226 A  
HETATM   28  C   UNL     1     -12.643  10.604  71.513  1.00  0.00    -0.412 A  
HETATM   29  C   UNL     1     -12.027  12.242  69.854  1.00  0.00    -0.306 A  
HETATM   30  C   UNL     1     -11.627   9.774  71.033  1.00  0.00    -0.455 A  
HETATM   31  C   UNL     1     -12.841  11.877  70.949  1.00  0.00    -0.130 A  
BRANCH  28  32
HETATM   32  O   UNL     1     -13.435  10.156  72.542  1.00  0.00    -0.236 OA 
HETATM   33  C   UNL     1     -13.832   8.783  72.442  1.00  0.00    -0.416 C  
ENDBRANCH  28  32
BRANCH  31  34
HETATM   34  O   UNL     1     -13.745  12.807  71.387  1.00  0.00     0.107 OA 
HETATM   35  C   UNL     1     -13.434  13.602  72.524  1.00  0.00    -0.570 C  
ENDBRANCH  31  34
BRANCH  29  36
HETATM   36  O   UNL     1     -12.088  13.388  69.086  1.00  0.00    -0.317 OA 
HETATM   37  C   UNL     1     -11.386  14.551  69.519  1.00  0.00    -0.275 C  
ENDBRANCH  29  36
ENDBRANCH  24  26
ENDBRANCH  23  24
ENDBRANCH   3  23
BRANCH   5  38
HETATM   38  O   UNL     1      -6.633   6.395  68.331  1.00  0.00    -0.053 OA 
HETATM   39  C   UNL     1      -6.893   5.054  67.947  1.00  0.00    -0.060 C  
ENDBRANCH   5  38
BRANCH   7  40
HETATM   40  C   UNL     1      -9.387   7.687  66.409  1.00  0.00    -0.172 C  
HETATM   41  O   UNL     1     -10.257   8.548  66.351  1.00  0.00    -0.273 OA 
BRANCH  40  42
HETATM   42  O   UNL     1      -9.589   6.371  66.149  1.00  0.00    -0.113 OA 
HETATM   43  C   UNL     1     -10.777   5.798  66.692  1.00  0.00    -0.262 C  
ENDBRANCH  40  42
ENDBRANCH   7  40
BRANCH  15  44
HETATM   44  O   UNL     1     -10.640  18.513  65.529  1.00  0.00    -0.621 OA 
HETATM   45  C   UNL     1     -10.527  19.738  66.239  1.00  0.00    -0.506 C  
ENDBRANCH  15  44
TORSDOF 10
ENDMDL
MODEL       10
REMARK 921   NORMALIZED FREE ENERGY PREDICTED BY IDOCK:   -5.46 KCAL/MOL
REMARK 922        TOTAL FREE ENERGY PREDICTED BY IDOCK:  -11.41 KCAL/MOL
REMARK 923 INTER-LIGAND FREE ENERGY PREDICTED BY IDOCK:   -8.84 KCAL/MOL
REMARK 924 INTRA-LIGAND FREE ENERGY PREDICTED BY IDOCK:   -2.58 KCAL/MOL
REMARK 927      BINDING AFFINITY PREDICTED BY RF-SCORE:    0.00 PKD
ROOT
HETATM    1  C   UNL     1      -6.447   9.570  66.547  1.00  0.00    -0.067 C  
HETATM    2  C   UNL     1      -5.724   8.822  67.672  1.00  0.00    -0.039 C  
HETATM    3  C   UNL     1      -6.635   8.325  68.837  1.00  0.00    -0.053 C  
HETATM    4  C   UNL     1      -5.957  14.007  67.613  1.00  0.00    -0.048 C  
HETATM    5  C   UNL     1      -7.404   7.157  68.222  1.00  0.00    -0.100 C  
HETATM    6  C   UNL     1      -6.024  11.044  66.607  1.00  0.00    -0.114 C  
HETATM    7  C   UNL     1      -8.312   7.799  67.112  1.00  0.00    -0.118 C  
HETATM    8  C   UNL     1      -5.680  12.702  68.380  1.00  0.00    -0.060 C  
HETATM    9  C   UNL     1      -7.432  14.209  67.566  1.00  0.00    -0.192 A  
HETATM   10  C   UNL     1      -7.963   9.314  66.605  1.00  0.00    -0.108 C  
HETATM   11  C   UNL     1     -10.527  16.048  67.780  1.00  0.00    -0.298 A  
HETATM   12  C   UNL     1      -8.312  13.148  67.701  1.00  0.00    -0.174 A  
HETATM   13  N   UNL     1      -9.571  13.689  67.796  1.00  0.00    -0.217 NA 
HETATM   14  C   UNL     1      -8.709  10.626  67.101  1.00  0.00    -0.130 C  
HETATM   15  C   UNL     1     -10.156  17.396  67.656  1.00  0.00    -0.327 A  
HETATM   16  N   UNL     1      -6.453  11.547  67.892  1.00  0.00    -0.054 NA 
HETATM   17  C   UNL     1      -8.829  17.736  67.470  1.00  0.00    -0.243 A  
HETATM   18  C   UNL     1      -7.917  11.697  67.961  1.00  0.00    -0.132 C  
HETATM   19  C   UNL     1      -7.809  16.774  67.412  1.00  0.00    -0.193 A  
HETATM   20  C   UNL     1      -8.169  15.411  67.517  1.00  0.00    -0.187 A  
HETATM   21  H   UNL     1     -10.428  13.151  67.920  1.00  0.00     0.000 HD 
HETATM   22  C   UNL     1      -9.511  15.073  67.698  1.00  0.00    -0.195 A  
ENDROOT
BRANCH   3  23
HETATM   23  O   UNL     1      -7.643   9.258  69.370  1.00  0.00    -0.074 OA 
BRANCH  23  24
HETATM   24  C   UNL     1      -7.822   9.157  70.714  1.00  0.00    -0.149 C  
HETATM   25  O   UNL     1      -6.893   9.281  71.505  1.00  0.00    -0.260 OA 
BRANCH  24  26
HETATM   26  C   UNL     1      -9.206   8.912  71.275  1.00  0.00    -0.328 A  
HETATM   27  C   UNL     1      -9.672   7.945  72.161  1.00  0.00    -0.257 A  
HETATM   28  C   UNL     1     -11.536   9.512  70.831  1.00  0.00    -0.326 A  
HETATM   29  C   UNL     1     -11.057   7.698  72.346  1.00  0.00    -0.310 A  
HETATM   30  C   UNL     1     -10.166   9.771  70.750  1.00  0.00    -0.251 A  
HETATM   31  C   UNL     1     -12.008   8.440  71.611  1.00  0.00    -0.307 A  
BRANCH  28  32
HETATM   32  O   UNL     1     -12.406  10.315  70.135  1.00  0.00    -0.234 OA 
HETATM   33  C   UNL     1     -12.062  11.707  70.124  1.00  0.00    -0.333 C  
ENDBRANCH  28  32
BRANCH  31  34
HETATM   34  O   UNL     1     -13.313   8.040  71.702  1.00  0.00    -0.335 OA 
HETATM   35  C   UNL     1     -14.218   8.785  72.508  1.00  0.00    -0.314 C  
ENDBRANCH  31  34
BRANCH  29  36
HETATM   36  O   UNL     1     -11.280   6.669  73.239  1.00  0.00    -0.179 OA 
HETATM   37  C   UNL     1     -11.308   5.327  72.758  1.00  0.00    -0.276 C  
ENDBRANCH  29  36
ENDBRANCH  24  26
ENDBRANCH  23  24
ENDBRANCH   3  23
BRANCH   5  38
HETATM   38  O   UNL     1      -6.456   6.221  67.666  1.00  0.00    -0.042 OA 
HETATM   39  C   UNL     1      -6.904   5.403  66.597  1.00  0.00    -0.063 C  
ENDBRANCH   5  38
BRANCH   7  40
HETATM   40  C   UNL     1      -9.771   7.609  67.482  1.00  0.00    -0.156 C  
HETATM   41  O   UNL     1     -10.731   8.048  66.861  1.00  0.00    -0.322 OA 
BRANCH  40  42
HETATM   42  O   UNL     1      -9.858   6.919  68.647  1.00  0.00    -0.142 OA 
HETATM   43  C   UNL     1     -11.100   6.264  68.898  1.00  0.00    -0.362 C  
ENDBRANCH  40  42
ENDBRANCH   7  40
BRANCH  15  44
HETATM   44  O   UNL     1     -11.005  18.471  67.698  1.00  0.00    -0.355 OA 
HETATM   45  C   UNL     1     -10.416  19.758  67.818  1.00  0.00    -0.416 C  
ENDBRANCH  15  44
TORSDOF 10
ENDMDL
MODEL       11
REMARK 921   NORMALIZED FREE ENERGY PREDICTED BY IDOCK:   -5.45 KCAL/MOL
REMARK 922        TOTAL FREE ENERGY PREDICTED BY IDOCK:  -11.40 KCAL/MOL
REMARK 923 INTER-LIGAND FREE ENERGY PREDICTED BY IDOCK:   -8.91 KCAL/MOL
REMARK 924 INTRA-LIGAND FREE ENERGY PREDICTED BY IDOCK:   -2.48 KCAL/MOL
REMARK 927      BINDING AFFINITY PREDICTED BY RF-SCORE:    0.00 PKD
ROOT
HETATM    1  C   UNL     1     -11.059   9.068  71.403  1.00  0.00    -0.399 C  
HETATM    2  C   UNL     1     -11.864   7.956  70.722  1.00  0.00    -0.190 C  
HETATM    3  C   UNL     1     -11.047   7.023  69.775  1.00  0.00    -0.241 C  
HETATM    4  C   UNL     1     -11.684  12.747  68.731  1.00  0.00    -0.363 C  
HETATM    5  C   UNL     1     -10.216   6.172  70.734  1.00  0.00    -0.198 C  
HETATM    6  C   UNL     1     -11.501  10.410  70.807  1.00  0.00    -0.332 C  
HETATM    7  C   UNL     1      -9.228   7.176  71.427  1.00  0.00    -0.150 C  
HETATM    8  C   UNL     1     -12.010  11.252  68.560  1.00  0.00    -0.218 C  
HETATM    9  C   UNL     1     -10.213  12.918  68.577  1.00  0.00    -0.210 A  
HETATM   10  C   UNL     1      -9.550   8.776  71.329  1.00  0.00    -0.323 C  
HETATM   11  C   UNL     1      -7.167  14.458  67.413  1.00  0.00    -0.148 A  
HETATM   12  C   UNL     1      -9.336  11.869  68.797  1.00  0.00     0.024 A  
HETATM   13  N   UNL     1      -8.095  12.302  68.397  1.00  0.00    -0.182 NA 
HETATM   14  C   UNL     1      -8.862   9.773  70.301  1.00  0.00    -0.188 C  
HETATM   15  C   UNL     1      -7.541  15.756  67.029  1.00  0.00    -0.222 A  
HETATM   16  N   UNL     1     -11.186  10.363  69.397  1.00  0.00    -0.246 NA 
HETATM   17  C   UNL     1      -8.852  16.171  67.173  1.00  0.00    -0.218 A  
HETATM   18  C   UNL     1      -9.735  10.441  69.157  1.00  0.00    -0.220 C  
HETATM   19  C   UNL     1      -9.853  15.331  67.685  1.00  0.00    -0.217 A  
HETATM   20  C   UNL     1      -9.488  14.027  68.092  1.00  0.00    -0.215 A  
HETATM   21  H   UNL     1      -7.245  11.739  68.424  1.00  0.00     0.000 HD 
HETATM   22  C   UNL     1      -8.162  13.616  67.950  1.00  0.00    -0.171 A  
ENDROOT
BRANCH   3  23
HETATM   23  O   UNL     1     -10.097   7.652  68.840  1.00  0.00    -0.186 OA 
BRANCH  23  24
HETATM   24  C   UNL     1     -10.385   7.419  67.532  1.00  0.00    -0.251 C  
HETATM   25  O   UNL     1     -11.255   6.626  67.189  1.00  0.00    -0.392 OA 
BRANCH  24  26
HETATM   26  C   UNL     1      -9.642   8.173  66.451  1.00  0.00    -0.286 A  
HETATM   27  C   UNL     1      -9.843   9.445  65.923  1.00  0.00    -0.362 A  
HETATM   28  C   UNL     1      -8.069   7.754  64.624  1.00  0.00    -0.123 A  
HETATM   29  C   UNL     1      -9.226   9.867  64.717  1.00  0.00    -0.254 A  
HETATM   30  C   UNL     1      -8.635   7.419  65.857  1.00  0.00    -0.165 A  
HETATM   31  C   UNL     1      -8.383   8.980  64.012  1.00  0.00    -0.176 A  
BRANCH  28  32
HETATM   32  O   UNL     1      -7.209   6.865  64.025  1.00  0.00    -0.058 OA 
HETATM   33  C   UNL     1      -6.449   6.058  64.933  1.00  0.00    -0.038 C  
ENDBRANCH  28  32
BRANCH  31  34
HETATM   34  O   UNL     1      -7.959   9.380  62.774  1.00  0.00    -0.121 OA 
HETATM   35  C   UNL     1      -6.737  10.098  62.652  1.00  0.00    -0.130 C  
ENDBRANCH  31  34
BRANCH  29  36
HETATM   36  O   UNL     1      -9.604  11.149  64.369  1.00  0.00    -0.235 OA 
HETATM   37  C   UNL     1     -10.596  11.815  65.147  1.00  0.00    -0.283 C  
ENDBRANCH  29  36
ENDBRANCH  24  26
ENDBRANCH  23  24
ENDBRANCH   3  23
BRANCH   5  38
HETATM   38  O   UNL     1     -11.106   5.548  71.686  1.00  0.00    -0.220 OA 
HETATM   39  C   UNL     1     -10.511   4.921  72.811  1.00  0.00    -0.205 C  
ENDBRANCH   5  38
BRANCH   7  40
HETATM   40  C   UNL     1      -7.802   6.824  71.044  1.00  0.00    -0.101 C  
HETATM   41  O   UNL     1      -6.792   7.397  71.437  1.00  0.00    -0.050 OA 
BRANCH  40  42
HETATM   42  O   UNL     1      -7.810   5.805  70.149  1.00  0.00    -0.094 OA 
HETATM   43  C   UNL     1      -7.080   6.022  68.943  1.00  0.00    -0.081 C  
ENDBRANCH  40  42
ENDBRANCH   7  40
BRANCH  15  44
HETATM   44  O   UNL     1      -6.711  16.710  66.502  1.00  0.00    -0.199 OA 
HETATM   45  C   UNL     1      -7.316  17.901  66.021  1.00  0.00    -0.271 C  
ENDBRANCH  15  44
TORSDOF 10
ENDMDL
MODEL       12
REMARK 921   NORMALIZED FREE ENERGY PREDICTED BY IDOCK:   -5.41 KCAL/MOL
REMARK 922        TOTAL FREE ENERGY PREDICTED BY IDOCK:  -11.33 KCAL/MOL
REMARK 923 INTER-LIGAND FREE ENERGY PREDICTED BY IDOCK:   -8.53 KCAL/MOL
REMARK 924 INTRA-LIGAND FREE ENERGY PREDICTED BY IDOCK:   -2.80 KCAL/MOL
REMARK 927      BINDING AFFINITY PREDICTED BY RF-SCORE:    0.00 PKD
ROOT
HETATM    1  C   UNL     1     -10.854   5.613  69.647  1.00  0.00    -0.365 C  
HETATM    2  C   UNL     1      -9.550   4.837  69.432  1.00  0.00    -0.249 C  
HETATM    3  C   UNL     1      -8.386   5.204  70.404  1.00  0.00    -0.105 C  
HETATM    4  C   UNL     1     -10.645   9.076  66.642  1.00  0.00    -0.158 C  
HETATM    5  C   UNL     1      -8.819   4.589  71.735  1.00  0.00    -0.117 C  
HETATM    6  C   UNL     1     -11.052   6.554  68.451  1.00  0.00    -0.254 C  
HETATM    7  C   UNL     1     -10.101   5.390  72.161  1.00  0.00    -0.237 C  
HETATM    8  C   UNL     1      -9.617   8.038  67.128  1.00  0.00    -0.175 C  
HETATM    9  C   UNL     1     -10.847  10.070  67.732  1.00  0.00    -0.337 A  
HETATM   10  C   UNL     1     -10.867   6.288  71.029  1.00  0.00    -0.326 C  
HETATM   11  C   UNL     1     -11.244  13.344  69.190  1.00  0.00    -0.300 A  
HETATM   12  C   UNL     1     -10.576   9.758  69.055  1.00  0.00    -0.219 A  
HETATM   13  N   UNL     1     -10.689  10.928  69.766  1.00  0.00    -0.434 NA 
HETATM   14  C   UNL     1     -10.699   7.859  70.859  1.00  0.00    -0.234 C  
HETATM   15  C   UNL     1     -11.601  14.177  68.118  1.00  0.00    -0.331 A  
HETATM   16  N   UNL     1      -9.929   7.463  68.448  1.00  0.00    -0.159 NA 
HETATM   17  C   UNL     1     -11.744  13.650  66.848  1.00  0.00    -0.423 A  
HETATM   18  C   UNL     1     -10.006   8.434  69.553  1.00  0.00    -0.190 C  
HETATM   19  C   UNL     1     -11.531  12.290  66.572  1.00  0.00    -0.438 A  
HETATM   20  C   UNL     1     -11.189  11.436  67.644  1.00  0.00    -0.346 A  
HETATM   21  H   UNL     1     -10.530  11.016  70.769  1.00  0.00     0.000 HD 
HETATM   22  C   UNL     1     -11.052  11.972  68.926  1.00  0.00    -0.247 A  
ENDROOT
BRANCH   3  23
HETATM   23  O   UNL     1      -8.128   6.630  70.664  1.00  0.00    -0.109 OA 
BRANCH  23  24
HETATM   24  C   UNL     1      -6.823   6.983  70.521  1.00  0.00    -0.057 C  
HETATM   25  O   UNL     1      -5.908   6.223  70.818  1.00  0.00    -0.021 OA 
BRANCH  24  26
HETATM   26  C   UNL     1      -6.466   8.339  69.953  1.00  0.00    -0.039 A  
HETATM   27  C   UNL     1      -6.422   9.595  70.551  1.00  0.00    -0.095 A  
HETATM   28  C   UNL     1      -6.211   9.452  67.789  1.00  0.00    -0.054 A  
HETATM   29  C   UNL     1      -6.344  10.790  69.790  1.00  0.00    -0.104 A  
HETATM   30  C   UNL     1      -6.204   8.306  68.587  1.00  0.00    -0.045 A  
HETATM   31  C   UNL     1      -6.316  10.724  68.380  1.00  0.00    -0.053 A  
BRANCH  28  32
HETATM   32  O   UNL     1      -6.120   9.312  66.425  1.00  0.00    -0.061 OA 
HETATM   33  C   UNL     1      -6.098   7.957  65.960  1.00  0.00    -0.038 C  
ENDBRANCH  28  32
BRANCH  31  34
HETATM   34  O   UNL     1      -6.416  11.908  67.700  1.00  0.00    -0.069 OA 
HETATM   35  C   UNL     1      -7.701  12.418  67.370  1.00  0.00    -0.170 C  
ENDBRANCH  31  34
BRANCH  29  36
HETATM   36  O   UNL     1      -6.356  11.913  70.595  1.00  0.00    -0.199 OA 
HETATM   37  C   UNL     1      -5.196  12.740  70.646  1.00  0.00    -0.135 C  
ENDBRANCH  29  36
ENDBRANCH  24  26
ENDBRANCH  23  24
ENDBRANCH   3  23
BRANCH   5  38
HETATM   38  O   UNL     1      -9.103   3.189  71.526  1.00  0.00    -0.088 OA 
HETATM   39  C   UNL     1     -10.125   2.611  72.323  1.00  0.00    -0.160 C  
ENDBRANCH   5  38
BRANCH   7  40
HETATM   40  C   UNL     1      -9.817   6.150  73.443  1.00  0.00    -0.167 C  
HETATM   41  O   UNL     1     -10.596   6.900  74.019  1.00  0.00    -0.349 OA 
BRANCH  40  42
HETATM   42  O   UNL     1      -8.540   5.919  73.835  1.00  0.00    -0.117 OA 
HETATM   43  C   UNL     1      -7.790   7.063  74.239  1.00  0.00    -0.114 C  
ENDBRANCH  40  42
ENDBRANCH   7  40
BRANCH  15  44
HETATM   44  O   UNL     1     -11.838  15.525  68.190  1.00  0.00    -0.301 OA 
HETATM   45  C   UNL     1     -10.716  16.388  68.074  1.00  0.00    -0.334 C  
ENDBRANCH  15  44
TORSDOF 10
ENDMDL
MODEL       13
REMARK 921   NORMALIZED FREE ENERGY PREDICTED BY IDOCK:   -5.36 KCAL/MOL
REMARK 922        TOTAL FREE ENERGY PREDICTED BY IDOCK:  -11.25 KCAL/MOL
REMARK 923 INTER-LIGAND FREE ENERGY PREDICTED BY IDOCK:   -8.23 KCAL/MOL
REMARK 924 INTRA-LIGAND FREE ENERGY PREDICTED BY IDOCK:   -3.02 KCAL/MOL
REMARK 927      BINDING AFFINITY PREDICTED BY RF-SCORE:    0.00 PKD
ROOT
HETATM    1  C   UNL     1     -10.848   5.732  69.316  1.00  0.00    -0.374 C  
HETATM    2  C   UNL     1      -9.507   5.022  69.100  1.00  0.00    -0.196 C  
HETATM    3  C   UNL     1      -8.398   5.355  70.147  1.00  0.00    -0.114 C  
HETATM    4  C   UNL     1     -10.652   9.420  66.591  1.00  0.00    -0.170 C  
HETATM    5  C   UNL     1      -8.861   4.625  71.408  1.00  0.00    -0.123 C  
HETATM    6  C   UNL     1     -11.033   6.753  68.187  1.00  0.00    -0.201 C  
HETATM    7  C   UNL     1     -10.190   5.344  71.836  1.00  0.00    -0.258 C  
HETATM    8  C   UNL     1      -9.605   8.386  67.043  1.00  0.00    -0.190 C  
HETATM    9  C   UNL     1     -10.938  10.320  67.743  1.00  0.00    -0.360 A  
HETATM   10  C   UNL     1     -10.944   6.298  70.743  1.00  0.00    -0.357 C  
HETATM   11  C   UNL     1     -11.522  13.456  69.424  1.00  0.00    -0.333 A  
HETATM   12  C   UNL     1     -10.709   9.917  69.049  1.00  0.00    -0.222 A  
HETATM   13  N   UNL     1     -10.897  11.024  69.840  1.00  0.00    -0.463 NA 
HETATM   14  C   UNL     1     -10.830   7.883  70.699  1.00  0.00    -0.238 C  
HETATM   15  C   UNL     1     -11.867  14.355  68.403  1.00  0.00    -0.319 A  
HETATM   16  N   UNL     1      -9.947   7.700  68.300  1.00  0.00    -0.170 NA 
HETATM   17  C   UNL     1     -11.938  13.922  67.091  1.00  0.00    -0.455 A  
HETATM   18  C   UNL     1     -10.108   8.580  69.471  1.00  0.00    -0.200 C  
HETATM   19  C   UNL     1     -11.661  12.596  66.723  1.00  0.00    -0.438 A  
HETATM   20  C   UNL     1     -11.329  11.675  67.743  1.00  0.00    -0.356 A  
HETATM   21  H   UNL     1     -10.782  11.041  70.853  1.00  0.00     0.000 HD 
HETATM   22  C   UNL     1     -11.265  12.116  69.066  1.00  0.00    -0.260 A  
ENDROOT
BRANCH   3  23
HETATM   23  O   UNL     1      -8.207   6.766  70.524  1.00  0.00    -0.114 OA 
BRANCH  23  24
HETATM   24  C   UNL     1      -6.916   7.182  70.442  1.00  0.00    -0.058 C  
HETATM   25  O   UNL     1      -6.073   6.857  71.271  1.00  0.00    -0.036 OA 
BRANCH  24  26
HETATM   26  C   UNL     1      -6.476   8.051  69.283  1.00  0.00    -0.036 A  
HETATM   27  C   UNL     1      -6.504   9.433  69.119  1.00  0.00    -0.042 A  
HETATM   28  C   UNL     1      -5.924   7.861  66.907  1.00  0.00    -0.052 A  
HETATM   29  C   UNL     1      -6.316  10.045  67.852  1.00  0.00    -0.058 A  
HETATM   30  C   UNL     1      -6.033   7.316  68.189  1.00  0.00    -0.030 A  
HETATM   31  C   UNL     1      -6.099   9.243  66.710  1.00  0.00    -0.064 A  
BRANCH  28  32
HETATM   32  O   UNL     1      -5.652   7.026  65.851  1.00  0.00    -0.029 OA 
HETATM   33  C   UNL     1      -6.685   6.079  65.551  1.00  0.00    -0.048 C  
ENDBRANCH  28  32
BRANCH  31  34
HETATM   34  O   UNL     1      -6.098   9.877  65.497  1.00  0.00    -0.067 OA 
HETATM   35  C   UNL     1      -7.291   9.908  64.724  1.00  0.00    -0.136 C  
ENDBRANCH  31  34
BRANCH  29  36
HETATM   36  O   UNL     1      -6.427  11.419  67.925  1.00  0.00    -0.056 OA 
HETATM   37  C   UNL     1      -7.567  11.989  68.565  1.00  0.00    -0.126 C  
ENDBRANCH  29  36
ENDBRANCH  24  26
ENDBRANCH  23  24
ENDBRANCH   3  23
BRANCH   5  38
HETATM   38  O   UNL     1      -9.081   3.236  71.083  1.00  0.00    -0.091 OA 
HETATM   39  C   UNL     1      -9.869   2.477  71.986  1.00  0.00    -0.156 C  
ENDBRANCH   5  38
BRANCH   7  40
HETATM   40  C   UNL     1      -9.989   6.013  73.183  1.00  0.00    -0.178 C  
HETATM   41  O   UNL     1     -10.847   6.608  73.824  1.00  0.00    -0.247 OA 
BRANCH  40  42
HETATM   42  O   UNL     1      -8.689   5.904  73.555  1.00  0.00    -0.123 OA 
HETATM   43  C   UNL     1      -8.173   6.967  74.355  1.00  0.00    -0.140 C  
ENDBRANCH  40  42
ENDBRANCH   7  40
BRANCH  15  44
HETATM   44  O   UNL     1     -12.160  15.684  68.565  1.00  0.00    -0.242 OA 
HETATM   45  C   UNL     1     -11.084  16.604  68.448  1.00  0.00    -0.305 C  
ENDBRANCH  15  44
TORSDOF 10
ENDMDL
MODEL       14
REMARK 921   NORMALIZED FREE ENERGY PREDICTED BY IDOCK:   -5.33 KCAL/MOL
REMARK 922        TOTAL FREE ENERGY PREDICTED BY IDOCK:  -11.21 KCAL/MOL
REMARK 923 INTER-LIGAND FREE ENERGY PREDICTED BY IDOCK:   -9.16 KCAL/MOL
REMARK 924 INTRA-LIGAND FREE ENERGY PREDICTED BY IDOCK:   -2.04 KCAL/MOL
REMARK 927      BINDING AFFINITY PREDICTED BY RF-SCORE:    0.00 PKD
ROOT
HETATM    1  C   UNL     1     -10.546   7.553  71.841  1.00  0.00    -0.245 C  
HETATM    2  C   UNL     1     -11.322   6.395  71.204  1.00  0.00    -0.376 C  
HETATM    3  C   UNL     1     -10.940   6.067  69.728  1.00  0.00    -0.401 C  
HETATM    4  C   UNL     1     -13.262  11.210  71.279  1.00  0.00    -0.216 C  
HETATM    5  C   UNL     1      -9.569   5.404  69.848  1.00  0.00    -0.168 C  
HETATM    6  C   UNL     1     -11.516   8.725  72.039  1.00  0.00    -0.371 C  
HETATM    7  C   UNL     1      -8.611   6.531  70.377  1.00  0.00    -0.146 C  
HETATM    8  C   UNL     1     -13.293   9.778  70.717  1.00  0.00    -0.080 C  
HETATM    9  C   UNL     1     -12.168  11.951  70.592  1.00  0.00    -0.424 A  
HETATM   10  C   UNL     1      -9.278   7.873  71.031  1.00  0.00    -0.164 C  
HETATM   11  C   UNL     1     -10.603  14.735  68.918  1.00  0.00    -0.250 A  
HETATM   12  C   UNL     1     -11.100  11.287  70.009  1.00  0.00    -0.037 A  
HETATM   13  N   UNL     1     -10.382  12.231  69.316  1.00  0.00    -0.402 NA 
HETATM   14  C   UNL     1      -9.466   9.252  70.265  1.00  0.00    -0.277 C  
HETATM   15  C   UNL     1     -11.395  15.846  69.246  1.00  0.00    -0.355 A  
HETATM   16  N   UNL     1     -11.983   9.105  70.725  1.00  0.00    -0.239 NA 
HETATM   17  C   UNL     1     -12.490  15.697  70.076  1.00  0.00    -0.249 A  
HETATM   18  C   UNL     1     -10.929   9.773  69.942  1.00  0.00    -0.264 C  
HETATM   19  C   UNL     1     -12.864  14.452  70.608  1.00  0.00    -0.390 A  
HETATM   20  C   UNL     1     -12.066  13.327  70.301  1.00  0.00    -0.405 A  
HETATM   21  H   UNL     1      -9.544  12.037  68.768  1.00  0.00     0.000 HD 
HETATM   22  C   UNL     1     -10.957  13.485  69.468  1.00  0.00     0.026 A  
ENDROOT
BRANCH   3  23
HETATM   23  O   UNL     1     -10.783   7.191  68.789  1.00  0.00    -0.212 OA 
BRANCH  23  24
HETATM   24  C   UNL     1     -10.602   6.803  67.499  1.00  0.00    -0.279 C  
HETATM   25  O   UNL     1     -11.159   5.816  67.032  1.00  0.00    -0.210 OA 
BRANCH  24  26
HETATM   26  C   UNL     1      -9.711   7.616  66.585  1.00  0.00    -0.283 A  
HETATM   27  C   UNL     1      -9.746   8.964  66.241  1.00  0.00    -0.345 A  
HETATM   28  C   UNL     1      -8.058   7.290  64.811  1.00  0.00    -0.097 A  
HETATM   29  C   UNL     1      -9.004   9.483  65.148  1.00  0.00    -0.209 A  
HETATM   30  C   UNL     1      -8.742   6.849  65.946  1.00  0.00    -0.146 A  
HETATM   31  C   UNL     1      -8.204   8.618  64.369  1.00  0.00    -0.162 A  
BRANCH  28  32
HETATM   32  O   UNL     1      -7.249   6.407  64.138  1.00  0.00    -0.057 OA 
HETATM   33  C   UNL     1      -5.942   6.239  64.701  1.00  0.00    -0.026 C  
ENDBRANCH  28  32
BRANCH  31  34
HETATM   34  O   UNL     1      -7.653   9.139  63.230  1.00  0.00    -0.103 OA 
HETATM   35  C   UNL     1      -6.343   9.691  63.277  1.00  0.00    -0.106 C  
ENDBRANCH  31  34
BRANCH  29  36
HETATM   36  O   UNL     1      -9.227  10.834  64.971  1.00  0.00    -0.195 OA 
HETATM   37  C   UNL     1     -10.547  11.285  64.673  1.00  0.00    -0.327 C  
ENDBRANCH  29  36
ENDBRANCH  24  26
ENDBRANCH  23  24
ENDBRANCH   3  23
BRANCH   5  38
HETATM   38  O   UNL     1      -9.668   4.302  70.776  1.00  0.00    -0.178 OA 
HETATM   39  C   UNL     1      -8.512   3.994  71.540  1.00  0.00    -0.092 C  
ENDBRANCH   5  38
BRANCH   7  40
HETATM   40  C   UNL     1      -7.559   6.832  69.325  1.00  0.00    -0.096 C  
HETATM   41  O   UNL     1      -7.054   7.927  69.110  1.00  0.00    -0.065 OA 
BRANCH  40  42
HETATM   42  O   UNL     1      -7.297   5.709  68.611  1.00  0.00    -0.075 OA 
HETATM   43  C   UNL     1      -5.957   5.223  68.676  1.00  0.00    -0.021 C  
ENDBRANCH  40  42
ENDBRANCH   7  40
BRANCH  15  44
HETATM   44  O   UNL     1     -11.194  17.132  68.817  1.00  0.00    -0.113 OA 
HETATM   45  C   UNL     1      -9.867  17.500  68.470  1.00  0.00    -0.330 C  
ENDBRANCH  15  44
TORSDOF 10
ENDMDL
MODEL       15
REMARK 921   NORMALIZED FREE ENERGY PREDICTED BY IDOCK:   -5.31 KCAL/MOL
REMARK 922        TOTAL FREE ENERGY PREDICTED BY IDOCK:  -11.17 KCAL/MOL
REMARK 923 INTER-LIGAND FREE ENERGY PREDICTED BY IDOCK:   -9.98 KCAL/MOL
REMARK 924 INTRA-LIGAND FREE ENERGY PREDICTED BY IDOCK:   -1.19 KCAL/MOL
REMARK 927      BINDING AFFINITY PREDICTED BY RF-SCORE:    0.00 PKD
ROOT
HETATM    1  C   UNL     1      -9.884  15.310  65.001  1.00  0.00    -0.035 C  
HETATM    2  C   UNL     1     -11.099  16.114  65.476  1.00  0.00    -0.071 C  
HETATM    3  C   UNL     1     -11.043  16.600  66.957  1.00  0.00     0.145 C  
HETATM    4  C   UNL     1     -11.124  10.923  65.536  1.00  0.00     0.075 C  
HETATM    5  C   UNL     1     -10.004  17.720  66.931  1.00  0.00    -0.332 C  
HETATM    6  C   UNL     1     -10.328  13.857  64.788  1.00  0.00    -0.394 C  
HETATM    7  C   UNL     1      -8.645  17.014  66.581  1.00  0.00    -0.285 C  
HETATM    8  C   UNL     1     -11.743  12.257  65.993  1.00  0.00    -0.388 C  
HETATM    9  C   UNL     1      -9.925  10.659  66.379  1.00  0.00    -0.273 A  
HETATM   10  C   UNL     1      -8.693  15.504  65.956  1.00  0.00    -0.032 C  
HETATM   11  C   UNL     1      -7.664   8.698  68.390  1.00  0.00    -0.100 A  
HETATM   12  C   UNL     1      -9.252  11.686  67.020  1.00  0.00    -0.183 A  
HETATM   13  N   UNL     1      -8.327  11.095  67.846  1.00  0.00    -0.125 NA 
HETATM   14  C   UNL     1      -8.455  14.174  66.792  1.00  0.00    -0.029 C  
HETATM   15  C   UNL     1      -7.951   7.364  68.061  1.00  0.00    -0.119 A  
HETATM   16  N   UNL     1     -10.777  13.366  66.071  1.00  0.00    -0.276 NA 
HETATM   17  C   UNL     1      -8.918   7.075  67.116  1.00  0.00    -0.123 A  
HETATM   18  C   UNL     1      -9.654  13.157  67.001  1.00  0.00    -0.241 C  
HETATM   19  C   UNL     1      -9.654   8.078  66.465  1.00  0.00    -0.295 A  
HETATM   20  C   UNL     1      -9.364   9.426  66.773  1.00  0.00    -0.202 A  
HETATM   21  H   UNL     1      -7.689  11.599  68.461  1.00  0.00     0.000 HD 
HETATM   22  C   UNL     1      -8.382   9.712  67.723  1.00  0.00    -0.121 A  
ENDROOT
BRANCH   3  23
HETATM   23  O   UNL     1     -10.599  15.639  67.982  1.00  0.00    -0.256 OA 
BRANCH  23  24
HETATM   24  C   UNL     1     -11.007  15.955  69.239  1.00  0.00    -0.293 C  
HETATM   25  O   UNL     1     -10.752  17.039  69.752  1.00  0.00    -0.243 OA 
BRANCH  24  26
HETATM   26  C   UNL     1     -11.827  14.965  70.038  1.00  0.00    -0.353 A  
HETATM   27  C   UNL     1     -12.464  15.093  71.269  1.00  0.00    -0.411 A  
HETATM   28  C   UNL     1     -12.257  12.560  70.157  1.00  0.00    -0.234 A  
HETATM   29  C   UNL     1     -12.942  13.969  71.991  1.00  0.00    -0.363 A  
HETATM   30  C   UNL     1     -11.881  13.705  69.452  1.00  0.00    -0.392 A  
HETATM   31  C   UNL     1     -12.767  12.670  71.463  1.00  0.00    -0.223 A  
BRANCH  28  32
HETATM   32  O   UNL     1     -12.114  11.333  69.556  1.00  0.00    -0.321 OA 
HETATM   33  C   UNL     1     -11.027  10.542  70.054  1.00  0.00    -0.286 C  
ENDBRANCH  28  32
BRANCH  31  34
HETATM   34  O   UNL     1     -13.090  11.620  72.280  1.00  0.00    -0.375 OA 
HETATM   35  C   UNL     1     -13.907  10.570  71.778  1.00  0.00     0.210 C  
ENDBRANCH  31  34
BRANCH  29  36
HETATM   36  O   UNL     1     -13.499  14.334  73.200  1.00  0.00    -0.632 OA 
HETATM   37  C   UNL     1     -12.886  15.374  73.960  1.00  0.00    -0.354 C  
ENDBRANCH  29  36
ENDBRANCH  24  26
ENDBRANCH  23  24
ENDBRANCH   3  23
BRANCH   5  38
HETATM   38  O   UNL     1     -10.386  18.682  65.924  1.00  0.00    -0.532 OA 
HETATM   39  C   UNL     1     -10.276  20.055  66.265  1.00  0.00    -0.478 C  
ENDBRANCH   5  38
BRANCH   7  40
HETATM   40  C   UNL     1      -7.689  17.152  67.751  1.00  0.00    -0.177 C  
HETATM   41  O   UNL     1      -7.438  16.283  68.578  1.00  0.00    -0.159 OA 
BRANCH  40  42
HETATM   42  O   UNL     1      -7.189  18.412  67.783  1.00  0.00    -0.217 OA 
HETATM   43  C   UNL     1      -7.366  19.128  69.005  1.00  0.00    -0.325 C  
ENDBRANCH  40  42
ENDBRANCH   7  40
BRANCH  15  44
HETATM   44  O   UNL     1      -7.348   6.256  68.595  1.00  0.00    -0.082 OA 
HETATM   45  C   UNL     1      -7.959   4.999  68.342  1.00  0.00    -0.086 C  
ENDBRANCH  15  44
TORSDOF 10
ENDMDL
MODEL       16
REMARK 921   NORMALIZED FREE ENERGY PREDICTED BY IDOCK:   -5.25 KCAL/MOL
REMARK 922        TOTAL FREE ENERGY PREDICTED BY IDOCK:  -11.08 KCAL/MOL
REMARK 923 INTER-LIGAND FREE ENERGY PREDICTED BY IDOCK:   -8.79 KCAL/MOL
REMARK 924 INTRA-LIGAND FREE ENERGY PREDICTED BY IDOCK:   -2.29 KCAL/MOL
REMARK 927      BINDING AFFINITY PREDICTED BY RF-SCORE:    0.00 PKD
ROOT
HETATM    1  C   UNL     1     -10.149  14.989  65.606  1.00  0.00    -0.390 C  
HETATM    2  C   UNL     1     -11.518  15.144  66.275  1.00  0.00    -0.153 C  
HETATM    3  C   UNL     1     -11.564  14.796  67.795  1.00  0.00    -0.357 C  
HETATM    4  C   UNL     1     -10.258  10.807  63.716  1.00  0.00    -0.354 C  
HETATM    5  C   UNL     1     -10.835  15.964  68.456  1.00  0.00    -0.298 C  
HETATM    6  C   UNL     1     -10.223  13.798  64.641  1.00  0.00    -0.284 C  
HETATM    7  C   UNL     1      -9.348  15.857  67.959  1.00  0.00    -0.201 C  
HETATM    8  C   UNL     1     -11.181  11.541  64.705  1.00  0.00    -0.188 C  
HETATM    9  C   UNL     1      -9.020  10.416  64.445  1.00  0.00    -0.247 A  
HETATM   10  C   UNL     1      -9.030  14.918  66.659  1.00  0.00    -0.301 C  
HETATM   11  C   UNL     1      -6.317   8.249  65.446  1.00  0.00    -0.048 A  
HETATM   12  C   UNL     1      -8.612  11.084  65.588  1.00  0.00    -0.130 A  
HETATM   13  N   UNL     1      -7.559  10.370  66.106  1.00  0.00    -0.125 NA 
HETATM   14  C   UNL     1      -8.459  13.437  66.735  1.00  0.00     0.021 C  
HETATM   15  C   UNL     1      -6.269   7.251  64.460  1.00  0.00    -0.037 A  
HETATM   16  N   UNL     1     -10.519  12.632  65.442  1.00  0.00    -0.278 NA 
HETATM   17  C   UNL     1      -7.148   7.287  63.393  1.00  0.00    -0.066 A  
HETATM   18  C   UNL     1      -9.366  12.224  66.264  1.00  0.00    -0.206 C  
HETATM   19  C   UNL     1      -8.117   8.292  63.253  1.00  0.00    -0.137 A  
HETATM   20  C   UNL     1      -8.166   9.314  64.229  1.00  0.00    -0.153 A  
HETATM   21  H   UNL     1      -7.058  10.611  66.961  1.00  0.00     0.000 HD 
HETATM   22  C   UNL     1      -7.272   9.276  65.300  1.00  0.00    -0.090 A  
ENDROOT
BRANCH   3  23
HETATM   23  O   UNL     1     -10.882  13.568  68.241  1.00  0.00    -0.243 OA 
BRANCH  23  24
HETATM   24  C   UNL     1     -11.537  12.913  69.236  1.00  0.00    -0.310 C  
HETATM   25  O   UNL     1     -12.438  13.439  69.879  1.00  0.00    -0.222 OA 
BRANCH  24  26
HETATM   26  C   UNL     1     -11.177  11.478  69.558  1.00  0.00    -0.305 A  
HETATM   27  C   UNL     1     -10.551  10.501  68.790  1.00  0.00    -0.233 A  
HETATM   28  C   UNL     1     -11.724   9.733  71.184  1.00  0.00    -0.385 A  
HETATM   29  C   UNL     1     -10.558   9.132  69.161  1.00  0.00    -0.208 A  
HETATM   30  C   UNL     1     -11.616  11.076  70.816  1.00  0.00    -0.159 A  
HETATM   31  C   UNL     1     -11.223   8.726  70.339  1.00  0.00    -0.223 A  
BRANCH  28  32
HETATM   32  O   UNL     1     -12.332   9.418  72.375  1.00  0.00    -0.278 OA 
HETATM   33  C   UNL     1     -13.741   9.174  72.286  1.00  0.00    -0.487 C  
ENDBRANCH  28  32
BRANCH  31  34
HETATM   34  O   UNL     1     -11.344   7.380  70.552  1.00  0.00    -0.275 OA 
HETATM   35  C   UNL     1     -10.374   6.708  71.345  1.00  0.00    -0.200 C  
ENDBRANCH  31  34
BRANCH  29  36
HETATM   36  O   UNL     1      -9.912   8.344  68.228  1.00  0.00    -0.174 OA 
HETATM   37  C   UNL     1     -10.585   8.014  67.015  1.00  0.00    -0.294 C  
ENDBRANCH  29  36
ENDBRANCH  24  26
ENDBRANCH  23  24
ENDBRANCH   3  23
BRANCH   5  38
HETATM   38  O   UNL     1     -11.457  17.197  68.032  1.00  0.00     0.037 OA 
HETATM   39  C   UNL     1     -10.596  18.261  67.659  1.00  0.00    -0.405 C  
ENDBRANCH   5  38
BRANCH   7  40
HETATM   40  C   UNL     1      -8.440  15.577  69.142  1.00  0.00    -0.248 C  
HETATM   41  O   UNL     1      -8.782  15.066  70.202  1.00  0.00     0.240 OA 
BRANCH  40  42
HETATM   42  O   UNL     1      -7.191  16.032  68.874  1.00  0.00    -0.145 OA 
HETATM   43  C   UNL     1      -7.102  17.364  68.372  1.00  0.00    -0.212 C  
ENDBRANCH  40  42
ENDBRANCH   7  40
BRANCH  15  44
HETATM   44  O   UNL     1      -5.403   6.189  64.431  1.00  0.00    -0.017 OA 
HETATM   45  C   UNL     1      -5.675   5.156  63.495  1.00  0.00    -0.017 C  
ENDBRANCH  15  44
TORSDOF 10
ENDMDL
MODEL       17
REMARK 921   NORMALIZED FREE ENERGY PREDICTED BY IDOCK:   -5.23 KCAL/MOL
REMARK 922        TOTAL FREE ENERGY PREDICTED BY IDOCK:  -11.04 KCAL/MOL
REMARK 923 INTER-LIGAND FREE ENERGY PREDICTED BY IDOCK:   -9.52 KCAL/MOL
REMARK 924 INTRA-LIGAND FREE ENERGY PREDICTED BY IDOCK:   -1.52 KCAL/MOL
REMARK 927      BINDING AFFINITY PREDICTED BY RF-SCORE:    0.00 PKD
ROOT
HETATM    1  C   UNL     1     -11.770  11.743  68.725  1.00  0.00    -0.389 C  
HETATM    2  C   UNL     1     -11.169  12.865  69.577  1.00  0.00    -0.143 C  
HETATM    3  C   UNL     1     -10.408  13.973  68.785  1.00  0.00    -0.222 C  
HETATM    4  C   UNL     1      -8.630   8.398  68.842  1.00  0.00    -0.135 C  
HETATM    5  C   UNL     1     -11.525  14.759  68.099  1.00  0.00    -0.323 C  
HETATM    6  C   UNL     1     -10.982  10.457  69.006  1.00  0.00    -0.238 C  
HETATM    7  C   UNL     1     -12.165  13.756  67.074  1.00  0.00    -0.381 C  
HETATM    8  C   UNL     1      -8.617   9.871  69.286  1.00  0.00    -0.167 C  
HETATM    9  C   UNL     1      -8.570   8.365  67.354  1.00  0.00    -0.124 A  
HETATM   10  C   UNL     1     -11.848  12.161  67.246  1.00  0.00    -0.293 C  
HETATM   11  C   UNL     1      -7.466   7.233  64.113  1.00  0.00    -0.099 A  
HETATM   12  C   UNL     1      -8.983   9.444  66.590  1.00  0.00    -0.146 A  
HETATM   13  N   UNL     1      -8.630   9.165  65.292  1.00  0.00    -0.157 NA 
HETATM   14  C   UNL     1     -10.763  11.361  66.405  1.00  0.00    -0.325 C  
HETATM   15  C   UNL     1      -6.899   5.970  64.344  1.00  0.00    -0.046 A  
HETATM   16  N   UNL     1      -9.617  10.709  68.603  1.00  0.00    -0.172 NA 
HETATM   17  C   UNL     1      -6.890   5.437  65.620  1.00  0.00    -0.064 A  
HETATM   18  C   UNL     1      -9.482  10.777  67.137  1.00  0.00    -0.160 C  
HETATM   19  C   UNL     1      -7.422   6.122  66.724  1.00  0.00    -0.087 A  
HETATM   20  C   UNL     1      -8.011   7.388  66.503  1.00  0.00    -0.111 A  
HETATM   21  H   UNL     1      -8.791   9.786  64.499  1.00  0.00     0.000 HD 
HETATM   22  C   UNL     1      -8.023   7.919  65.212  1.00  0.00    -0.126 A  
ENDROOT
BRANCH   3  23
HETATM   23  O   UNL     1      -9.480  13.547  67.723  1.00  0.00    -0.201 OA 
BRANCH  23  24
HETATM   24  C   UNL     1      -8.245  14.106  67.822  1.00  0.00    -0.169 C  
HETATM   25  O   UNL     1      -7.237  13.429  67.994  1.00  0.00    -0.093 OA 
BRANCH  24  26
HETATM   26  C   UNL     1      -8.082  15.605  67.691  1.00  0.00    -0.166 A  
HETATM   27  C   UNL     1      -8.718  16.521  66.858  1.00  0.00    -0.233 A  
HETATM   28  C   UNL     1      -6.507  17.375  68.300  1.00  0.00    -0.172 A  
HETATM   29  C   UNL     1      -8.229  17.840  66.677  1.00  0.00    -0.259 A  
HETATM   30  C   UNL     1      -7.077  16.117  68.505  1.00  0.00    -0.139 A  
HETATM   31  C   UNL     1      -7.057  18.254  67.349  1.00  0.00    -0.200 A  
BRANCH  28  32
HETATM   32  O   UNL     1      -5.402  17.731  69.035  1.00  0.00    -0.167 OA 
HETATM   33  C   UNL     1      -5.598  17.729  70.454  1.00  0.00    -0.220 C  
ENDBRANCH  28  32
BRANCH  31  34
HETATM   34  O   UNL     1      -6.540  19.472  67.003  1.00  0.00    -0.194 OA 
HETATM   35  C   UNL     1      -6.834  20.610  67.804  1.00  0.00    -0.323 C  
ENDBRANCH  31  34
BRANCH  29  36
HETATM   36  O   UNL     1      -8.995  18.553  65.776  1.00  0.00    -0.418 OA 
HETATM   37  C   UNL     1     -10.258  19.067  66.194  1.00  0.00    -0.446 C  
ENDBRANCH  29  36
ENDBRANCH  24  26
ENDBRANCH  23  24
ENDBRANCH   3  23
BRANCH   5  38
HETATM   38  O   UNL     1     -12.474  15.183  69.101  1.00  0.00    -0.102 OA 
HETATM   39  C   UNL     1     -11.973  15.958  70.179  1.00  0.00    -0.288 C  
ENDBRANCH   5  38
BRANCH   7  40
HETATM   40  C   UNL     1     -11.939  14.266  65.662  1.00  0.00    -0.386 C  
HETATM   41  O   UNL     1     -11.193  15.183  65.342  1.00  0.00    -0.346 OA 
BRANCH  40  42
HETATM   42  O   UNL     1     -12.737  13.587  64.801  1.00  0.00    -0.639 OA 
HETATM   43  C   UNL     1     -12.225  13.404  63.482  1.00  0.00    -0.400 C  
ENDBRANCH  40  42
ENDBRANCH   7  40
BRANCH  15  44
HETATM   44  O   UNL     1      -6.326   5.160  63.399  1.00  0.00    -0.021 OA 
HETATM   45  C   UNL     1      -7.184   4.611  62.409  1.00  0.00    -0.035 C  
ENDBRANCH  15  44
TORSDOF 10
ENDMDL
MODEL       18
REMARK 921   NORMALIZED FREE ENERGY PREDICTED BY IDOCK:   -5.15 KCAL/MOL
REMARK 922        TOTAL FREE ENERGY PREDICTED BY IDOCK:  -10.91 KCAL/MOL
REMARK 923 INTER-LIGAND FREE ENERGY PREDICTED BY IDOCK:   -8.80 KCAL/MOL
REMARK 924 INTRA-LIGAND FREE ENERGY PREDICTED BY IDOCK:   -2.12 KCAL/MOL
REMARK 927      BINDING AFFINITY PREDICTED BY RF-SCORE:    0.00 PKD
ROOT
HETATM    1  C   UNL     1      -9.435   9.486  65.450  1.00  0.00    -0.336 C  
HETATM    2  C   UNL     1      -7.951   9.104  65.443  1.00  0.00    -0.106 C  
HETATM    3  C   UNL     1      -7.491   8.183  66.616  1.00  0.00    -0.089 C  
HETATM    4  C   UNL     1      -9.561  13.583  67.515  1.00  0.00    -0.221 C  
HETATM    5  C   UNL     1      -8.095   6.824  66.266  1.00  0.00    -0.112 C  
HETATM    6  C   UNL     1      -9.540  10.982  65.773  1.00  0.00    -0.222 C  
HETATM    7  C   UNL     1      -9.650   7.025  66.363  1.00  0.00    -0.159 C  
HETATM    8  C   UNL     1      -8.460  12.520  67.349  1.00  0.00    -0.181 C  
HETATM    9  C   UNL     1     -10.541  13.078  68.517  1.00  0.00    -0.274 A  
HETATM   10  C   UNL     1     -10.235   8.552  66.374  1.00  0.00    -0.193 C  
HETATM   11  C   UNL     1     -12.752  13.255  71.359  1.00  0.00    -0.401 A  
HETATM   12  C   UNL     1     -10.678  11.724  68.775  1.00  0.00    -0.221 A  
HETATM   13  N   UNL     1     -11.515  11.613  69.859  1.00  0.00    -0.456 NA 
HETATM   14  C   UNL     1     -10.674   9.341  67.682  1.00  0.00    -0.276 C  
HETATM   15  C   UNL     1     -12.992  14.625  71.547  1.00  0.00    -0.339 A  
HETATM   16  N   UNL     1      -8.975  11.164  67.091  1.00  0.00    -0.143 NA 
HETATM   17  C   UNL     1     -12.424  15.552  70.692  1.00  0.00    -0.483 A  
HETATM   18  C   UNL     1      -9.847  10.613  68.142  1.00  0.00    -0.155 C  
HETATM   19  C   UNL     1     -11.588  15.179  69.629  1.00  0.00    -0.335 A  
HETATM   20  C   UNL     1     -11.352  13.801  69.416  1.00  0.00    -0.306 A  
HETATM   21  H   UNL     1     -11.791  10.733  70.293  1.00  0.00     0.000 HD 
HETATM   22  C   UNL     1     -11.933  12.869  70.278  1.00  0.00    -0.283 A  
ENDROOT
BRANCH   3  23
HETATM   23  O   UNL     1      -7.956   8.513  67.974  1.00  0.00    -0.109 OA 
BRANCH  23  24
HETATM   24  C   UNL     1      -7.188   7.976  68.958  1.00  0.00    -0.078 C  
HETATM   25  O   UNL     1      -6.000   8.254  69.081  1.00  0.00    -0.037 OA 
BRANCH  24  26
HETATM   26  C   UNL     1      -7.803   7.025  69.961  1.00  0.00    -0.113 A  
HETATM   27  C   UNL     1      -9.021   7.072  70.634  1.00  0.00    -0.154 A  
HETATM   28  C   UNL     1      -7.151   5.187  71.439  1.00  0.00    -0.061 A  
HETATM   29  C   UNL     1      -9.298   6.240  71.750  1.00  0.00    -0.150 A  
HETATM   30  C   UNL     1      -6.962   5.969  70.297  1.00  0.00    -0.062 A  
HETATM   31  C   UNL     1      -8.318   5.334  72.211  1.00  0.00    -0.122 A  
BRANCH  28  32
HETATM   32  O   UNL     1      -6.179   4.283  71.793  1.00  0.00    -0.016 OA 
HETATM   33  C   UNL     1      -5.257   4.749  72.786  1.00  0.00    -0.008 C  
ENDBRANCH  28  32
BRANCH  31  34
HETATM   34  O   UNL     1      -8.576   4.687  73.389  1.00  0.00    -0.102 OA 
HETATM   35  C   UNL     1      -9.218   3.419  73.363  1.00  0.00    -0.100 C  
ENDBRANCH  31  34
BRANCH  29  36
HETATM   36  O   UNL     1     -10.548   6.491  72.279  1.00  0.00    -0.204 OA 
HETATM   37  C   UNL     1     -10.750   7.675  73.048  1.00  0.00    -0.391 C  
ENDBRANCH  29  36
ENDBRANCH  24  26
ENDBRANCH  23  24
ENDBRANCH   3  23
BRANCH   5  38
HETATM   38  O   UNL     1      -7.682   6.465  64.929  1.00  0.00    -0.089 OA 
HETATM   39  C   UNL     1      -8.145   5.224  64.420  1.00  0.00    -0.121 C  
ENDBRANCH   5  38
BRANCH   7  40
HETATM   40  C   UNL     1     -10.200   6.161  67.482  1.00  0.00    -0.178 C  
HETATM   41  O   UNL     1     -11.268   6.328  68.059  1.00  0.00    -0.323 OA 
BRANCH  40  42
HETATM   42  O   UNL     1      -9.301   5.194  67.794  1.00  0.00    -0.115 OA 
HETATM   43  C   UNL     1      -9.817   4.053  68.478  1.00  0.00     0.026 C  
ENDBRANCH  40  42
ENDBRANCH   7  40
BRANCH  15  44
HETATM   44  O   UNL     1     -13.768  15.179  72.531  1.00  0.00    -0.428 OA 
HETATM   45  C   UNL     1     -13.133  16.079  73.428  1.00  0.00    -0.573 C  
ENDBRANCH  15  44
TORSDOF 10
ENDMDL
MODEL       19
REMARK 921   NORMALIZED FREE ENERGY PREDICTED BY IDOCK:   -5.12 KCAL/MOL
REMARK 922        TOTAL FREE ENERGY PREDICTED BY IDOCK:  -10.86 KCAL/MOL
REMARK 923 INTER-LIGAND FREE ENERGY PREDICTED BY IDOCK:   -8.83 KCAL/MOL
REMARK 924 INTRA-LIGAND FREE ENERGY PREDICTED BY IDOCK:   -2.04 KCAL/MOL
REMARK 927      BINDING AFFINITY PREDICTED BY RF-SCORE:    0.00 PKD
ROOT
HETATM    1  C   UNL     1      -5.920   9.019  66.808  1.00  0.00    -0.053 C  
HETATM    2  C   UNL     1      -6.857   7.951  67.384  1.00  0.00    -0.070 C  
HETATM    3  C   UNL     1      -8.311   7.962  66.819  1.00  0.00    -0.120 C  
HETATM    4  C   UNL     1      -6.102  12.467  69.832  1.00  0.00    -0.135 C  
HETATM    5  C   UNL     1      -8.153   7.409  65.403  1.00  0.00    -0.133 C  
HETATM    6  C   UNL     1      -5.623  10.039  67.914  1.00  0.00    -0.038 C  
HETATM    7  C   UNL     1      -7.305   8.484  64.633  1.00  0.00    -0.092 C  
HETATM    8  C   UNL     1      -6.927  11.180  69.649  1.00  0.00    -0.088 C  
HETATM    9  C   UNL     1      -6.496  13.422  68.760  1.00  0.00    -0.098 A  
HETATM   10  C   UNL     1      -6.494   9.604  65.505  1.00  0.00    -0.078 C  
HETATM   11  C   UNL     1      -7.404  16.611  67.342  1.00  0.00    -0.189 A  
HETATM   12  C   UNL     1      -7.060  12.984  67.572  1.00  0.00    -0.154 A  
HETATM   13  N   UNL     1      -7.468  14.107  66.893  1.00  0.00    -0.274 NA 
HETATM   14  C   UNL     1      -6.999  11.088  65.763  1.00  0.00     0.094 C  
HETATM   15  C   UNL     1      -6.969  17.561  68.280  1.00  0.00    -0.210 A  
HETATM   16  N   UNL     1      -6.887  10.635  68.282  1.00  0.00    -0.067 NA 
HETATM   17  C   UNL     1      -6.324  17.153  69.432  1.00  0.00    -0.238 A  
HETATM   18  C   UNL     1      -7.394  11.536  67.232  1.00  0.00    -0.131 C  
HETATM   19  C   UNL     1      -6.089  15.800  69.722  1.00  0.00    -0.165 A  
HETATM   20  C   UNL     1      -6.505  14.833  68.779  1.00  0.00    -0.087 A  
HETATM   21  H   UNL     1      -7.936  14.100  65.988  1.00  0.00     0.000 HD 
HETATM   22  C   UNL     1      -7.151  15.251  67.614  1.00  0.00    -0.182 A  
ENDROOT
BRANCH   3  23
HETATM   23  O   UNL     1      -8.991   9.262  66.689  1.00  0.00    -0.134 OA 
BRANCH  23  24
HETATM   24  C   UNL     1     -10.244   9.277  67.216  1.00  0.00    -0.252 C  
HETATM   25  O   UNL     1     -10.813   8.250  67.570  1.00  0.00    -0.192 OA 
BRANCH  24  26
HETATM   26  C   UNL     1     -10.967  10.592  67.406  1.00  0.00    -0.361 A  
HETATM   27  C   UNL     1     -11.182  11.650  66.527  1.00  0.00    -0.356 A  
HETATM   28  C   UNL     1     -11.791  12.030  69.206  1.00  0.00    -0.318 A  
HETATM   29  C   UNL     1     -11.632  12.920  66.971  1.00  0.00    -0.362 A  
HETATM   30  C   UNL     1     -11.428  10.778  68.706  1.00  0.00    -0.364 A  
HETATM   31  C   UNL     1     -11.868  13.140  68.346  1.00  0.00    -0.351 A  
BRANCH  28  32
HETATM   32  O   UNL     1     -12.065  12.155  70.547  1.00  0.00    -0.364 OA 
HETATM   33  C   UNL     1     -12.716  11.023  71.136  1.00  0.00    -0.419 C  
ENDBRANCH  28  32
BRANCH  31  34
HETATM   34  O   UNL     1     -12.131  14.426  68.733  1.00  0.00    -0.308 OA 
HETATM   35  C   UNL     1     -11.108  15.191  69.356  1.00  0.00    -0.276 C  
ENDBRANCH  31  34
BRANCH  29  36
HETATM   36  O   UNL     1     -11.733  13.821  65.930  1.00  0.00    -0.328 OA 
HETATM   37  C   UNL     1     -10.591  14.065  65.111  1.00  0.00    -0.386 C  
ENDBRANCH  29  36
ENDBRANCH  24  26
ENDBRANCH  23  24
ENDBRANCH   3  23
BRANCH   5  38
HETATM   38  O   UNL     1      -7.471   6.138  65.477  1.00  0.00    -0.077 OA 
HETATM   39  C   UNL     1      -6.724   5.737  64.339  1.00  0.00    -0.046 C  
ENDBRANCH   5  38
BRANCH   7  40
HETATM   40  C   UNL     1      -8.143   9.081  63.518  1.00  0.00    -0.164 C  
HETATM   41  O   UNL     1      -7.835   9.122  62.333  1.00  0.00    -0.113 OA 
BRANCH  40  42
HETATM   42  O   UNL     1      -9.275   9.619  64.038  1.00  0.00    -0.250 OA 
HETATM   43  C   UNL     1      -9.835  10.718  63.320  1.00  0.00    -0.346 C  
ENDBRANCH  40  42
ENDBRANCH   7  40
BRANCH  15  44
HETATM   44  O   UNL     1      -7.118  18.920  68.177  1.00  0.00    -0.239 OA 
HETATM   45  C   UNL     1      -6.392  19.722  69.096  1.00  0.00    -0.314 C  
ENDBRANCH  15  44
TORSDOF 10
ENDMDL
MODEL       20
REMARK 921   NORMALIZED FREE ENERGY PREDICTED BY IDOCK:   -5.11 KCAL/MOL
REMARK 922        TOTAL FREE ENERGY PREDICTED BY IDOCK:  -10.86 KCAL/MOL
REMARK 923 INTER-LIGAND FREE ENERGY PREDICTED BY IDOCK:   -8.44 KCAL/MOL
REMARK 924 INTRA-LIGAND FREE ENERGY PREDICTED BY IDOCK:   -2.42 KCAL/MOL
REMARK 927      BINDING AFFINITY PREDICTED BY RF-SCORE:    0.00 PKD
ROOT
HETATM    1  C   UNL     1      -6.865  11.300  68.706  1.00  0.00    -0.082 C  
HETATM    2  C   UNL     1      -8.069  10.698  69.438  1.00  0.00    -0.102 C  
HETATM    3  C   UNL     1      -9.372  10.569  68.590  1.00  0.00    -0.172 C  
HETATM    4  C   UNL     1      -6.948  15.753  69.818  1.00  0.00    -0.097 C  
HETATM    5  C   UNL     1      -9.067   9.418  67.632  1.00  0.00    -0.121 C  
HETATM    6  C   UNL     1      -6.587  12.685  69.305  1.00  0.00    -0.092 C  
HETATM    7  C   UNL     1      -7.913   9.946  66.706  1.00  0.00    -0.116 C  
HETATM    8  C   UNL     1      -7.949  14.599  70.011  1.00  0.00     0.526 C  
HETATM    9  C   UNL     1      -6.961  16.139  68.380  1.00  0.00    -0.129 A  
HETATM   10  C   UNL     1      -7.079  11.268  67.183  1.00  0.00    -0.125 C  
HETATM   11  C   UNL     1      -7.000  18.386  65.561  1.00  0.00    -0.171 A  
HETATM   12  C   UNL     1      -7.375  15.255  67.398  1.00  0.00    -0.210 A  
HETATM   13  N   UNL     1      -7.441  15.970  66.227  1.00  0.00    -0.075 NA 
HETATM   14  C   UNL     1      -7.341  12.742  66.649  1.00  0.00     0.682 C  
HETATM   15  C   UNL     1      -6.573  19.621  66.075  1.00  0.00    -0.225 A  
HETATM   16  N   UNL     1      -7.766  13.486  69.063  1.00  0.00     0.038 NA 
HETATM   17  C   UNL     1      -6.230  19.734  67.410  1.00  0.00    -0.205 A  
HETATM   18  C   UNL     1      -7.903  13.844  67.641  1.00  0.00    -0.179 C  
HETATM   19  C   UNL     1      -6.303  18.650  68.298  1.00  0.00    -0.220 A  
HETATM   20  C   UNL     1      -6.714  17.397  67.791  1.00  0.00    -0.172 A  
HETATM   21  H   UNL     1      -7.733  15.588  65.328  1.00  0.00     0.000 HD 
HETATM   22  C   UNL     1      -7.054  17.286  66.441  1.00  0.00    -0.277 A  
ENDROOT
BRANCH   3  23
HETATM   23  O   UNL     1      -9.767  11.717  67.755  1.00  0.00    -0.175 OA 
BRANCH  23  24
HETATM   24  C   UNL     1     -11.091  12.014  67.829  1.00  0.00    -0.249 C  
HETATM   25  O   UNL     1     -11.916  11.501  67.081  1.00  0.00    -0.581 OA 
BRANCH  24  26
HETATM   26  C   UNL     1     -11.589  12.985  68.878  1.00  0.00    -0.355 A  
HETATM   27  C   UNL     1     -11.349  14.345  69.048  1.00  0.00    -0.297 A  
HETATM   28  C   UNL     1     -12.621  12.974  71.096  1.00  0.00    -0.297 A  
HETATM   29  C   UNL     1     -11.670  15.023  70.252  1.00  0.00    -0.294 A  
HETATM   30  C   UNL     1     -12.361  12.375  69.861  1.00  0.00    -0.117 A  
HETATM   31  C   UNL     1     -12.247  14.310  71.327  1.00  0.00    -0.350 A  
BRANCH  28  32
HETATM   32  O   UNL     1     -13.240  12.235  72.075  1.00  0.00    -0.494 OA 
HETATM   33  C   UNL     1     -13.271  10.823  71.834  1.00  0.00    -0.419 C  
ENDBRANCH  28  32
BRANCH  31  34
HETATM   34  O   UNL     1     -12.374  14.975  72.516  1.00  0.00    -0.335 OA 
HETATM   35  C   UNL     1     -13.585  15.660  72.808  1.00  0.00    -0.593 C  
ENDBRANCH  31  34
BRANCH  29  36
HETATM   36  O   UNL     1     -11.305  16.354  70.206  1.00  0.00    -0.338 OA 
HETATM   37  C   UNL     1     -10.630  16.847  69.051  1.00  0.00    -0.338 C  
ENDBRANCH  29  36
ENDBRANCH  24  26
ENDBRANCH  23  24
ENDBRANCH   3  23
BRANCH   5  38
HETATM   38  O   UNL     1      -8.654   8.271  68.406  1.00  0.00    -0.131 OA 
HETATM   39  C   UNL     1      -7.763   7.358  67.785  1.00  0.00    -0.112 C  
ENDBRANCH   5  38
BRANCH   7  40
HETATM   40  C   UNL     1      -8.414  10.032  65.277  1.00  0.00    -0.154 C  
HETATM   41  O   UNL     1      -7.714  10.129  64.276  1.00  0.00    -0.143 OA 
BRANCH  40  42
HETATM   42  O   UNL     1      -9.771  10.043  65.271  1.00  0.00    -0.267 OA 
HETATM   43  C   UNL     1     -10.388  10.809  64.237  1.00  0.00    -0.331 C  
ENDBRANCH  40  42
ENDBRANCH   7  40
BRANCH  15  44
HETATM   44  O   UNL     1      -6.449  20.788  65.368  1.00  0.00    -0.244 OA 
HETATM   45  C   UNL     1      -6.077  20.681  64.002  1.00  0.00    -0.299 C  
ENDBRANCH  15  44
TORSDOF 10
ENDMDL
MODEL       21
REMARK 921   NORMALIZED FREE ENERGY PREDICTED BY IDOCK:   -5.06 KCAL/MOL
REMARK 922        TOTAL FREE ENERGY PREDICTED BY IDOCK:  -10.78 KCAL/MOL
REMARK 923 INTER-LIGAND FREE ENERGY PREDICTED BY IDOCK:   -8.88 KCAL/MOL
REMARK 924 INTRA-LIGAND FREE ENERGY PREDICTED BY IDOCK:   -1.90 KCAL/MOL
REMARK 927      BINDING AFFINITY PREDICTED BY RF-SCORE:    0.00 PKD
ROOT
HETATM    1  C   UNL     1      -5.683  10.678  66.666  1.00  0.00    -0.068 C  
HETATM    2  C   UNL     1      -5.403   9.639  67.756  1.00  0.00    -0.036 C  
HETATM    3  C   UNL     1      -6.664   9.072  68.479  1.00  0.00    -0.059 C  
HETATM    4  C   UNL     1      -5.181  14.726  68.771  1.00  0.00    -0.089 C  
HETATM    5  C   UNL     1      -7.301   8.160  67.431  1.00  0.00    -0.089 C  
HETATM    6  C   UNL     1      -5.180  12.039  67.163  1.00  0.00    -0.106 C  
HETATM    7  C   UNL     1      -7.770   9.120  66.280  1.00  0.00    -0.096 C  
HETATM    8  C   UNL     1      -5.259  13.275  69.280  1.00  0.00    -0.074 C  
HETATM    9  C   UNL     1      -6.549  15.142  68.356  1.00  0.00    -0.101 A  
HETATM   10  C   UNL     1      -7.160  10.636  66.236  1.00  0.00    -0.137 C  
HETATM   11  C   UNL     1      -9.399  17.334  68.086  1.00  0.00    -0.274 A  
HETATM   12  C   UNL     1      -7.512  14.211  68.002  1.00  0.00    -0.140 A  
HETATM   13  N   UNL     1      -8.691  14.901  67.854  1.00  0.00    -0.160 NA 
HETATM   14  C   UNL     1      -7.912  11.927  66.776  1.00  0.00    -0.087 C  
HETATM   15  C   UNL     1      -8.899  18.615  68.370  1.00  0.00    -0.339 A  
HETATM   16  N   UNL     1      -5.937  12.353  68.353  1.00  0.00    -0.054 NA 
HETATM   17  C   UNL     1      -7.555  18.790  68.646  1.00  0.00    -0.357 A  
HETATM   18  C   UNL     1      -7.335  12.697  68.038  1.00  0.00    -0.114 C  
HETATM   19  C   UNL     1      -6.649  17.718  68.668  1.00  0.00    -0.218 A  
HETATM   20  C   UNL     1      -7.134  16.425  68.366  1.00  0.00    -0.156 A  
HETATM   21  H   UNL     1      -9.585  14.478  67.610  1.00  0.00     0.000 HD 
HETATM   22  C   UNL     1      -8.490  16.256  68.083  1.00  0.00    -0.174 A  
ENDROOT
BRANCH   3  23
HETATM   23  O   UNL     1      -7.706  10.025  68.897  1.00  0.00    -0.080 OA 
BRANCH  23  24
HETATM   24  C   UNL     1      -8.143   9.831  70.170  1.00  0.00    -0.182 C  
HETATM   25  O   UNL     1      -7.384   9.873  71.131  1.00  0.00    -0.275 OA 
BRANCH  24  26
HETATM   26  C   UNL     1      -9.612   9.581  70.433  1.00  0.00    -0.326 A  
HETATM   27  C   UNL     1     -10.707  10.438  70.375  1.00  0.00    -0.186 A  
HETATM   28  C   UNL     1     -11.065   7.931  71.506  1.00  0.00    -0.241 A  
HETATM   29  C   UNL     1     -11.965  10.093  70.934  1.00  0.00    -0.365 A  
HETATM   30  C   UNL     1      -9.875   8.286  70.867  1.00  0.00    -0.215 A  
HETATM   31  C   UNL     1     -12.129   8.848  71.580  1.00  0.00    -0.346 A  
BRANCH  28  32
HETATM   32  O   UNL     1     -11.173   6.678  72.061  1.00  0.00    -0.244 OA 
HETATM   33  C   UNL     1     -10.717   6.580  73.416  1.00  0.00    -0.270 C  
ENDBRANCH  28  32
BRANCH  31  34
HETATM   34  O   UNL     1     -13.306   8.645  72.248  1.00  0.00    -0.370 OA 
HETATM   35  C   UNL     1     -14.350   7.916  71.617  1.00  0.00    -0.479 C  
ENDBRANCH  31  34
BRANCH  29  36
HETATM   36  O   UNL     1     -12.886  11.113  70.794  1.00  0.00    -0.305 OA 
HETATM   37  C   UNL     1     -13.111  11.999  71.888  1.00  0.00    -0.370 C  
ENDBRANCH  29  36
ENDBRANCH  24  26
ENDBRANCH  23  24
ENDBRANCH   3  23
BRANCH   5  38
HETATM   38  O   UNL     1      -6.308   7.216  66.974  1.00  0.00    -0.049 OA 
HETATM   39  C   UNL     1      -6.769   6.108  66.218  1.00  0.00    -0.060 C  
ENDBRANCH   5  38
BRANCH   7  40
HETATM   40  C   UNL     1      -9.283   9.076  66.172  1.00  0.00    -0.216 C  
HETATM   41  O   UNL     1     -10.052   8.669  67.035  1.00  0.00    -0.218 OA 
BRANCH  40  42
HETATM   42  O   UNL     1      -9.664   9.508  64.944  1.00  0.00    -0.214 OA 
HETATM   43  C   UNL     1     -10.512  10.655  64.916  1.00  0.00    -0.212 C  
ENDBRANCH  40  42
ENDBRANCH   7  40
BRANCH  15  44
HETATM   44  O   UNL     1      -9.629  19.774  68.406  1.00  0.00    -0.359 OA 
HETATM   45  C   UNL     1     -10.464  20.049  67.290  1.00  0.00    -0.366 C  
ENDBRANCH  15  44
TORSDOF 10
ENDMDL
MODEL       22
REMARK 921   NORMALIZED FREE ENERGY PREDICTED BY IDOCK:   -5.03 KCAL/MOL
REMARK 922        TOTAL FREE ENERGY PREDICTED BY IDOCK:  -10.73 KCAL/MOL
REMARK 923 INTER-LIGAND FREE ENERGY PREDICTED BY IDOCK:   -8.08 KCAL/MOL
REMARK 924 INTRA-LIGAND FREE ENERGY PREDICTED BY IDOCK:   -2.65 KCAL/MOL
REMARK 927      BINDING AFFINITY PREDICTED BY RF-SCORE:    0.00 PKD
ROOT
HETATM    1  C   UNL     1     -10.144   8.643  71.724  1.00  0.00    -0.380 C  
HETATM    2  C   UNL     1     -10.829   7.341  71.295  1.00  0.00    -0.255 C  
HETATM    3  C   UNL     1     -10.124   6.564  70.141  1.00  0.00    -0.174 C  
HETATM    4  C   UNL     1     -12.343  11.927  69.390  1.00  0.00    -0.056 C  
HETATM    5  C   UNL     1      -8.880   5.977  70.807  1.00  0.00    -0.139 C  
HETATM    6  C   UNL     1     -11.037   9.815  71.297  1.00  0.00    -0.304 C  
HETATM    7  C   UNL     1      -7.995   7.217  71.193  1.00  0.00    -0.102 C  
HETATM    8  C   UNL     1     -12.347  10.390  69.305  1.00  0.00     0.287 C  
HETATM    9  C   UNL     1     -11.059  12.416  68.816  1.00  0.00    -0.307 A  
HETATM   10  C   UNL     1      -8.695   8.694  71.210  1.00  0.00    -0.246 C  
HETATM   11  C   UNL     1      -8.917  14.532  66.832  1.00  0.00    -0.267 A  
HETATM   12  C   UNL     1      -9.937  11.605  68.759  1.00  0.00    -0.135 A  
HETATM   13  N   UNL     1      -8.998  12.283  68.020  1.00  0.00    -0.184 NA 
HETATM   14  C   UNL     1      -8.581   9.760  70.037  1.00  0.00    -0.229 C  
HETATM   15  C   UNL     1      -9.676  15.688  66.588  1.00  0.00    -0.249 A  
HETATM   16  N   UNL     1     -11.136   9.758  69.856  1.00  0.00    -0.249 NA 
HETATM   17  C   UNL     1     -10.950  15.805  67.113  1.00  0.00    -0.244 A  
HETATM   18  C   UNL     1      -9.873  10.148  69.205  1.00  0.00    -0.214 C  
HETATM   19  C   UNL     1     -11.539  14.792  67.885  1.00  0.00    -0.373 A  
HETATM   20  C   UNL     1     -10.781  13.630  68.153  1.00  0.00    -0.260 A  
HETATM   21  H   UNL     1      -8.070  11.929  67.793  1.00  0.00     0.000 HD 
HETATM   22  C   UNL     1      -9.493  13.520  67.627  1.00  0.00    -0.222 A  
ENDROOT
BRANCH   3  23
HETATM   23  O   UNL     1      -9.653   7.335  68.977  1.00  0.00    -0.147 OA 
BRANCH  23  24
HETATM   24  C   UNL     1      -9.970   6.767  67.783  1.00  0.00    -0.138 C  
HETATM   25  O   UNL     1     -10.708   5.792  67.702  1.00  0.00    -0.251 OA 
BRANCH  24  26
HETATM   26  C   UNL     1      -9.427   7.357  66.500  1.00  0.00    -0.229 A  
HETATM   27  C   UNL     1      -8.587   6.815  65.531  1.00  0.00    -0.095 A  
HETATM   28  C   UNL     1      -9.134   9.532  65.419  1.00  0.00    -0.221 A  
HETATM   29  C   UNL     1      -7.957   7.617  64.545  1.00  0.00    -0.130 A  
HETATM   30  C   UNL     1      -9.792   8.686  66.314  1.00  0.00    -0.320 A  
HETATM   31  C   UNL     1      -8.172   9.013  64.534  1.00  0.00    -0.159 A  
BRANCH  28  32
HETATM   32  O   UNL     1      -9.439  10.872  65.425  1.00  0.00    -0.194 OA 
HETATM   33  C   UNL     1     -10.538  11.242  64.583  1.00  0.00    -0.327 C  
ENDBRANCH  28  32
BRANCH  31  34
HETATM   34  O   UNL     1      -7.406   9.752  63.673  1.00  0.00    -0.112 OA 
HETATM   35  C   UNL     1      -6.080  10.106  64.046  1.00  0.00    -0.137 C  
ENDBRANCH  31  34
BRANCH  29  36
HETATM   36  O   UNL     1      -7.139   6.870  63.720  1.00  0.00    -0.053 OA 
HETATM   37  C   UNL     1      -6.679   5.598  64.170  1.00  0.00    -0.045 C  
ENDBRANCH  29  36
ENDBRANCH  24  26
ENDBRANCH  23  24
ENDBRANCH   3  23
BRANCH   5  38
HETATM   38  O   UNL     1      -9.290   5.225  71.970  1.00  0.00    -0.136 OA 
HETATM   39  C   UNL     1      -9.809   3.923  71.748  1.00  0.00    -0.179 C  
ENDBRANCH   5  38
BRANCH   7  40
HETATM   40  C   UNL     1      -6.697   7.173  70.408  1.00  0.00    -0.052 C  
HETATM   41  O   UNL     1      -6.523   6.592  69.343  1.00  0.00    -0.040 OA 
BRANCH  40  42
HETATM   42  O   UNL     1      -5.730   7.834  71.092  1.00  0.00    -0.034 OA 
HETATM   43  C   UNL     1      -5.340   7.259  72.339  1.00  0.00    -0.037 C  
ENDBRANCH  40  42
ENDBRANCH   7  40
BRANCH  15  44
HETATM   44  O   UNL     1      -9.276  16.773  65.853  1.00  0.00    -0.486 OA 
HETATM   45  C   UNL     1      -9.897  18.017  66.142  1.00  0.00    -0.249 C  
ENDBRANCH  15  44
TORSDOF 10
ENDMDL
MODEL       23
REMARK 921   NORMALIZED FREE ENERGY PREDICTED BY IDOCK:   -4.95 KCAL/MOL
REMARK 922        TOTAL FREE ENERGY PREDICTED BY IDOCK:  -10.60 KCAL/MOL
REMARK 923 INTER-LIGAND FREE ENERGY PREDICTED BY IDOCK:   -8.68 KCAL/MOL
REMARK 924 INTRA-LIGAND FREE ENERGY PREDICTED BY IDOCK:   -1.92 KCAL/MOL
REMARK 927      BINDING AFFINITY PREDICTED BY RF-SCORE:    0.00 PKD
ROOT
HETATM    1  C   UNL     1      -9.786  17.558  67.435  1.00  0.00    -0.274 C  
HETATM    2  C   UNL     1      -9.210  18.270  68.664  1.00  0.00    -0.309 C  
HETATM    3  C   UNL     1      -7.657  18.209  68.804  1.00  0.00    -0.274 C  
HETATM    4  C   UNL     1     -10.995  13.405  68.969  1.00  0.00    -0.265 C  
HETATM    5  C   UNL     1      -7.158  19.158  67.716  1.00  0.00    -0.231 C  
HETATM    6  C   UNL     1     -10.553  16.320  67.918  1.00  0.00    -0.318 C  
HETATM    7  C   UNL     1      -7.567  18.481  66.359  1.00  0.00    -0.287 C  
HETATM    8  C   UNL     1     -10.175  14.556  69.579  1.00  0.00     0.040 C  
HETATM    9  C   UNL     1     -10.161  12.747  67.926  1.00  0.00    -0.229 A  
HETATM   10  C   UNL     1      -8.687  17.291  66.392  1.00  0.00    -0.285 C  
HETATM   11  C   UNL     1      -8.716   9.996  66.097  1.00  0.00    -0.153 A  
HETATM   12  C   UNL     1      -9.121  13.417  67.303  1.00  0.00    -0.222 A  
HETATM   13  N   UNL     1      -8.452  12.487  66.544  1.00  0.00    -0.413 NA 
HETATM   14  C   UNL     1      -8.354  15.737  66.352  1.00  0.00    -0.267 C  
HETATM   15  C   UNL     1      -9.528   8.892  66.401  1.00  0.00    -0.220 A  
HETATM   16  N   UNL     1      -9.592  15.467  68.579  1.00  0.00    -0.198 NA 
HETATM   17  C   UNL     1     -10.625   9.045  67.230  1.00  0.00    -0.301 A  
HETATM   18  C   UNL     1      -8.667  14.838  67.620  1.00  0.00    -0.178 C  
HETATM   19  C   UNL     1     -10.963  10.280  67.806  1.00  0.00    -0.360 A  
HETATM   20  C   UNL     1     -10.164  11.404  67.496  1.00  0.00    -0.210 A  
HETATM   21  H   UNL     1      -7.625  12.682  65.981  1.00  0.00     0.000 HD 
HETATM   22  C   UNL     1      -9.062  11.245  66.653  1.00  0.00    -0.179 A  
ENDROOT
BRANCH   3  23
HETATM   23  O   UNL     1      -6.993  16.914  68.570  1.00  0.00    -0.169 OA 
BRANCH  23  24
HETATM   24  C   UNL     1      -6.160  16.539  69.577  1.00  0.00    -0.199 C  
HETATM   25  O   UNL     1      -5.698  17.348  70.374  1.00  0.00    -0.232 OA 
BRANCH  24  26
HETATM   26  C   UNL     1      -5.801  15.080  69.754  1.00  0.00    -0.117 A  
HETATM   27  C   UNL     1      -5.806  14.024  68.848  1.00  0.00    -0.083 A  
HETATM   28  C   UNL     1      -5.468  13.440  71.539  1.00  0.00    -0.164 A  
HETATM   29  C   UNL     1      -5.714  12.671  69.266  1.00  0.00    -0.081 A  
HETATM   30  C   UNL     1      -5.478  14.754  71.067  1.00  0.00    -0.137 A  
HETATM   31  C   UNL     1      -5.621  12.366  70.642  1.00  0.00    -0.168 A  
BRANCH  28  32
HETATM   32  O   UNL     1      -5.313  13.218  72.886  1.00  0.00    -0.396 OA 
HETATM   33  C   UNL     1      -5.429  14.389  73.705  1.00  0.00    -0.210 C  
ENDBRANCH  28  32
BRANCH  31  34
HETATM   34  O   UNL     1      -5.710  11.047  70.994  1.00  0.00    -0.287 OA 
HETATM   35  C   UNL     1      -6.895  10.322  70.690  1.00  0.00     0.062 C  
ENDBRANCH  31  34
BRANCH  29  36
HETATM   36  O   UNL     1      -5.781  11.798  68.199  1.00  0.00    -0.046 OA 
HETATM   37  C   UNL     1      -5.147  12.153  66.972  1.00  0.00    -0.032 C  
ENDBRANCH  29  36
ENDBRANCH  24  26
ENDBRANCH  23  24
ENDBRANCH   3  23
BRANCH   5  38
HETATM   38  O   UNL     1      -7.797  20.441  67.892  1.00  0.00    -0.250 OA 
HETATM   39  C   UNL     1      -8.572  20.931  66.810  1.00  0.00     0.239 C  
ENDBRANCH   5  38
BRANCH   7  40
HETATM   40  C   UNL     1      -6.316  18.111  65.583  1.00  0.00    -0.253 C  
HETATM   41  O   UNL     1      -5.430  17.358  65.970  1.00  0.00    -0.248 OA 
BRANCH  40  42
HETATM   42  O   UNL     1      -6.294  18.787  64.407  1.00  0.00    -0.402 OA 
HETATM   43  C   UNL     1      -5.810  20.127  64.463  1.00  0.00    -0.240 C  
ENDBRANCH  40  42
ENDBRANCH   7  40
BRANCH  15  44
HETATM   44  O   UNL     1      -9.352   7.612  65.944  1.00  0.00    -0.075 OA 
HETATM   45  C   UNL     1     -10.176   6.603  66.508  1.00  0.00    -0.059 C  
ENDBRANCH  15  44
TORSDOF 10
ENDMDL
MODEL       24
REMARK 921   NORMALIZED FREE ENERGY PREDICTED BY IDOCK:   -4.93 KCAL/MOL
REMARK 922        TOTAL FREE ENERGY PREDICTED BY IDOCK:  -10.57 KCAL/MOL
REMARK 923 INTER-LIGAND FREE ENERGY PREDICTED BY IDOCK:   -8.03 KCAL/MOL
REMARK 924 INTRA-LIGAND FREE ENERGY PREDICTED BY IDOCK:   -2.54 KCAL/MOL
REMARK 927      BINDING AFFINITY PREDICTED BY RF-SCORE:    0.00 PKD
ROOT
HETATM    1  C   UNL     1      -7.391  15.663  68.055  1.00  0.00    -0.137 C  
HETATM    2  C   UNL     1      -7.806  16.028  66.626  1.00  0.00    -0.266 C  
HETATM    3  C   UNL     1      -9.305  15.769  66.277  1.00  0.00    -0.325 C  
HETATM    4  C   UNL     1      -5.639  11.436  67.703  1.00  0.00    -0.050 C  
HETATM    5  C   UNL     1     -10.047  16.869  67.036  1.00  0.00    -0.289 C  
HETATM    6  C   UNL     1      -6.465  14.442  67.985  1.00  0.00    -0.151 C  
HETATM    7  C   UNL     1      -9.821  16.547  68.556  1.00  0.00    -0.243 C  
HETATM    8  C   UNL     1      -6.430  12.333  66.734  1.00  0.00     0.240 C  
HETATM    9  C   UNL     1      -6.584  10.928  68.736  1.00  0.00    -0.059 A  
HETATM   10  C   UNL     1      -8.626  15.506  68.960  1.00  0.00    -0.234 C  
HETATM   11  C   UNL     1      -8.107   8.491  70.913  1.00  0.00    -0.140 A  
HETATM   12  C   UNL     1      -7.761  11.599  69.031  1.00  0.00    -0.002 A  
HETATM   13  N   UNL     1      -8.476  10.785  69.875  1.00  0.00    -0.206 NA 
HETATM   14  C   UNL     1      -8.845  13.970  69.304  1.00  0.00     0.441 C  
HETATM   15  C   UNL     1      -7.176   7.443  70.991  1.00  0.00    -0.068 A  
HETATM   16  N   UNL     1      -7.237  13.368  67.403  1.00  0.00    -0.145 NA 
HETATM   17  C   UNL     1      -5.971   7.534  70.319  1.00  0.00    -0.023 A  
HETATM   18  C   UNL     1      -8.260  12.861  68.334  1.00  0.00    -0.121 C  
HETATM   19  C   UNL     1      -5.634   8.647  69.531  1.00  0.00    -0.030 A  
HETATM   20  C   UNL     1      -6.554   9.717  69.457  1.00  0.00    -0.049 A  
HETATM   21  H   UNL     1      -9.397  11.005  70.253  1.00  0.00     0.000 HD 
HETATM   22  C   UNL     1      -7.766   9.622  70.144  1.00  0.00    -0.170 A  
ENDROOT
BRANCH   3  23
HETATM   23  O   UNL     1      -9.900  14.490  66.702  1.00  0.00    -0.254 OA 
BRANCH  23  24
HETATM   24  C   UNL     1     -10.271  13.692  65.666  1.00  0.00    -0.304 C  
HETATM   25  O   UNL     1     -10.465  14.136  64.540  1.00  0.00    -0.408 OA 
BRANCH  24  26
HETATM   26  C   UNL     1     -10.428  12.202  65.880  1.00  0.00    -0.288 A  
HETATM   27  C   UNL     1     -10.899  11.484  66.975  1.00  0.00    -0.320 A  
HETATM   28  C   UNL     1      -9.659  10.085  64.926  1.00  0.00    -0.310 A  
HETATM   29  C   UNL     1     -10.703  10.084  67.100  1.00  0.00    -0.212 A  
HETATM   30  C   UNL     1      -9.952  11.446  64.814  1.00  0.00    -0.313 A  
HETATM   31  C   UNL     1     -10.002   9.381  66.095  1.00  0.00    -0.281 A  
BRANCH  28  32
HETATM   32  O   UNL     1      -9.028   9.453  63.881  1.00  0.00    -0.216 OA 
HETATM   33  C   UNL     1      -7.610   9.653  63.826  1.00  0.00    -0.126 C  
ENDBRANCH  28  32
BRANCH  31  34
HETATM   34  O   UNL     1      -9.694   8.073  66.352  1.00  0.00    -0.221 OA 
HETATM   35  C   UNL     1      -8.386   7.738  66.799  1.00  0.00    -0.125 C  
ENDBRANCH  31  34
BRANCH  29  36
HETATM   36  O   UNL     1     -11.218   9.596  68.284  1.00  0.00    -0.111 OA 
HETATM   37  C   UNL     1     -11.736  10.515  69.245  1.00  0.00    -0.209 C  
ENDBRANCH  29  36
ENDBRANCH  24  26
ENDBRANCH  23  24
ENDBRANCH   3  23
BRANCH   5  38
HETATM   38  O   UNL     1      -9.484  18.146  66.666  1.00  0.00    -0.284 OA 
HETATM   39  C   UNL     1     -10.328  19.048  65.968  1.00  0.00    -0.446 C  
ENDBRANCH   5  38
BRANCH   7  40
HETATM   40  C   UNL     1     -11.152  16.216  69.205  1.00  0.00    -0.329 C  
HETATM   41  O   UNL     1     -12.130  15.745  68.636  1.00  0.00    -0.269 OA 
BRANCH  40  42
HETATM   42  O   UNL     1     -11.122  16.574  70.513  1.00  0.00    -0.313 OA 
HETATM   43  C   UNL     1     -11.852  15.739  71.410  1.00  0.00    -0.442 C  
ENDBRANCH  40  42
ENDBRANCH   7  40
BRANCH  15  44
HETATM   44  O   UNL     1      -7.331   6.279  71.698  1.00  0.00    -0.085 OA 
HETATM   45  C   UNL     1      -8.653   5.919  72.071  1.00  0.00    -0.137 C  
ENDBRANCH  15  44
TORSDOF 10
ENDMDL
MODEL       25
REMARK 921   NORMALIZED FREE ENERGY PREDICTED BY IDOCK:   -4.90 KCAL/MOL
REMARK 922        TOTAL FREE ENERGY PREDICTED BY IDOCK:  -10.52 KCAL/MOL
REMARK 923 INTER-LIGAND FREE ENERGY PREDICTED BY IDOCK:   -7.90 KCAL/MOL
REMARK 924 INTRA-LIGAND FREE ENERGY PREDICTED BY IDOCK:   -2.61 KCAL/MOL
REMARK 927      BINDING AFFINITY PREDICTED BY RF-SCORE:    0.00 PKD
ROOT
HETATM    1  C   UNL     1     -11.752  11.996  69.120  1.00  0.00    -0.389 C  
HETATM    2  C   UNL     1     -10.711  13.113  69.247  1.00  0.00     0.022 C  
HETATM    3  C   UNL     1      -9.850  13.374  67.972  1.00  0.00    -0.229 C  
HETATM    4  C   UNL     1      -9.682   8.290  70.866  1.00  0.00    -0.204 C  
HETATM    5  C   UNL     1     -10.824  14.055  67.011  1.00  0.00    -0.290 C  
HETATM    6  C   UNL     1     -11.304  10.825  70.005  1.00  0.00    -0.319 C  
HETATM    7  C   UNL     1     -11.903  12.964  66.675  1.00  0.00    -0.461 C  
HETATM    8  C   UNL     1      -9.181   9.693  70.479  1.00  0.00    -0.152 C  
HETATM    9  C   UNL     1      -9.929   7.527  69.611  1.00  0.00    -0.184 A  
HETATM   10  C   UNL     1     -12.004  11.649  67.642  1.00  0.00    -0.086 C  
HETATM   11  C   UNL     1      -9.840   4.681  67.399  1.00  0.00    -0.207 A  
HETATM   12  C   UNL     1     -10.176   8.172  68.409  1.00  0.00    -0.209 A  
HETATM   13  N   UNL     1     -10.177   7.203  67.436  1.00  0.00    -0.201 NA 
HETATM   14  C   UNL     1     -11.366  10.232  67.308  1.00  0.00     0.115 C  
HETATM   15  C   UNL     1      -9.605   3.579  68.236  1.00  0.00    -0.095 A  
HETATM   16  N   UNL     1     -10.030  10.378  69.490  1.00  0.00    -0.224 NA 
HETATM   17  C   UNL     1      -9.489   3.758  69.602  1.00  0.00    -0.258 A  
HETATM   18  C   UNL     1     -10.175   9.682  68.199  1.00  0.00    -0.190 C  
HETATM   19  C   UNL     1      -9.584   5.023  70.204  1.00  0.00    -0.257 A  
HETATM   20  C   UNL     1      -9.838   6.139  69.375  1.00  0.00    -0.191 A  
HETATM   21  H   UNL     1     -10.317   7.378  66.441  1.00  0.00     0.000 HD 
HETATM   22  C   UNL     1      -9.960   5.952  67.998  1.00  0.00    -0.137 A  
ENDROOT
BRANCH   3  23
HETATM   23  O   UNL     1      -9.303  12.207  67.260  1.00  0.00    -0.175 OA 
BRANCH  23  24
HETATM   24  C   UNL     1      -7.953  12.248  67.103  1.00  0.00    -0.161 C  
HETATM   25  O   UNL     1      -7.292  13.234  67.409  1.00  0.00    -0.160 OA 
BRANCH  24  26
HETATM   26  C   UNL     1      -7.220  11.040  66.561  1.00  0.00    -0.143 A  
HETATM   27  C   UNL     1      -7.256  10.439  65.306  1.00  0.00    -0.106 A  
HETATM   28  C   UNL     1      -5.964   9.100  67.364  1.00  0.00    -0.050 A  
HETATM   29  C   UNL     1      -6.718   9.146  65.074  1.00  0.00    -0.073 A  
HETATM   30  C   UNL     1      -6.434  10.406  67.518  1.00  0.00    -0.058 A  
HETATM   31  C   UNL     1      -6.129   8.429  66.138  1.00  0.00    -0.048 A  
BRANCH  28  32
HETATM   32  O   UNL     1      -5.347   8.486  68.427  1.00  0.00    -0.033 OA 
HETATM   33  C   UNL     1      -6.206   7.664  69.227  1.00  0.00    -0.035 C  
ENDBRANCH  28  32
BRANCH  31  34
HETATM   34  O   UNL     1      -5.787   7.127  65.895  1.00  0.00    -0.034 OA 
HETATM   35  C   UNL     1      -6.757   6.103  66.077  1.00  0.00    -0.052 C  
ENDBRANCH  31  34
BRANCH  29  36
HETATM   36  O   UNL     1      -6.906   8.740  63.768  1.00  0.00    -0.087 OA 
HETATM   37  C   UNL     1      -8.040   9.219  63.048  1.00  0.00    -0.157 C  
ENDBRANCH  29  36
ENDBRANCH  24  26
ENDBRANCH  23  24
ENDBRANCH   3  23
BRANCH   5  38
HETATM   38  O   UNL     1     -11.403  15.199  67.675  1.00  0.00    -0.317 OA 
HETATM   39  C   UNL     1     -10.733  16.441  67.527  1.00  0.00    -0.298 C  
ENDBRANCH   5  38
BRANCH   7  40
HETATM   40  C   UNL     1     -11.831  12.622  65.199  1.00  0.00    -0.396 C  
HETATM   41  O   UNL     1     -12.704  12.058  64.550  1.00  0.00    -0.401 OA 
BRANCH  40  42
HETATM   42  O   UNL     1     -10.621  12.988  64.706  1.00  0.00    -0.323 OA 
HETATM   43  C   UNL     1     -10.208  12.335  63.506  1.00  0.00    -0.379 C  
ENDBRANCH  40  42
ENDBRANCH   7  40
BRANCH  15  44
HETATM   44  O   UNL     1      -9.473   2.275  67.833  1.00  0.00    -0.200 OA 
HETATM   45  C   UNL     1      -8.215   1.886  67.302  1.00  0.00    -0.073 C  
ENDBRANCH  15  44
TORSDOF 10
ENDMDL
MODEL       26
REMARK 921   NORMALIZED FREE ENERGY PREDICTED BY IDOCK:   -4.89 KCAL/MOL
REMARK 922        TOTAL FREE ENERGY PREDICTED BY IDOCK:  -10.50 KCAL/MOL
REMARK 923 INTER-LIGAND FREE ENERGY PREDICTED BY IDOCK:   -8.66 KCAL/MOL
REMARK 924 INTRA-LIGAND FREE ENERGY PREDICTED BY IDOCK:   -1.84 KCAL/MOL
REMARK 927      BINDING AFFINITY PREDICTED BY RF-SCORE:    0.00 PKD
ROOT
HETATM    1  C   UNL     1      -9.709  14.037  67.825  1.00  0.00    -0.228 C  
HETATM    2  C   UNL     1      -8.840  14.156  66.569  1.00  0.00    -0.071 C  
HETATM    3  C   UNL     1      -9.422  13.486  65.286  1.00  0.00     0.347 C  
HETATM    4  C   UNL     1      -8.020  10.398  70.056  1.00  0.00     0.090 C  
HETATM    5  C   UNL     1     -10.566  14.415  64.881  1.00  0.00    -0.434 C  
HETATM    6  C   UNL     1      -8.999  13.098  68.809  1.00  0.00     0.166 C  
HETATM    7  C   UNL     1     -11.624  14.296  66.036  1.00  0.00    -0.362 C  
HETATM    8  C   UNL     1      -7.788  10.972  68.646  1.00  0.00    -0.136 C  
HETATM    9  C   UNL     1      -9.362   9.753  70.075  1.00  0.00    -0.274 A  
HETATM   10  C   UNL     1     -11.150  13.642  67.457  1.00  0.00    -0.296 C  
HETATM   11  C   UNL     1     -11.793   7.200  70.833  1.00  0.00    -0.379 A  
HETATM   12  C   UNL     1     -10.352  10.116  69.177  1.00  0.00    -0.219 A  
HETATM   13  N   UNL     1     -11.380   9.220  69.341  1.00  0.00    -0.436 NA 
HETATM   14  C   UNL     1     -11.421  12.138  67.893  1.00  0.00    -0.392 C  
HETATM   15  C   UNL     1     -11.214   6.442  71.863  1.00  0.00    -0.280 A  
HETATM   16  N   UNL     1      -8.893  11.814  68.155  1.00  0.00    -0.164 NA 
HETATM   17  C   UNL     1      -9.971   6.786  72.362  1.00  0.00    -0.184 A  
HETATM   18  C   UNL     1     -10.199  11.140  68.056  1.00  0.00    -0.181 C  
HETATM   19  C   UNL     1      -9.238   7.876  71.865  1.00  0.00    -0.202 A  
HETATM   20  C   UNL     1      -9.816   8.658  70.840  1.00  0.00    -0.256 A  
HETATM   21  H   UNL     1     -12.246   9.224  68.803  1.00  0.00     0.000 HD 
HETATM   22  C   UNL     1     -11.074   8.310  70.344  1.00  0.00    -0.235 A  
ENDROOT
BRANCH   3  23
HETATM   23  O   UNL     1     -10.001  12.138  65.414  1.00  0.00    -0.253 OA 
BRANCH  23  24
HETATM   24  C   UNL     1      -9.584  11.272  64.453  1.00  0.00    -0.225 C  
HETATM   25  O   UNL     1      -9.351  11.637  63.306  1.00  0.00    -0.255 OA 
BRANCH  24  26
HETATM   26  C   UNL     1      -9.367   9.814  64.795  1.00  0.00    -0.327 A  
HETATM   27  C   UNL     1      -9.844   9.044  65.852  1.00  0.00    -0.257 A  
HETATM   28  C   UNL     1      -7.861   7.968  64.238  1.00  0.00    -0.137 A  
HETATM   29  C   UNL     1      -9.301   7.771  66.162  1.00  0.00    -0.100 A  
HETATM   30  C   UNL     1      -8.487   9.177  63.926  1.00  0.00    -0.189 A  
HETATM   31  C   UNL     1      -8.237   7.254  65.390  1.00  0.00    -0.137 A  
BRANCH  28  32
HETATM   32  O   UNL     1      -6.874   7.497  63.406  1.00  0.00    -0.056 OA 
HETATM   33  C   UNL     1      -5.565   8.019  63.670  1.00  0.00    -0.054 C  
ENDBRANCH  28  32
BRANCH  31  34
HETATM   34  O   UNL     1      -7.643   6.107  65.841  1.00  0.00    -0.083 OA 
HETATM   35  C   UNL     1      -6.541   6.196  66.736  1.00  0.00    -0.059 C  
ENDBRANCH  31  34
BRANCH  29  36
HETATM   36  O   UNL     1      -9.902   7.213  67.273  1.00  0.00    -0.146 OA 
HETATM   37  C   UNL     1     -11.062   6.402  67.100  1.00  0.00    -0.341 C  
ENDBRANCH  29  36
ENDBRANCH  24  26
ENDBRANCH  23  24
ENDBRANCH   3  23
BRANCH   5  38
HETATM   38  O   UNL     1     -10.049  15.759  64.761  1.00  0.00    -0.330 OA 
HETATM   39  C   UNL     1     -10.921  16.821  65.114  1.00  0.00    -0.100 C  
ENDBRANCH   5  38
BRANCH   7  40
HETATM   40  C   UNL     1     -12.901  13.687  65.488  1.00  0.00    -0.392 C  
HETATM   41  O   UNL     1     -13.997  14.232  65.451  1.00  0.00     0.295 OA 
BRANCH  40  42
HETATM   42  O   UNL     1     -12.662  12.412  65.090  1.00  0.00    -0.630 OA 
HETATM   43  C   UNL     1     -13.017  12.097  63.744  1.00  0.00    -0.220 C  
ENDBRANCH  40  42
ENDBRANCH   7  40
BRANCH  15  44
HETATM   44  O   UNL     1     -11.769   5.344  72.465  1.00  0.00    -0.233 OA 
HETATM   45  C   UNL     1     -11.117   4.839  73.621  1.00  0.00    -0.304 C  
ENDBRANCH  15  44
TORSDOF 10
ENDMDL
MODEL       27
REMARK 921   NORMALIZED FREE ENERGY PREDICTED BY IDOCK:   -4.82 KCAL/MOL
REMARK 922        TOTAL FREE ENERGY PREDICTED BY IDOCK:  -10.39 KCAL/MOL
REMARK 923 INTER-LIGAND FREE ENERGY PREDICTED BY IDOCK:   -8.07 KCAL/MOL
REMARK 924 INTRA-LIGAND FREE ENERGY PREDICTED BY IDOCK:   -2.31 KCAL/MOL
REMARK 927      BINDING AFFINITY PREDICTED BY RF-SCORE:    0.00 PKD
ROOT
HETATM    1  C   UNL     1      -6.088   7.695  67.316  1.00  0.00    -0.048 C  
HETATM    2  C   UNL     1      -6.595   6.644  68.309  1.00  0.00    -0.059 C  
HETATM    3  C   UNL     1      -7.959   5.980  67.942  1.00  0.00    -0.106 C  
HETATM    4  C   UNL     1      -7.477  11.702  69.071  1.00  0.00    -0.051 C  
HETATM    5  C   UNL     1      -7.611   5.063  66.771  1.00  0.00    -0.088 C  
HETATM    6  C   UNL     1      -6.171   9.069  67.994  1.00  0.00    -0.051 C  
HETATM    7  C   UNL     1      -7.189   6.026  65.603  1.00  0.00    -0.074 C  
HETATM    8  C   UNL     1      -7.800  10.235  69.408  1.00  0.00    -0.157 C  
HETATM    9  C   UNL     1      -8.175  12.048  67.802  1.00  0.00    -0.151 A  
HETATM   10  C   UNL     1      -6.823   7.577  65.970  1.00  0.00    -0.057 C  
HETATM   11  C   UNL     1     -10.133  14.070  65.549  1.00  0.00    -0.343 A  
HETATM   12  C   UNL     1      -8.545  11.071  66.891  1.00  0.00    -0.143 A  
HETATM   13  N   UNL     1      -9.316  11.692  65.939  1.00  0.00    -0.228 NA 
HETATM   14  C   UNL     1      -7.817   8.804  65.793  1.00  0.00    -0.099 C  
HETATM   15  C   UNL     1     -10.062  15.370  66.075  1.00  0.00    -0.324 A  
HETATM   16  N   UNL     1      -7.565   9.302  68.293  1.00  0.00    -0.083 NA 
HETATM   17  C   UNL     1      -9.320  15.618  67.215  1.00  0.00    -0.223 A  
HETATM   18  C   UNL     1      -8.350   9.569  67.075  1.00  0.00    -0.124 C  
HETATM   19  C   UNL     1      -8.629  14.603  67.895  1.00  0.00    -0.165 A  
HETATM   20  C   UNL     1      -8.676  13.292  67.367  1.00  0.00    -0.206 A  
HETATM   21  H   UNL     1      -9.748  11.223  65.144  1.00  0.00     0.000 HD 
HETATM   22  C   UNL     1      -9.422  13.050  66.212  1.00  0.00    -0.192 A  
ENDROOT
BRANCH   3  23
HETATM   23  O   UNL     1      -9.050   6.856  67.480  1.00  0.00    -0.119 OA 
BRANCH  23  24
HETATM   24  C   UNL     1     -10.277   6.479  67.926  1.00  0.00    -0.168 C  
HETATM   25  O   UNL     1     -11.028   5.782  67.253  1.00  0.00    -0.255 OA 
BRANCH  24  26
HETATM   26  C   UNL     1     -10.740   6.898  69.305  1.00  0.00    -0.265 A  
HETATM   27  C   UNL     1     -11.244   6.149  70.364  1.00  0.00    -0.423 A  
HETATM   28  C   UNL     1     -11.408   8.914  70.520  1.00  0.00    -0.234 A  
HETATM   29  C   UNL     1     -11.892   6.752  71.472  1.00  0.00    -0.333 A  
HETATM   30  C   UNL     1     -10.706   8.276  69.495  1.00  0.00    -0.179 A  
HETATM   31  C   UNL     1     -12.048   8.156  71.517  1.00  0.00    -0.298 A  
BRANCH  28  32
HETATM   32  O   UNL     1     -11.466  10.287  70.531  1.00  0.00    -0.296 OA 
HETATM   33  C   UNL     1     -11.801  10.885  69.272  1.00  0.00    -0.324 C  
ENDBRANCH  28  32
BRANCH  31  34
HETATM   34  O   UNL     1     -12.830   8.662  72.519  1.00  0.00    -0.379 OA 
HETATM   35  C   UNL     1     -14.227   8.813  72.306  1.00  0.00    -0.420 C  
ENDBRANCH  31  34
BRANCH  29  36
HETATM   36  O   UNL     1     -12.345   5.812  72.377  1.00  0.00    -0.159 OA 
HETATM   37  C   UNL     1     -11.396   5.003  73.068  1.00  0.00    -0.298 C  
ENDBRANCH  29  36
ENDBRANCH  24  26
ENDBRANCH  23  24
ENDBRANCH   3  23
BRANCH   5  38
HETATM   38  O   UNL     1      -6.528   4.194  67.170  1.00  0.00    -0.039 OA 
HETATM   39  C   UNL     1      -6.875   2.901  67.640  1.00  0.00    -0.048 C  
ENDBRANCH   5  38
BRANCH   7  40
HETATM   40  C   UNL     1      -8.177   5.894  64.459  1.00  0.00    -0.110 C  
HETATM   41  O   UNL     1      -9.244   5.292  64.500  1.00  0.00     0.033 OA 
BRANCH  40  42
HETATM   42  O   UNL     1      -7.676   6.499  63.354  1.00  0.00    -0.095 OA 
HETATM   43  C   UNL     1      -7.051   5.644  62.398  1.00  0.00    -0.041 C  
ENDBRANCH  40  42
ENDBRANCH   7  40
BRANCH  15  44
HETATM   44  O   UNL     1     -10.675  16.482  65.559  1.00  0.00    -0.359 OA 
HETATM   45  C   UNL     1     -10.204  17.746  66.001  1.00  0.00    -0.293 C  
ENDBRANCH  15  44
TORSDOF 10
ENDMDL
MODEL       28
REMARK 921   NORMALIZED FREE ENERGY PREDICTED BY IDOCK:   -4.81 KCAL/MOL
REMARK 922        TOTAL FREE ENERGY PREDICTED BY IDOCK:  -10.38 KCAL/MOL
REMARK 923 INTER-LIGAND FREE ENERGY PREDICTED BY IDOCK:   -8.04 KCAL/MOL
REMARK 924 INTRA-LIGAND FREE ENERGY PREDICTED BY IDOCK:   -2.34 KCAL/MOL
REMARK 927      BINDING AFFINITY PREDICTED BY RF-SCORE:    0.00 PKD
ROOT
HETATM    1  C   UNL     1      -6.871  11.044  68.302  1.00  0.00    -0.067 C  
HETATM    2  C   UNL     1      -8.044  10.419  69.063  1.00  0.00    -0.138 C  
HETATM    3  C   UNL     1      -9.401  10.388  68.293  1.00  0.00    -0.149 C  
HETATM    4  C   UNL     1      -6.750  15.400  69.744  1.00  0.00    -0.170 C  
HETATM    5  C   UNL     1      -9.191   9.305  67.236  1.00  0.00    -0.126 C  
HETATM    6  C   UNL     1      -6.515  12.372  68.982  1.00  0.00    -0.097 C  
HETATM    7  C   UNL     1      -8.082   9.872  66.279  1.00  0.00    -0.114 C  
HETATM    8  C   UNL     1      -7.771  14.261  69.914  1.00  0.00     0.527 C  
HETATM    9  C   UNL     1      -6.842  15.895  68.343  1.00  0.00    -0.116 A  
HETATM   10  C   UNL     1      -7.180  11.134  66.797  1.00  0.00    -0.146 C  
HETATM   11  C   UNL     1      -6.990  18.350  65.706  1.00  0.00    -0.288 A  
HETATM   12  C   UNL     1      -7.343  15.098  67.326  1.00  0.00    -0.181 A  
HETATM   13  N   UNL     1      -7.461  15.902  66.218  1.00  0.00    -0.063 NA 
HETATM   14  C   UNL     1      -7.431  12.649  66.392  1.00  0.00     1.024 C  
HETATM   15  C   UNL     1      -6.495  19.531  66.282  1.00  0.00    -0.192 A  
HETATM   16  N   UNL     1      -7.681  13.219  68.877  1.00  0.00    -0.005 NA 
HETATM   17  C   UNL     1      -6.065  19.534  67.596  1.00  0.00    -0.215 A  
HETATM   18  C   UNL     1      -7.896  13.687  67.497  1.00  0.00    -0.177 C  
HETATM   19  C   UNL     1      -6.115  18.387  68.405  1.00  0.00    -0.193 A  
HETATM   20  C   UNL     1      -6.595  17.187  67.833  1.00  0.00    -0.154 A  
HETATM   21  H   UNL     1      -7.820  15.597  65.314  1.00  0.00     0.000 HD 
HETATM   22  C   UNL     1      -7.021  17.188  66.504  1.00  0.00    -0.261 A  
ENDROOT
BRANCH   3  23
HETATM   23  O   UNL     1      -9.813  11.605  67.574  1.00  0.00    -0.185 OA 
BRANCH  23  24
HETATM   24  C   UNL     1     -11.125  11.919  67.741  1.00  0.00    -0.239 C  
HETATM   25  O   UNL     1     -11.961  11.703  66.872  1.00  0.00    -0.567 OA 
BRANCH  24  26
HETATM   26  C   UNL     1     -11.594  12.530  69.044  1.00  0.00    -0.365 A  
HETATM   27  C   UNL     1     -12.185  11.949  70.162  1.00  0.00    -0.319 A  
HETATM   28  C   UNL     1     -12.137  14.718  69.995  1.00  0.00    -0.329 A  
HETATM   29  C   UNL     1     -12.817  12.724  71.169  1.00  0.00    -0.226 A  
HETATM   30  C   UNL     1     -11.458  13.914  69.077  1.00  0.00    -0.341 A  
HETATM   31  C   UNL     1     -12.863  14.131  71.047  1.00  0.00    -0.351 A  
BRANCH  28  32
HETATM   32  O   UNL     1     -12.087  16.083  69.846  1.00  0.00    -0.278 OA 
HETATM   33  C   UNL     1     -10.765  16.634  69.794  1.00  0.00    -0.254 C  
ENDBRANCH  28  32
BRANCH  31  34
HETATM   34  O   UNL     1     -13.632  14.808  71.954  1.00  0.00    -0.337 OA 
HETATM   35  C   UNL     1     -13.041  15.276  73.160  1.00  0.00    -0.518 C  
ENDBRANCH  31  34
BRANCH  29  36
HETATM   36  O   UNL     1     -13.368  11.932  72.157  1.00  0.00    -0.503 OA 
HETATM   37  C   UNL     1     -13.211  10.517  72.078  1.00  0.00    -0.378 C  
ENDBRANCH  29  36
ENDBRANCH  24  26
ENDBRANCH  23  24
ENDBRANCH   3  23
BRANCH   5  38
HETATM   38  O   UNL     1      -8.765   8.092  67.894  1.00  0.00    -0.127 OA 
HETATM   39  C   UNL     1      -9.579   6.942  67.721  1.00  0.00    -0.122 C  
ENDBRANCH   5  38
BRANCH   7  40
HETATM   40  C   UNL     1      -8.669  10.080  64.895  1.00  0.00    -0.182 C  
HETATM   41  O   UNL     1      -9.861  10.067  64.612  1.00  0.00    -0.318 OA 
BRANCH  40  42
HETATM   42  O   UNL     1      -7.666  10.228  63.994  1.00  0.00    -0.151 OA 
HETATM   43  C   UNL     1      -8.065  10.461  62.644  1.00  0.00    -0.159 C  
ENDBRANCH  40  42
ENDBRANCH   7  40
BRANCH  15  44
HETATM   44  O   UNL     1      -6.380  20.744  65.657  1.00  0.00    -0.239 OA 
HETATM   45  C   UNL     1      -6.483  20.757  64.240  1.00  0.00    -0.248 C  
ENDBRANCH  15  44
TORSDOF 10
ENDMDL
MODEL       29
REMARK 921   NORMALIZED FREE ENERGY PREDICTED BY IDOCK:   -4.81 KCAL/MOL
REMARK 922        TOTAL FREE ENERGY PREDICTED BY IDOCK:  -10.38 KCAL/MOL
REMARK 923 INTER-LIGAND FREE ENERGY PREDICTED BY IDOCK:   -9.27 KCAL/MOL
REMARK 924 INTRA-LIGAND FREE ENERGY PREDICTED BY IDOCK:   -1.10 KCAL/MOL
REMARK 927      BINDING AFFINITY PREDICTED BY RF-SCORE:    0.00 PKD
ROOT
HETATM    1  C   UNL     1      -6.216   9.855  68.089  1.00  0.00    -0.054 C  
HETATM    2  C   UNL     1      -6.507   9.180  69.433  1.00  0.00    -0.044 C  
HETATM    3  C   UNL     1      -8.017   8.966  69.761  1.00  0.00    -0.100 C  
HETATM    4  C   UNL     1      -5.687  14.297  69.120  1.00  0.00    -0.092 C  
HETATM    5  C   UNL     1      -8.434   7.834  68.824  1.00  0.00    -0.129 C  
HETATM    6  C   UNL     1      -5.659  11.257  68.371  1.00  0.00    -0.042 C  
HETATM    7  C   UNL     1      -8.313   8.431  67.376  1.00  0.00    -0.124 C  
HETATM    8  C   UNL     1      -6.196  13.082  69.918  1.00  0.00    -0.089 C  
HETATM    9  C   UNL     1      -6.741  14.678  68.139  1.00  0.00    -0.135 A  
HETATM   10  C   UNL     1      -7.451   9.806  67.173  1.00  0.00    -0.088 C  
HETATM   11  C   UNL     1      -8.885  16.910  66.289  1.00  0.00    -0.314 A  
HETATM   12  C   UNL     1      -7.690  13.766  67.707  1.00  0.00    -0.168 A  
HETATM   13  N   UNL     1      -8.605  14.472  66.965  1.00  0.00    -0.263 NA 
HETATM   14  C   UNL     1      -8.084  11.258  67.049  1.00  0.00    -0.149 C  
HETATM   15  C   UNL     1      -8.276  18.170  66.399  1.00  0.00    -0.253 A  
HETATM   16  N   UNL     1      -6.692  11.981  69.076  1.00  0.00    -0.094 NA 
HETATM   17  C   UNL     1      -7.089  18.309  67.094  1.00  0.00    -0.211 A  
HETATM   18  C   UNL     1      -7.820  12.325  68.192  1.00  0.00    -0.148 C  
HETATM   19  C   UNL     1      -6.456  17.225  67.722  1.00  0.00    -0.164 A  
HETATM   20  C   UNL     1      -7.047  15.946  67.605  1.00  0.00    -0.185 A  
HETATM   21  H   UNL     1      -9.433  14.070  66.527  1.00  0.00     0.000 HD 
HETATM   22  C   UNL     1      -8.243  15.811  66.896  1.00  0.00    -0.253 A  
ENDROOT
BRANCH   3  23
HETATM   23  O   UNL     1      -8.943  10.084  69.508  1.00  0.00    -0.185 OA 
BRANCH  23  24
HETATM   24  C   UNL     1     -10.177   9.903  70.048  1.00  0.00    -0.271 C  
HETATM   25  O   UNL     1     -11.177  10.435  69.578  1.00  0.00    -0.238 OA 
BRANCH  24  26
HETATM   26  C   UNL     1     -10.350   8.999  71.249  1.00  0.00    -0.383 A  
HETATM   27  C   UNL     1      -9.468   8.666  72.274  1.00  0.00    -0.336 A  
HETATM   28  C   UNL     1     -11.829   7.226  72.057  1.00  0.00    -0.296 A  
HETATM   29  C   UNL     1      -9.711   7.580  73.154  1.00  0.00    -0.247 A  
HETATM   30  C   UNL     1     -11.582   8.355  71.273  1.00  0.00    -0.326 A  
HETATM   31  C   UNL     1     -10.875   6.795  72.996  1.00  0.00    -0.283 A  
BRANCH  28  32
HETATM   32  O   UNL     1     -13.012   6.547  71.890  1.00  0.00    -0.268 OA 
HETATM   33  C   UNL     1     -14.127   7.364  71.513  1.00  0.00    -0.409 C  
ENDBRANCH  28  32
BRANCH  31  34
HETATM   34  O   UNL     1     -10.968   5.663  73.759  1.00  0.00    -0.238 OA 
HETATM   35  C   UNL     1     -10.618   4.407  73.190  1.00  0.00    -0.200 C  
ENDBRANCH  31  34
BRANCH  29  36
HETATM   36  O   UNL     1      -8.683   7.414  74.060  1.00  0.00    -0.185 OA 
HETATM   37  C   UNL     1      -7.351   7.257  73.577  1.00  0.00    -0.079 C  
ENDBRANCH  29  36
ENDBRANCH  24  26
ENDBRANCH  23  24
ENDBRANCH   3  23
BRANCH   5  38
HETATM   38  O   UNL     1      -7.540   6.717  69.022  1.00  0.00    -0.096 OA 
HETATM   39  C   UNL     1      -7.338   5.847  67.920  1.00  0.00    -0.077 C  
ENDBRANCH   5  38
BRANCH   7  40
HETATM   40  C   UNL     1      -9.687   8.482  66.735  1.00  0.00    -0.236 C  
HETATM   41  O   UNL     1      -9.996   9.144  65.752  1.00  0.00    -0.277 OA 
BRANCH  40  42
HETATM   42  O   UNL     1     -10.551   7.720  67.453  1.00  0.00    -0.274 OA 
HETATM   43  C   UNL     1     -10.904   6.463  66.879  1.00  0.00    -0.357 C  
ENDBRANCH  40  42
ENDBRANCH   7  40
BRANCH  15  44
HETATM   44  O   UNL     1      -8.748  19.341  65.866  1.00  0.00    -0.443 OA 
HETATM   45  C   UNL     1      -9.978  19.836  66.375  1.00  0.00    -0.470 C  
ENDBRANCH  15  44
TORSDOF 10
ENDMDL
MODEL       30
REMARK 921   NORMALIZED FREE ENERGY PREDICTED BY IDOCK:   -4.80 KCAL/MOL
REMARK 922        TOTAL FREE ENERGY PREDICTED BY IDOCK:  -10.36 KCAL/MOL
REMARK 923 INTER-LIGAND FREE ENERGY PREDICTED BY IDOCK:   -8.51 KCAL/MOL
REMARK 924 INTRA-LIGAND FREE ENERGY PREDICTED BY IDOCK:   -1.86 KCAL/MOL
REMARK 927      BINDING AFFINITY PREDICTED BY RF-SCORE:    0.00 PKD
ROOT
HETATM    1  C   UNL     1      -5.987   9.568  68.413  1.00  0.00    -0.044 C  
HETATM    2  C   UNL     1      -6.603   8.864  69.626  1.00  0.00    -0.043 C  
HETATM    3  C   UNL     1      -8.155   8.704  69.589  1.00  0.00    -0.112 C  
HETATM    4  C   UNL     1      -5.563  13.949  69.714  1.00  0.00    -0.103 C  
HETATM    5  C   UNL     1      -8.381   7.619  68.536  1.00  0.00    -0.129 C  
HETATM    6  C   UNL     1      -5.464  10.936  68.871  1.00  0.00    -0.040 C  
HETATM    7  C   UNL     1      -7.908   8.256  67.180  1.00  0.00    -0.097 C  
HETATM    8  C   UNL     1      -6.283  12.733  70.324  1.00  0.00     0.021 C  
HETATM    9  C   UNL     1      -6.347  14.404  68.533  1.00  0.00    -0.088 A  
HETATM   10  C   UNL     1      -6.977   9.599  67.236  1.00  0.00    -0.085 C  
HETATM   11  C   UNL     1      -7.929  16.780  66.330  1.00  0.00    -0.352 A  
HETATM   12  C   UNL     1      -7.201  13.547  67.858  1.00  0.00    -0.139 A  
HETATM   13  N   UNL     1      -7.896  14.313  66.954  1.00  0.00    -0.319 NA 
HETATM   14  C   UNL     1      -7.516  11.079  67.028  1.00  0.00    -0.127 C  
HETATM   15  C   UNL     1      -7.321  18.010  66.627  1.00  0.00    -0.221 A  
HETATM   16  N   UNL     1      -6.607  11.680  69.347  1.00  0.00    -0.109 NA 
HETATM   17  C   UNL     1      -6.323  18.078  67.582  1.00  0.00    -0.179 A  
HETATM   18  C   UNL     1      -7.488  12.099  68.242  1.00  0.00    -0.107 C  
HETATM   19  C   UNL     1      -5.889  16.949  68.294  1.00  0.00    -0.129 A  
HETATM   20  C   UNL     1      -6.480  15.701  67.994  1.00  0.00    -0.151 A  
HETATM   21  H   UNL     1      -8.613  13.960  66.322  1.00  0.00     0.000 HD 
HETATM   22  C   UNL     1      -7.482  15.637  67.024  1.00  0.00    -0.193 A  
ENDROOT
BRANCH   3  23
HETATM   23  O   UNL     1      -8.959   9.866  69.174  1.00  0.00    -0.147 OA 
BRANCH  23  24
HETATM   24  C   UNL     1     -10.146   9.969  69.828  1.00  0.00    -0.248 C  
HETATM   25  O   UNL     1     -10.535   9.108  70.610  1.00  0.00    -0.209 OA 
BRANCH  24  26
HETATM   26  C   UNL     1     -11.019  11.188  69.620  1.00  0.00    -0.254 A  
HETATM   27  C   UNL     1     -10.984  12.177  68.641  1.00  0.00    -0.284 A  
HETATM   28  C   UNL     1     -12.621  12.571  70.846  1.00  0.00    -0.241 A  
HETATM   29  C   UNL     1     -11.701  13.395  68.775  1.00  0.00    -0.340 A  
HETATM   30  C   UNL     1     -11.964  11.359  70.626  1.00  0.00    -0.413 A  
HETATM   31  C   UNL     1     -12.473  13.632  69.934  1.00  0.00    -0.167 A  
BRANCH  28  32
HETATM   32  O   UNL     1     -13.404  12.708  71.967  1.00  0.00    -0.502 OA 
HETATM   33  C   UNL     1     -12.978  13.729  72.878  1.00  0.00    -0.146 C  
ENDBRANCH  28  32
BRANCH  31  34
HETATM   34  O   UNL     1     -12.997  14.886  70.084  1.00  0.00    -0.214 OA 
HETATM   35  C   UNL     1     -12.143  15.961  70.455  1.00  0.00    -0.287 C  
ENDBRANCH  31  34
BRANCH  29  36
HETATM   36  O   UNL     1     -11.483  14.238  67.704  1.00  0.00    -0.309 OA 
HETATM   37  C   UNL     1     -12.236  14.048  66.508  1.00  0.00    -0.451 C  
ENDBRANCH  29  36
ENDBRANCH  24  26
ENDBRANCH  23  24
ENDBRANCH   3  23
BRANCH   5  38
HETATM   38  O   UNL     1      -7.595   6.461  68.890  1.00  0.00    -0.095 OA 
HETATM   39  C   UNL     1      -8.178   5.534  69.792  1.00  0.00    -0.101 C  
ENDBRANCH   5  38
BRANCH   7  40
HETATM   40  C   UNL     1      -9.095   8.383  66.243  1.00  0.00    -0.194 C  
HETATM   41  O   UNL     1     -10.274   8.355  66.572  1.00  0.00    -0.293 OA 
BRANCH  40  42
HETATM   42  O   UNL     1      -8.654   8.479  64.963  1.00  0.00    -0.179 OA 
HETATM   43  C   UNL     1      -7.957   7.344  64.453  1.00  0.00    -0.109 C  
ENDBRANCH  40  42
ENDBRANCH   7  40
BRANCH  15  44
HETATM   44  O   UNL     1      -7.617  19.216  66.046  1.00  0.00    -0.277 OA 
HETATM   45  C   UNL     1      -8.057  20.258  66.905  1.00  0.00    -0.299 C  
ENDBRANCH  15  44
TORSDOF 10
ENDMDL
MODEL       31
REMARK 921   NORMALIZED FREE ENERGY PREDICTED BY IDOCK:   -4.73 KCAL/MOL
REMARK 922        TOTAL FREE ENERGY PREDICTED BY IDOCK:  -10.26 KCAL/MOL
REMARK 923 INTER-LIGAND FREE ENERGY PREDICTED BY IDOCK:   -8.03 KCAL/MOL
REMARK 924 INTRA-LIGAND FREE ENERGY PREDICTED BY IDOCK:   -2.23 KCAL/MOL
REMARK 927      BINDING AFFINITY PREDICTED BY RF-SCORE:    0.00 PKD
ROOT
HETATM    1  C   UNL     1     -11.296   8.863  71.747  1.00  0.00    -0.431 C  
HETATM    2  C   UNL     1     -12.103   7.733  71.100  1.00  0.00    -0.306 C  
HETATM    3  C   UNL     1     -11.275   6.725  70.243  1.00  0.00    -0.334 C  
HETATM    4  C   UNL     1     -11.715  12.390  68.840  1.00  0.00    -0.372 C  
HETATM    5  C   UNL     1     -10.506   5.912  71.284  1.00  0.00    -0.233 C  
HETATM    6  C   UNL     1     -11.678  10.178  71.055  1.00  0.00    -0.382 C  
HETATM    7  C   UNL     1      -9.519   6.931  71.957  1.00  0.00    -0.147 C  
HETATM    8  C   UNL     1     -12.074  10.896  68.744  1.00  0.00    -0.054 C  
HETATM    9  C   UNL     1     -10.234  12.515  68.736  1.00  0.00    -0.101 A  
HETATM   10  C   UNL     1      -9.794   8.530  71.752  1.00  0.00    -0.339 C  
HETATM   11  C   UNL     1      -7.104  13.907  67.610  1.00  0.00    -0.190 A  
HETATM   12  C   UNL     1      -9.395  11.459  69.053  1.00  0.00     0.053 A  
HETATM   13  N   UNL     1      -8.128  11.837  68.680  1.00  0.00    -0.256 NA 
HETATM   14  C   UNL     1      -9.039   9.447  70.696  1.00  0.00    -0.292 C  
HETATM   15  C   UNL     1      -7.427  15.188  67.136  1.00  0.00    -0.141 A  
HETATM   16  N   UNL     1     -11.308  10.038  69.665  1.00  0.00    -0.229 NA 
HETATM   17  C   UNL     1      -8.731  15.644  67.201  1.00  0.00    -0.233 A  
HETATM   18  C   UNL     1      -9.847  10.067  69.480  1.00  0.00    -0.229 C  
HETATM   19  C   UNL     1      -9.774  14.860  67.720  1.00  0.00    -0.212 A  
HETATM   20  C   UNL     1      -9.461  13.575  68.217  1.00  0.00    -0.212 A  
HETATM   21  H   UNL     1      -7.296  11.256  68.775  1.00  0.00     0.000 HD 
HETATM   22  C   UNL     1      -8.142  13.123  68.155  1.00  0.00    -0.155 A  
ENDROOT
BRANCH   3  23
HETATM   23  O   UNL     1     -10.272   7.273  69.313  1.00  0.00    -0.182 OA 
BRANCH  23  24
HETATM   24  C   UNL     1     -10.378   6.785  68.049  1.00  0.00    -0.189 C  
HETATM   25  O   UNL     1     -11.368   6.168  67.671  1.00  0.00    -0.197 OA 
BRANCH  24  26
HETATM   26  C   UNL     1      -9.264   7.023  67.052  1.00  0.00    -0.167 A  
HETATM   27  C   UNL     1      -8.731   8.206  66.547  1.00  0.00    -0.160 A  
HETATM   28  C   UNL     1      -7.991   5.816  65.348  1.00  0.00    -0.117 A  
HETATM   29  C   UNL     1      -7.886   8.224  65.407  1.00  0.00    -0.113 A  
HETATM   30  C   UNL     1      -8.749   5.846  66.520  1.00  0.00    -0.126 A  
HETATM   31  C   UNL     1      -7.571   7.016  64.747  1.00  0.00    -0.105 A  
BRANCH  28  32
HETATM   32  O   UNL     1      -7.671   4.600  64.794  1.00  0.00    -0.075 OA 
HETATM   33  C   UNL     1      -8.650   4.076  63.887  1.00  0.00    -0.103 C  
ENDBRANCH  28  32
BRANCH  31  34
HETATM   34  O   UNL     1      -6.898   7.116  63.559  1.00  0.00    -0.050 OA 
HETATM   35  C   UNL     1      -7.631   7.299  62.354  1.00  0.00    -0.107 C  
ENDBRANCH  31  34
BRANCH  29  36
HETATM   36  O   UNL     1      -7.514   9.509  65.066  1.00  0.00    -0.103 OA 
HETATM   37  C   UNL     1      -6.710  10.262  65.972  1.00  0.00    -0.114 C  
ENDBRANCH  29  36
ENDBRANCH  24  26
ENDBRANCH  23  24
ENDBRANCH   3  23
BRANCH   5  38
HETATM   38  O   UNL     1     -11.449   5.369  72.234  1.00  0.00    -0.201 OA 
HETATM   39  C   UNL     1     -10.977   5.131  73.550  1.00  0.00    -0.310 C  
ENDBRANCH   5  38
BRANCH   7  40
HETATM   40  C   UNL     1      -8.089   6.522  71.655  1.00  0.00    -0.108 C  
HETATM   41  O   UNL     1      -7.672   6.117  70.576  1.00  0.00    -0.096 OA 
BRANCH  40  42
HETATM   42  O   UNL     1      -7.341   6.617  72.782  1.00  0.00    -0.084 OA 
HETATM   43  C   UNL     1      -6.578   5.463  73.129  1.00  0.00    -0.071 C  
ENDBRANCH  40  42
ENDBRANCH   7  40
BRANCH  15  44
HETATM   44  O   UNL     1      -6.551  16.089  66.588  1.00  0.00    -0.224 OA 
HETATM   45  C   UNL     1      -6.893  17.464  66.680  1.00  0.00    -0.233 C  
ENDBRANCH  15  44
TORSDOF 10
ENDMDL
MODEL       32
REMARK 921   NORMALIZED FREE ENERGY PREDICTED BY IDOCK:   -4.71 KCAL/MOL
REMARK 922        TOTAL FREE ENERGY PREDICTED BY IDOCK:  -10.21 KCAL/MOL
REMARK 923 INTER-LIGAND FREE ENERGY PREDICTED BY IDOCK:   -7.81 KCAL/MOL
REMARK 924 INTRA-LIGAND FREE ENERGY PREDICTED BY IDOCK:   -2.41 KCAL/MOL
REMARK 927      BINDING AFFINITY PREDICTED BY RF-SCORE:    0.00 PKD
ROOT
HETATM    1  C   UNL     1      -6.993   6.950  65.391  1.00  0.00    -0.059 C  
HETATM    2  C   UNL     1      -6.240   6.067  66.392  1.00  0.00    -0.037 C  
HETATM    3  C   UNL     1      -7.117   5.433  67.517  1.00  0.00    -0.067 C  
HETATM    4  C   UNL     1      -6.440  11.221  66.977  1.00  0.00    -0.114 C  
HETATM    5  C   UNL     1      -7.914   4.352  66.788  1.00  0.00    -0.098 C  
HETATM    6  C   UNL     1      -6.559   8.404  65.618  1.00  0.00    -0.052 C  
HETATM    7  C   UNL     1      -8.851   5.129  65.795  1.00  0.00    -0.143 C  
HETATM    8  C   UNL     1      -6.147   9.831  67.569  1.00  0.00    -0.058 C  
HETATM    9  C   UNL     1      -7.914  11.432  67.003  1.00  0.00    -0.158 A  
HETATM   10  C   UNL     1      -8.508   6.693  65.466  1.00  0.00    -0.135 C  
HETATM   11  C   UNL     1     -10.987  13.239  67.541  1.00  0.00    -0.281 A  
HETATM   12  C   UNL     1      -8.796  10.364  67.036  1.00  0.00    -0.136 A  
HETATM   13  N   UNL     1     -10.048  10.894  67.237  1.00  0.00    -0.185 NA 
HETATM   14  C   UNL     1      -9.229   7.937  66.144  1.00  0.00    -0.208 C  
HETATM   15  C   UNL     1     -10.612  14.591  67.572  1.00  0.00    -0.262 A  
HETATM   16  N   UNL     1      -6.943   8.747  66.968  1.00  0.00    -0.074 NA 
HETATM   17  C   UNL     1      -9.289  14.948  67.386  1.00  0.00    -0.202 A  
HETATM   18  C   UNL     1      -8.403   8.892  67.102  1.00  0.00    -0.103 C  
HETATM   19  C   UNL     1      -8.277  13.997  67.177  1.00  0.00    -0.146 A  
HETATM   20  C   UNL     1      -8.643  12.633  67.126  1.00  0.00    -0.199 A  
HETATM   21  H   UNL     1     -10.904  10.347  67.322  1.00  0.00     0.000 HD 
HETATM   22  C   UNL     1      -9.981  12.279  67.308  1.00  0.00    -0.204 A  
ENDROOT
BRANCH   3  23
HETATM   23  O   UNL     1      -8.101   6.297  68.193  1.00  0.00    -0.113 OA 
BRANCH  23  24
HETATM   24  C   UNL     1      -8.169   6.098  69.536  1.00  0.00    -0.116 C  
HETATM   25  O   UNL     1      -7.248   5.589  70.165  1.00  0.00    -0.063 OA 
BRANCH  24  26
HETATM   26  C   UNL     1      -9.398   6.536  70.302  1.00  0.00    -0.163 A  
HETATM   27  C   UNL     1     -10.179   5.860  71.235  1.00  0.00    -0.262 A  
HETATM   28  C   UNL     1     -11.120   8.272  70.239  1.00  0.00    -0.219 A  
HETATM   29  C   UNL     1     -11.458   6.331  71.630  1.00  0.00    -0.296 A  
HETATM   30  C   UNL     1      -9.836   7.808  69.948  1.00  0.00    -0.177 A  
HETATM   31  C   UNL     1     -11.974   7.519  71.066  1.00  0.00    -0.290 A  
BRANCH  28  32
HETATM   32  O   UNL     1     -11.532   9.467  69.701  1.00  0.00    -0.108 OA 
HETATM   33  C   UNL     1     -11.304  10.612  70.533  1.00  0.00    -0.267 C  
ENDBRANCH  28  32
BRANCH  31  34
HETATM   34  O   UNL     1     -13.275   7.829  71.354  1.00  0.00    -0.322 OA 
HETATM   35  C   UNL     1     -13.560   8.750  72.398  1.00  0.00    -0.406 C  
ENDBRANCH  31  34
BRANCH  29  36
HETATM   36  O   UNL     1     -12.064   5.478  72.531  1.00  0.00    -0.183 OA 
HETATM   37  C   UNL     1     -11.248   4.669  73.376  1.00  0.00    -0.338 C  
ENDBRANCH  29  36
ENDBRANCH  24  26
ENDBRANCH  23  24
ENDBRANCH   3  23
BRANCH   5  38
HETATM   38  O   UNL     1      -6.990   3.488  66.091  1.00  0.00    -0.059 OA 
HETATM   39  C   UNL     1      -7.297   2.104  66.059  1.00  0.00    -0.065 C  
ENDBRANCH   5  38
BRANCH   7  40
HETATM   40  C   UNL     1     -10.300   4.899  66.187  1.00  0.00    -0.292 C  
HETATM   41  O   UNL     1     -10.768   5.031  67.311  1.00  0.00    -0.097 OA 
BRANCH  40  42
HETATM   42  O   UNL     1     -10.998   4.466  65.107  1.00  0.00    -0.251 OA 
HETATM   43  C   UNL     1     -10.239   3.823  64.084  1.00  0.00    -0.235 C  
ENDBRANCH  40  42
ENDBRANCH   7  40
BRANCH  15  44
HETATM   44  O   UNL     1     -11.451  15.656  67.773  1.00  0.00    -0.307 OA 
HETATM   45  C   UNL     1     -11.916  15.873  69.097  1.00  0.00    -0.255 C  
ENDBRANCH  15  44
TORSDOF 10
ENDMDL
MODEL       33
REMARK 921   NORMALIZED FREE ENERGY PREDICTED BY IDOCK:   -4.68 KCAL/MOL
REMARK 922        TOTAL FREE ENERGY PREDICTED BY IDOCK:  -10.18 KCAL/MOL
REMARK 923 INTER-LIGAND FREE ENERGY PREDICTED BY IDOCK:   -8.34 KCAL/MOL
REMARK 924 INTRA-LIGAND FREE ENERGY PREDICTED BY IDOCK:   -1.83 KCAL/MOL
REMARK 927      BINDING AFFINITY PREDICTED BY RF-SCORE:    0.00 PKD
ROOT
HETATM    1  C   UNL     1      -9.831  10.427  64.639  1.00  0.00    -0.405 C  
HETATM    2  C   UNL     1      -8.397  10.640  64.141  1.00  0.00    -0.024 C  
HETATM    3  C   UNL     1      -7.277  10.070  65.066  1.00  0.00    -0.139 C  
HETATM    4  C   UNL     1     -10.891  14.332  66.806  1.00  0.00    -0.298 C  
HETATM    5  C   UNL     1      -7.382   8.558  64.871  1.00  0.00    -0.087 C  
HETATM    6  C   UNL     1     -10.403  11.793  65.041  1.00  0.00    -0.281 C  
HETATM    7  C   UNL     1      -8.779   8.160  65.469  1.00  0.00    -0.152 C  
HETATM    8  C   UNL     1      -9.575  13.757  66.252  1.00  0.00    -0.249 C  
HETATM    9  C   UNL     1     -11.235  13.582  68.046  1.00  0.00    -0.300 A  
HETATM   10  C   UNL     1      -9.876   9.344  65.730  1.00  0.00    -0.345 C  
HETATM   11  C   UNL     1     -12.340  13.152  71.451  1.00  0.00    -0.143 A  
HETATM   12  C   UNL     1     -10.748  12.306  68.277  1.00  0.00    -0.221 A  
HETATM   13  N   UNL     1     -11.095  11.980  69.566  1.00  0.00    -0.452 NA 
HETATM   14  C   UNL     1     -10.158  10.017  67.142  1.00  0.00    -0.265 C  
HETATM   15  C   UNL     1     -13.022  14.339  71.763  1.00  0.00    -0.354 A  
HETATM   16  N   UNL     1      -9.575  12.291  66.115  1.00  0.00    -0.245 NA 
HETATM   17  C   UNL     1     -13.155  15.333  70.811  1.00  0.00    -0.468 A  
HETATM   18  C   UNL     1      -9.791  11.543  67.366  1.00  0.00    -0.186 C  
HETATM   19  C   UNL     1     -12.614  15.214  69.521  1.00  0.00    -0.024 A  
HETATM   20  C   UNL     1     -11.940  14.018  69.187  1.00  0.00    -0.400 A  
HETATM   21  H   UNL     1     -10.858  11.103  70.028  1.00  0.00     0.000 HD 
HETATM   22  C   UNL     1     -11.815  13.014  70.150  1.00  0.00    -0.252 A  
ENDROOT
BRANCH   3  23
HETATM   23  O   UNL     1      -7.387  10.315  66.514  1.00  0.00    -0.103 OA 
BRANCH  23  24
HETATM   24  C   UNL     1      -6.258  10.834  67.066  1.00  0.00    -0.070 C  
HETATM   25  O   UNL     1      -5.630  11.740  66.532  1.00  0.00    -0.253 OA 
BRANCH  24  26
HETATM   26  C   UNL     1      -5.759  10.309  68.395  1.00  0.00    -0.040 A  
HETATM   27  C   UNL     1      -5.515   9.009  68.828  1.00  0.00    -0.040 A  
HETATM   28  C   UNL     1      -5.488  11.044  70.713  1.00  0.00    -0.124 A  
HETATM   29  C   UNL     1      -5.325   8.694  70.198  1.00  0.00    -0.024 A  
HETATM   30  C   UNL     1      -5.585  11.310  69.345  1.00  0.00    -0.046 A  
HETATM   31  C   UNL     1      -5.388   9.717  71.170  1.00  0.00    -0.066 A  
BRANCH  28  32
HETATM   32  O   UNL     1      -5.496  12.097  71.596  1.00  0.00    -0.383 OA 
HETATM   33  C   UNL     1      -5.779  13.373  71.008  1.00  0.00    -0.165 C  
ENDBRANCH  28  32
BRANCH  31  34
HETATM   34  O   UNL     1      -5.371   9.330  72.482  1.00  0.00    -0.074 OA 
HETATM   35  C   UNL     1      -6.517   8.701  73.040  1.00  0.00    -0.036 C  
ENDBRANCH  31  34
BRANCH  29  36
HETATM   36  O   UNL     1      -5.140   7.339  70.393  1.00  0.00    -0.022 OA 
HETATM   37  C   UNL     1      -6.256   6.462  70.259  1.00  0.00    -0.035 C  
ENDBRANCH  29  36
ENDBRANCH  24  26
ENDBRANCH  23  24
ENDBRANCH   3  23
BRANCH   5  38
HETATM   38  O   UNL     1      -7.298   8.268  63.458  1.00  0.00    -0.098 OA 
HETATM   39  C   UNL     1      -8.162   7.261  62.953  1.00  0.00     0.016 C  
ENDBRANCH   5  38
BRANCH   7  40
HETATM   40  C   UNL     1      -8.573   7.253  66.667  1.00  0.00    -0.128 C  
HETATM   41  O   UNL     1      -8.307   7.618  67.806  1.00  0.00    -0.117 OA 
BRANCH  40  42
HETATM   42  O   UNL     1      -8.674   5.957  66.278  1.00  0.00    -0.126 OA 
HETATM   43  C   UNL     1      -9.543   5.134  67.055  1.00  0.00    -0.147 C  
ENDBRANCH  40  42
ENDBRANCH   7  40
BRANCH  15  44
HETATM   44  O   UNL     1     -13.605  14.639  72.966  1.00  0.00    -0.561 OA 
HETATM   45  C   UNL     1     -13.296  15.901  73.539  1.00  0.00    -0.413 C  
ENDBRANCH  15  44
TORSDOF 10
ENDMDL
MODEL       34
REMARK 921   NORMALIZED FREE ENERGY PREDICTED BY IDOCK:   -4.68 KCAL/MOL
REMARK 922        TOTAL FREE ENERGY PREDICTED BY IDOCK:  -10.17 KCAL/MOL
REMARK 923 INTER-LIGAND FREE ENERGY PREDICTED BY IDOCK:   -8.46 KCAL/MOL
REMARK 924 INTRA-LIGAND FREE ENERGY PREDICTED BY IDOCK:   -1.71 KCAL/MOL
REMARK 927      BINDING AFFINITY PREDICTED BY RF-SCORE:    0.00 PKD
ROOT
HETATM    1  C   UNL     1      -9.187   6.391  71.517  1.00  0.00    -0.145 C  
HETATM    2  C   UNL     1      -9.577   5.210  70.623  1.00  0.00    -0.242 C  
HETATM    3  C   UNL     1      -9.342   5.422  69.095  1.00  0.00    -0.120 C  
HETATM    4  C   UNL     1     -13.102   8.699  72.157  1.00  0.00    -0.423 C  
HETATM    5  C   UNL     1      -7.823   5.346  68.949  1.00  0.00    -0.083 C  
HETATM    6  C   UNL     1     -10.473   7.002  72.090  1.00  0.00    -0.209 C  
HETATM    7  C   UNL     1      -7.272   6.598  69.722  1.00  0.00    -0.077 C  
HETATM    8  C   UNL     1     -12.697   7.550  71.216  1.00  0.00    -0.302 C  
HETATM    9  C   UNL     1     -12.479   9.952  71.648  1.00  0.00    -0.507 A  
HETATM   10  C   UNL     1      -8.270   7.369  70.763  1.00  0.00    -0.111 C  
HETATM   11  C   UNL     1     -12.326  13.439  70.744  1.00  0.00    -0.433 A  
HETATM   12  C   UNL     1     -11.350   9.924  70.845  1.00  0.00    -0.370 A  
HETATM   13  N   UNL     1     -11.146  11.210  70.408  1.00  0.00    -0.398 NA 
HETATM   14  C   UNL     1      -9.068   8.702  70.428  1.00  0.00    -0.176 C  
HETATM   15  C   UNL     1     -13.407  14.035  71.415  1.00  0.00    -0.317 A  
HETATM   16  N   UNL     1     -11.249   7.468  70.963  1.00  0.00    -0.258 NA 
HETATM   17  C   UNL     1     -14.225  13.271  72.227  1.00  0.00    -0.328 A  
HETATM   18  C   UNL     1     -10.651   8.664  70.344  1.00  0.00    -0.220 C  
HETATM   19  C   UNL     1     -14.029  11.893  72.406  1.00  0.00     0.467 A  
HETATM   20  C   UNL     1     -12.935  11.283  71.751  1.00  0.00    -0.519 A  
HETATM   21  H   UNL     1     -10.395  11.499  69.783  1.00  0.00     0.000 HD 
HETATM   22  C   UNL     1     -12.108  12.060  70.938  1.00  0.00    -0.100 A  
ENDROOT
BRANCH   3  23
HETATM   23  O   UNL     1      -9.758   6.706  68.505  1.00  0.00    -0.131 OA 
BRANCH  23  24
HETATM   24  C   UNL     1      -9.946   6.652  67.160  1.00  0.00    -0.160 C  
HETATM   25  O   UNL     1     -10.163   5.596  66.575  1.00  0.00    -0.193 OA 
BRANCH  24  26
HETATM   26  C   UNL     1      -9.919   7.925  66.342  1.00  0.00    -0.192 A  
HETATM   27  C   UNL     1      -9.124   8.297  65.261  1.00  0.00     0.081 A  
HETATM   28  C   UNL     1     -10.697  10.241  66.463  1.00  0.00    -0.078 A  
HETATM   29  C   UNL     1      -9.047   9.640  64.810  1.00  0.00    -0.231 A  
HETATM   30  C   UNL     1     -10.799   8.893  66.813  1.00  0.00     0.080 A  
HETATM   31  C   UNL     1      -9.786  10.646  65.470  1.00  0.00    -0.258 A  
BRANCH  28  32
HETATM   32  O   UNL     1     -11.492  11.157  67.108  1.00  0.00    -0.461 OA 
HETATM   33  C   UNL     1     -10.818  12.351  67.525  1.00  0.00    -0.236 C  
ENDBRANCH  28  32
BRANCH  31  34
HETATM   34  O   UNL     1      -9.539  11.941  65.102  1.00  0.00    -0.212 OA 
HETATM   35  C   UNL     1     -10.281  12.519  64.036  1.00  0.00    -0.364 C  
ENDBRANCH  31  34
BRANCH  29  36
HETATM   36  O   UNL     1      -8.168   9.777  63.754  1.00  0.00    -0.139 OA 
HETATM   37  C   UNL     1      -7.739   8.611  63.054  1.00  0.00    -0.126 C  
ENDBRANCH  29  36
ENDBRANCH  24  26
ENDBRANCH  23  24
ENDBRANCH   3  23
BRANCH   5  38
HETATM   38  O   UNL     1      -7.364   4.108  69.534  1.00  0.00    -0.049 OA 
HETATM   39  C   UNL     1      -7.222   2.996  68.664  1.00  0.00    -0.049 C  
ENDBRANCH   5  38
BRANCH   7  40
HETATM   40  C   UNL     1      -6.585   7.532  68.742  1.00  0.00    -0.049 C  
HETATM   41  O   UNL     1      -6.183   8.662  68.991  1.00  0.00    -0.042 OA 
BRANCH  40  42
HETATM   42  O   UNL     1      -6.528   6.946  67.520  1.00  0.00    -0.046 OA 
HETATM   43  C   UNL     1      -5.707   7.595  66.550  1.00  0.00    -0.036 C  
ENDBRANCH  40  42
ENDBRANCH   7  40
BRANCH  15  44
HETATM   44  O   UNL     1     -13.761  15.357  71.355  1.00  0.00    -0.487 OA 
HETATM   45  C   UNL     1     -14.236  15.956  72.552  1.00  0.00    -0.205 C  
ENDBRANCH  15  44
TORSDOF 10
ENDMDL
MODEL       35
REMARK 921   NORMALIZED FREE ENERGY PREDICTED BY IDOCK:   -4.64 KCAL/MOL
REMARK 922        TOTAL FREE ENERGY PREDICTED BY IDOCK:  -10.11 KCAL/MOL
REMARK 923 INTER-LIGAND FREE ENERGY PREDICTED BY IDOCK:   -7.94 KCAL/MOL
REMARK 924 INTRA-LIGAND FREE ENERGY PREDICTED BY IDOCK:   -2.17 KCAL/MOL
REMARK 927      BINDING AFFINITY PREDICTED BY RF-SCORE:    0.00 PKD
ROOT
HETATM    1  C   UNL     1      -5.458   9.716  67.413  1.00  0.00    -0.036 C  
HETATM    2  C   UNL     1      -6.085  11.108  67.542  1.00  0.00    -0.052 C  
HETATM    3  C   UNL     1      -7.260  11.220  68.562  1.00  0.00    -0.094 C  
HETATM    4  C   UNL     1      -7.574   7.827  63.804  1.00  0.00    -0.118 C  
HETATM    5  C   UNL     1      -6.567  11.137  69.922  1.00  0.00    -0.129 C  
HETATM    6  C   UNL     1      -5.820   9.156  66.031  1.00  0.00    -0.050 C  
HETATM    7  C   UNL     1      -5.974   9.685  69.995  1.00  0.00    -0.043 C  
HETATM    8  C   UNL     1      -7.833   9.100  64.630  1.00  0.00    -0.118 C  
HETATM    9  C   UNL     1      -7.985   6.654  64.624  1.00  0.00    -0.113 A  
HETATM   10  C   UNL     1      -5.846   8.828  68.608  1.00  0.00    -0.044 C  
HETATM   11  C   UNL     1      -9.539   3.471  65.296  1.00  0.00    -0.140 A  
HETATM   12  C   UNL     1      -8.043   6.724  66.007  1.00  0.00    -0.119 A  
HETATM   13  N   UNL     1      -8.624   5.555  66.435  1.00  0.00    -0.118 NA 
HETATM   14  C   UNL     1      -6.878   7.715  68.136  1.00  0.00    -0.064 C  
HETATM   15  C   UNL     1      -9.711   2.878  64.036  1.00  0.00    -0.151 A  
HETATM   16  N   UNL     1      -7.261   9.057  65.987  1.00  0.00    -0.092 NA 
HETATM   17  C   UNL     1      -9.280   3.533  62.897  1.00  0.00    -0.096 A  
HETATM   18  C   UNL     1      -7.762   7.967  66.844  1.00  0.00    -0.099 C  
HETATM   19  C   UNL     1      -8.677   4.800  62.943  1.00  0.00    -0.126 A  
HETATM   20  C   UNL     1      -8.482   5.402  64.207  1.00  0.00    -0.092 A  
HETATM   21  H   UNL     1      -8.815   5.323  67.409  1.00  0.00     0.000 HD 
HETATM   22  C   UNL     1      -8.913   4.733  65.354  1.00  0.00    -0.149 A  
ENDROOT
BRANCH   3  23
HETATM   23  O   UNL     1      -8.288  10.165  68.549  1.00  0.00    -0.108 OA 
BRANCH  23  24
HETATM   24  C   UNL     1      -9.540  10.620  68.817  1.00  0.00    -0.186 C  
HETATM   25  O   UNL     1     -10.173  10.245  69.798  1.00  0.00    -0.236 OA 
BRANCH  24  26
HETATM   26  C   UNL     1     -10.182  11.644  67.905  1.00  0.00    -0.203 A  
HETATM   27  C   UNL     1     -10.791  12.863  68.190  1.00  0.00    -0.257 A  
HETATM   28  C   UNL     1     -11.051  11.834  65.626  1.00  0.00    -0.285 A  
HETATM   29  C   UNL     1     -11.588  13.547  67.236  1.00  0.00    -0.362 A  
HETATM   30  C   UNL     1     -10.210  11.244  66.573  1.00  0.00    -0.269 A  
HETATM   31  C   UNL     1     -11.787  12.987  65.955  1.00  0.00    -0.416 A  
BRANCH  28  32
HETATM   32  O   UNL     1     -11.148  11.265  64.379  1.00  0.00    -0.310 OA 
HETATM   33  C   UNL     1     -10.193  11.744  63.424  1.00  0.00    -0.449 C  
ENDBRANCH  28  32
BRANCH  31  34
HETATM   34  O   UNL     1     -12.701  13.602  65.143  1.00  0.00    -0.611 OA 
HETATM   35  C   UNL     1     -12.264  14.603  64.233  1.00  0.00    -0.408 C  
ENDBRANCH  31  34
BRANCH  29  36
HETATM   36  O   UNL     1     -12.122  14.711  67.754  1.00  0.00    -0.314 OA 
HETATM   37  C   UNL     1     -11.259  15.639  68.406  1.00  0.00    -0.352 C  
ENDBRANCH  29  36
ENDBRANCH  24  26
ENDBRANCH  23  24
ENDBRANCH   3  23
BRANCH   5  38
HETATM   38  O   UNL     1      -5.533  12.144  69.975  1.00  0.00    -0.086 OA 
HETATM   39  C   UNL     1      -5.891  13.411  70.504  1.00  0.00    -0.159 C  
ENDBRANCH   5  38
BRANCH   7  40
HETATM   40  C   UNL     1      -6.653   8.919  71.115  1.00  0.00    -0.077 C  
HETATM   41  O   UNL     1      -7.675   9.259  71.699  1.00  0.00    -0.336 OA 
BRANCH  40  42
HETATM   42  O   UNL     1      -5.922   7.817  71.420  1.00  0.00    -0.035 OA 
HETATM   43  C   UNL     1      -5.861   7.467  72.802  1.00  0.00    -0.040 C  
ENDBRANCH  40  42
ENDBRANCH   7  40
BRANCH  15  44
HETATM   44  O   UNL     1     -10.284   1.658  63.791  1.00  0.00    -0.133 OA 
HETATM   45  C   UNL     1     -11.295   1.605  62.794  1.00  0.00    -0.261 C  
ENDBRANCH  15  44
TORSDOF 10
ENDMDL
MODEL       36
REMARK 921   NORMALIZED FREE ENERGY PREDICTED BY IDOCK:   -4.64 KCAL/MOL
REMARK 922        TOTAL FREE ENERGY PREDICTED BY IDOCK:  -10.11 KCAL/MOL
REMARK 923 INTER-LIGAND FREE ENERGY PREDICTED BY IDOCK:   -7.40 KCAL/MOL
REMARK 924 INTRA-LIGAND FREE ENERGY PREDICTED BY IDOCK:   -2.71 KCAL/MOL
REMARK 927      BINDING AFFINITY PREDICTED BY RF-SCORE:    0.00 PKD
ROOT
HETATM    1  C   UNL     1     -11.063   7.468  71.106  1.00  0.00    -0.270 C  
HETATM    2  C   UNL     1     -10.592   6.075  70.675  1.00  0.00    -0.322 C  
HETATM    3  C   UNL     1      -9.064   5.804  70.842  1.00  0.00    -0.145 C  
HETATM    4  C   UNL     1     -11.128   9.914  67.222  1.00  0.00    -0.063 C  
HETATM    5  C   UNL     1      -8.884   5.666  72.353  1.00  0.00    -0.135 C  
HETATM    6  C   UNL     1     -11.474   8.242  69.847  1.00  0.00     0.181 C  
HETATM    7  C   UNL     1      -9.210   7.087  72.938  1.00  0.00    -0.162 C  
HETATM    8  C   UNL     1     -10.570   8.526  67.585  1.00  0.00    -0.198 C  
HETATM    9  C   UNL     1     -10.234  10.942  67.823  1.00  0.00    -0.209 A  
HETATM   10  C   UNL     1     -10.006   8.154  71.988  1.00  0.00    -0.299 C  
HETATM   11  C   UNL     1      -8.296  13.981  67.934  1.00  0.00    -0.168 A  
HETATM   12  C   UNL     1      -9.430  10.652  68.914  1.00  0.00    -0.192 A  
HETATM   13  N   UNL     1      -8.611  11.739  69.098  1.00  0.00    -0.329 NA 
HETATM   14  C   UNL     1      -9.312   9.330  71.175  1.00  0.00    -0.259 C  
HETATM   15  C   UNL     1      -8.796  14.768  66.885  1.00  0.00    -0.248 A  
HETATM   16  N   UNL     1     -10.293   8.351  69.021  1.00  0.00    -0.218 NA 
HETATM   17  C   UNL     1      -9.838  14.302  66.104  1.00  0.00    -0.335 A  
HETATM   18  C   UNL     1      -9.311   9.290  69.590  1.00  0.00    -0.179 C  
HETATM   19  C   UNL     1     -10.424  13.042  66.308  1.00  0.00    -0.285 A  
HETATM   20  C   UNL     1      -9.942  12.246  67.372  1.00  0.00    -0.205 A  
HETATM   21  H   UNL     1      -7.896  11.813  69.821  1.00  0.00     0.000 HD 
HETATM   22  C   UNL     1      -8.895  12.724  68.161  1.00  0.00    -0.194 A  
ENDROOT
BRANCH   3  23
HETATM   23  O   UNL     1      -8.126   6.850  70.400  1.00  0.00    -0.112 OA 
BRANCH  23  24
HETATM   24  C   UNL     1      -7.157   6.395  69.562  1.00  0.00    -0.073 C  
HETATM   25  O   UNL     1      -6.291   5.611  69.936  1.00  0.00    -0.031 OA 
BRANCH  24  26
HETATM   26  C   UNL     1      -7.144   6.833  68.114  1.00  0.00    -0.086 A  
HETATM   27  C   UNL     1      -6.533   7.921  67.497  1.00  0.00    -0.056 A  
HETATM   28  C   UNL     1      -8.364   6.440  66.030  1.00  0.00    -0.132 A  
HETATM   29  C   UNL     1      -6.870   8.328  66.180  1.00  0.00    -0.058 A  
HETATM   30  C   UNL     1      -7.935   6.034  67.296  1.00  0.00    -0.102 A  
HETATM   31  C   UNL     1      -7.859   7.623  65.459  1.00  0.00    -0.112 A  
BRANCH  28  32
HETATM   32  O   UNL     1      -9.285   5.670  65.362  1.00  0.00    -0.088 OA 
HETATM   33  C   UNL     1     -10.202   4.962  66.206  1.00  0.00    -0.279 C  
ENDBRANCH  28  32
BRANCH  31  34
HETATM   34  O   UNL     1      -8.263   8.163  64.269  1.00  0.00    -0.153 OA 
HETATM   35  C   UNL     1      -9.010   9.373  64.268  1.00  0.00    -0.160 C  
ENDBRANCH  31  34
BRANCH  29  36
HETATM   36  O   UNL     1      -6.169   9.453  65.794  1.00  0.00    -0.058 OA 
HETATM   37  C   UNL     1      -5.959  10.497  66.742  1.00  0.00    -0.063 C  
ENDBRANCH  29  36
ENDBRANCH  24  26
ENDBRANCH  23  24
ENDBRANCH   3  23
BRANCH   5  38
HETATM   38  O   UNL     1      -9.800   4.661  72.838  1.00  0.00    -0.137 OA 
HETATM   39  C   UNL     1     -10.393   4.885  74.107  1.00  0.00    -0.264 C  
ENDBRANCH   5  38
BRANCH   7  40
HETATM   40  C   UNL     1      -7.963   7.666  73.581  1.00  0.00    -0.146 C  
HETATM   41  O   UNL     1      -7.861   8.785  74.068  1.00  0.00    -0.408 OA 
BRANCH  40  42
HETATM   42  O   UNL     1      -6.947   6.772  73.486  1.00  0.00    -0.075 OA 
HETATM   43  C   UNL     1      -5.641   7.321  73.317  1.00  0.00    -0.045 C  
ENDBRANCH  40  42
ENDBRANCH   7  40
BRANCH  15  44
HETATM   44  O   UNL     1      -8.349  16.013  66.529  1.00  0.00    -0.267 OA 
HETATM   45  C   UNL     1      -9.272  17.087  66.628  1.00  0.00    -0.256 C  
ENDBRANCH  15  44
TORSDOF 10
ENDMDL
MODEL       37
REMARK 921   NORMALIZED FREE ENERGY PREDICTED BY IDOCK:   -4.60 KCAL/MOL
REMARK 922        TOTAL FREE ENERGY PREDICTED BY IDOCK:  -10.05 KCAL/MOL
REMARK 923 INTER-LIGAND FREE ENERGY PREDICTED BY IDOCK:   -8.07 KCAL/MOL
REMARK 924 INTRA-LIGAND FREE ENERGY PREDICTED BY IDOCK:   -1.99 KCAL/MOL
REMARK 927      BINDING AFFINITY PREDICTED BY RF-SCORE:    0.00 PKD
ROOT
HETATM    1  C   UNL     1      -9.872   7.684  72.897  1.00  0.00    -0.299 C  
HETATM    2  C   UNL     1     -10.545   6.328  72.664  1.00  0.00    -0.243 C  
HETATM    3  C   UNL     1      -9.983   5.499  71.467  1.00  0.00    -0.177 C  
HETATM    4  C   UNL     1     -12.568  10.697  70.725  1.00  0.00    -0.479 C  
HETATM    5  C   UNL     1      -8.624   5.014  71.969  1.00  0.00    -0.125 C  
HETATM    6  C   UNL     1     -10.880   8.784  72.538  1.00  0.00    -0.021 C  
HETATM    7  C   UNL     1      -7.757   6.314  72.132  1.00  0.00    -0.096 C  
HETATM    8  C   UNL     1     -12.505   9.159  70.741  1.00  0.00    -0.008 C  
HETATM    9  C   UNL     1     -11.413  11.197  69.928  1.00  0.00    -0.386 A  
HETATM   10  C   UNL     1      -8.522   7.759  72.162  1.00  0.00    -0.159 C  
HETATM   11  C   UNL     1      -9.711  13.253  67.504  1.00  0.00    -0.224 A  
HETATM   12  C   UNL     1     -10.272  10.432  69.751  1.00  0.00    -0.184 A  
HETATM   13  N   UNL     1      -9.493  11.094  68.832  1.00  0.00    -0.338 NA 
HETATM   14  C   UNL     1      -8.643   8.742  70.919  1.00  0.00    -0.229 C  
HETATM   15  C   UNL     1     -10.557  14.356  67.306  1.00  0.00    -0.279 A  
HETATM   16  N   UNL     1     -11.193   8.620  71.137  1.00  0.00    -0.259 NA 
HETATM   17  C   UNL     1     -11.741  14.457  68.013  1.00  0.00    -0.374 A  
HETATM   18  C   UNL     1     -10.066   9.014  70.274  1.00  0.00    -0.198 C  
HETATM   19  C   UNL     1     -12.153  13.478  68.931  1.00  0.00    -0.315 A  
HETATM   20  C   UNL     1     -11.303  12.371  69.153  1.00  0.00    -0.327 A  
HETATM   21  H   UNL     1      -8.593  10.763  68.487  1.00  0.00     0.000 HD 
HETATM   22  C   UNL     1     -10.106  12.277  68.442  1.00  0.00    -0.215 A  
ENDROOT
BRANCH   3  23
HETATM   23  O   UNL     1      -9.736   6.204  70.197  1.00  0.00    -0.160 OA 
BRANCH  23  24
HETATM   24  C   UNL     1     -10.458   5.715  69.153  1.00  0.00    -0.269 C  
HETATM   25  O   UNL     1     -11.544   6.187  68.836  1.00  0.00    -0.172 OA 
BRANCH  24  26
HETATM   26  C   UNL     1      -9.909   4.572  68.326  1.00  0.00    -0.153 A  
HETATM   27  C   UNL     1      -9.168   3.454  68.696  1.00  0.00    -0.229 A  
HETATM   28  C   UNL     1      -9.441   4.010  65.992  1.00  0.00    -0.183 A  
HETATM   29  C   UNL     1      -8.500   2.644  67.742  1.00  0.00    -0.086 A  
HETATM   30  C   UNL     1     -10.145   4.724  66.964  1.00  0.00    -0.228 A  
HETATM   31  C   UNL     1      -8.572   2.970  66.370  1.00  0.00    -0.118 A  
BRANCH  28  32
HETATM   32  O   UNL     1      -9.607   4.346  64.670  1.00  0.00    -0.160 OA 
HETATM   33  C   UNL     1     -10.635   3.616  63.989  1.00  0.00    -0.263 C  
ENDBRANCH  28  32
BRANCH  31  34
HETATM   34  O   UNL     1      -7.770   2.259  65.519  1.00  0.00    -0.071 OA 
HETATM   35  C   UNL     1      -6.437   2.695  65.287  1.00  0.00    -0.027 C  
ENDBRANCH  31  34
BRANCH  29  36
HETATM   36  O   UNL     1      -7.796   1.619  68.342  1.00  0.00    -0.049 OA 
HETATM   37  C   UNL     1      -7.529   1.687  69.741  1.00  0.00    -0.036 C  
ENDBRANCH  29  36
ENDBRANCH  24  26
ENDBRANCH  23  24
ENDBRANCH   3  23
BRANCH   5  38
HETATM   38  O   UNL     1      -8.813   4.331  73.227  1.00  0.00    -0.099 OA 
HETATM   39  C   UNL     1      -9.001   2.926  73.178  1.00  0.00    -0.082 C  
ENDBRANCH   5  38
BRANCH   7  40
HETATM   40  C   UNL     1      -6.593   6.269  71.160  1.00  0.00    -0.050 C  
HETATM   41  O   UNL     1      -5.731   7.130  71.033  1.00  0.00    -0.030 OA 
BRANCH  40  42
HETATM   42  O   UNL     1      -6.677   5.146  70.402  1.00  0.00    -0.037 OA 
HETATM   43  C   UNL     1      -5.613   4.933  69.476  1.00  0.00    -0.012 C  
ENDBRANCH  40  42
ENDBRANCH   7  40
BRANCH  15  44
HETATM   44  O   UNL     1     -10.330  15.401  66.449  1.00  0.00    -0.276 OA 
HETATM   45  C   UNL     1     -10.321  15.109  65.059  1.00  0.00    -0.344 C  
ENDBRANCH  15  44
TORSDOF 10
ENDMDL
MODEL       38
REMARK 921   NORMALIZED FREE ENERGY PREDICTED BY IDOCK:   -4.59 KCAL/MOL
REMARK 922        TOTAL FREE ENERGY PREDICTED BY IDOCK:  -10.02 KCAL/MOL
REMARK 923 INTER-LIGAND FREE ENERGY PREDICTED BY IDOCK:   -8.04 KCAL/MOL
REMARK 924 INTRA-LIGAND FREE ENERGY PREDICTED BY IDOCK:   -1.98 KCAL/MOL
REMARK 927      BINDING AFFINITY PREDICTED BY RF-SCORE:    0.00 PKD
ROOT
HETATM    1  C   UNL     1      -6.242  10.251  66.978  1.00  0.00    -0.059 C  
HETATM    2  C   UNL     1      -6.915  11.620  66.841  1.00  0.00    -0.123 C  
HETATM    3  C   UNL     1      -8.262  11.784  67.610  1.00  0.00    -0.145 C  
HETATM    4  C   UNL     1      -7.601   7.923  63.262  1.00  0.00    -0.130 C  
HETATM    5  C   UNL     1      -7.834  11.867  69.075  1.00  0.00     0.101 C  
HETATM    6  C   UNL     1      -6.326   9.541  65.620  1.00  0.00    -0.070 C  
HETATM    7  C   UNL     1      -7.231  10.456  69.409  1.00  0.00    -0.109 C  
HETATM    8  C   UNL     1      -8.039   9.259  63.887  1.00  0.00    -0.151 C  
HETATM    9  C   UNL     1      -8.130   6.821  64.113  1.00  0.00    -0.029 A  
HETATM   10  C   UNL     1      -6.826   9.471  68.169  1.00  0.00    -0.070 C  
HETATM   11  C   UNL     1      -9.708   3.657  64.823  1.00  0.00    -0.178 A  
HETATM   12  C   UNL     1      -8.448   7.026  65.446  1.00  0.00    -0.086 A  
HETATM   13  N   UNL     1      -9.071   5.882  65.882  1.00  0.00    -0.233 NA 
HETATM   14  C   UNL     1      -7.725   8.274  67.636  1.00  0.00    -0.099 C  
HETATM   15  C   UNL     1      -9.627   2.934  63.622  1.00  0.00    -0.109 A  
HETATM   16  N   UNL     1      -7.731   9.376  65.323  1.00  0.00    -0.105 NA 
HETATM   17  C   UNL     1      -9.006   3.491  62.519  1.00  0.00    -0.089 A  
HETATM   18  C   UNL     1      -8.357   8.357  66.184  1.00  0.00    -0.125 C  
HETATM   19  C   UNL     1      -8.452   4.780  62.540  1.00  0.00    -0.107 A  
HETATM   20  C   UNL     1      -8.511   5.513  63.747  1.00  0.00    -0.032 A  
HETATM   21  H   UNL     1      -9.435   5.741  66.824  1.00  0.00     0.000 HD 
HETATM   22  C   UNL     1      -9.133   4.944  64.860  1.00  0.00    -0.114 A  
ENDROOT
BRANCH   3  23
HETATM   23  O   UNL     1      -9.244  10.690  67.521  1.00  0.00    -0.142 OA 
BRANCH  23  24
HETATM   24  C   UNL     1     -10.497  11.107  67.196  1.00  0.00    -0.231 C  
HETATM   25  O   UNL     1     -11.022  10.817  66.127  1.00  0.00    -0.115 OA 
BRANCH  24  26
HETATM   26  C   UNL     1     -11.295  11.933  68.181  1.00  0.00    -0.350 A  
HETATM   27  C   UNL     1     -11.460  13.311  68.292  1.00  0.00    -0.351 A  
HETATM   28  C   UNL     1     -12.378  11.710  70.363  1.00  0.00    -0.288 A  
HETATM   29  C   UNL     1     -12.013  13.912  69.452  1.00  0.00    -0.354 A  
HETATM   30  C   UNL     1     -11.905  11.165  69.167  1.00  0.00    -0.419 A  
HETATM   31  C   UNL     1     -12.410  13.105  70.541  1.00  0.00    -0.304 A  
BRANCH  28  32
HETATM   32  O   UNL     1     -12.804  10.861  71.357  1.00  0.00    -0.393 OA 
HETATM   33  C   UNL     1     -12.651   9.467  71.063  1.00  0.00    -0.253 C  
ENDBRANCH  28  32
BRANCH  31  34
HETATM   34  O   UNL     1     -12.773  13.749  71.692  1.00  0.00    -0.340 OA 
HETATM   35  C   UNL     1     -14.127  14.142  71.876  1.00  0.00    -0.479 C  
ENDBRANCH  31  34
BRANCH  29  36
HETATM   36  O   UNL     1     -12.040  15.289  69.353  1.00  0.00    -0.313 OA 
HETATM   37  C   UNL     1     -11.212  15.931  68.385  1.00  0.00    -0.368 C  
ENDBRANCH  29  36
ENDBRANCH  24  26
ENDBRANCH  23  24
ENDBRANCH   3  23
BRANCH   5  38
HETATM   38  O   UNL     1      -6.852  12.918  69.210  1.00  0.00    -0.095 OA 
HETATM   39  C   UNL     1      -5.876  12.763  70.228  1.00  0.00    -0.157 C  
ENDBRANCH   5  38
BRANCH   7  40
HETATM   40  C   UNL     1      -8.090   9.778  70.461  1.00  0.00    -0.006 C  
HETATM   41  O   UNL     1      -9.308   9.653  70.421  1.00  0.00    -0.251 OA 
BRANCH  40  42
HETATM   42  O   UNL     1      -7.308   9.373  71.493  1.00  0.00    -0.334 OA 
HETATM   43  C   UNL     1      -7.214   7.964  71.695  1.00  0.00    -0.069 C  
ENDBRANCH  40  42
ENDBRANCH   7  40
BRANCH  15  44
HETATM   44  O   UNL     1     -10.116   1.673  63.407  1.00  0.00    -0.114 OA 
HETATM   45  C   UNL     1     -11.447   1.567  62.926  1.00  0.00    -0.252 C  
ENDBRANCH  15  44
TORSDOF 10
ENDMDL
MODEL       39
REMARK 921   NORMALIZED FREE ENERGY PREDICTED BY IDOCK:   -4.59 KCAL/MOL
REMARK 922        TOTAL FREE ENERGY PREDICTED BY IDOCK:  -10.02 KCAL/MOL
REMARK 923 INTER-LIGAND FREE ENERGY PREDICTED BY IDOCK:   -7.62 KCAL/MOL
REMARK 924 INTRA-LIGAND FREE ENERGY PREDICTED BY IDOCK:   -2.40 KCAL/MOL
REMARK 927      BINDING AFFINITY PREDICTED BY RF-SCORE:    0.00 PKD
ROOT
HETATM    1  C   UNL     1      -6.298   7.308  66.753  1.00  0.00    -0.047 C  
HETATM    2  C   UNL     1      -6.585   6.355  67.918  1.00  0.00    -0.062 C  
HETATM    3  C   UNL     1      -7.865   5.476  67.763  1.00  0.00    -0.097 C  
HETATM    4  C   UNL     1      -8.108  11.316  68.069  1.00  0.00    -0.128 C  
HETATM    5  C   UNL     1      -7.473   4.451  66.699  1.00  0.00    -0.082 C  
HETATM    6  C   UNL     1      -6.524   8.744  67.245  1.00  0.00    -0.058 C  
HETATM    7  C   UNL     1      -7.270   5.282  65.381  1.00  0.00    -0.068 C  
HETATM    8  C   UNL     1      -8.200   9.884  68.626  1.00  0.00    -0.108 C  
HETATM    9  C   UNL     1      -8.931  11.382  66.830  1.00  0.00    -0.171 A  
HETATM   10  C   UNL     1      -7.099   6.903  65.504  1.00  0.00    -0.068 C  
HETATM   11  C   UNL     1     -11.300  12.790  64.505  1.00  0.00    -0.378 A  
HETATM   12  C   UNL     1      -9.223  10.244  66.095  1.00  0.00    -0.158 A  
HETATM   13  N   UNL     1     -10.136  10.618  65.138  1.00  0.00    -0.294 NA 
HETATM   14  C   UNL     1      -8.264   7.954  65.251  1.00  0.00    -0.147 C  
HETATM   15  C   UNL     1     -11.375  14.150  64.844  1.00  0.00    -0.365 A  
HETATM   16  N   UNL     1      -7.914   8.837  67.631  1.00  0.00    -0.106 NA 
HETATM   17  C   UNL     1     -10.599  14.653  65.872  1.00  0.00    -0.319 A  
HETATM   18  C   UNL     1      -8.809   8.822  66.460  1.00  0.00    -0.131 C  
HETATM   19  C   UNL     1      -9.728  13.844  66.619  1.00  0.00    -0.295 A  
HETATM   20  C   UNL     1      -9.629  12.476  66.278  1.00  0.00    -0.246 A  
HETATM   21  H   UNL     1     -10.552   9.987  64.454  1.00  0.00     0.000 HD 
HETATM   22  C   UNL     1     -10.410  11.975  65.235  1.00  0.00    -0.275 A  
ENDROOT
BRANCH   3  23
HETATM   23  O   UNL     1      -9.096   6.129  67.284  1.00  0.00    -0.116 OA 
BRANCH  23  24
HETATM   24  C   UNL     1     -10.220   5.705  67.920  1.00  0.00    -0.187 C  
HETATM   25  O   UNL     1     -10.971   4.871  67.426  1.00  0.00     0.285 OA 
BRANCH  24  26
HETATM   26  C   UNL     1     -10.560   6.246  69.292  1.00  0.00    -0.332 A  
HETATM   27  C   UNL     1     -10.803   7.546  69.725  1.00  0.00    -0.234 A  
HETATM   28  C   UNL     1     -10.486   5.565  71.641  1.00  0.00    -0.231 A  
HETATM   29  C   UNL     1     -10.822   7.891  71.101  1.00  0.00    -0.234 A  
HETATM   30  C   UNL     1     -10.560   5.265  70.278  1.00  0.00    -0.288 A  
HETATM   31  C   UNL     1     -10.583   6.898  72.077  1.00  0.00    -0.212 A  
BRANCH  28  32
HETATM   32  O   UNL     1     -10.312   4.539  72.538  1.00  0.00    -0.187 OA 
HETATM   33  C   UNL     1      -8.981   4.012  72.599  1.00  0.00    -0.109 C  
ENDBRANCH  28  32
BRANCH  31  34
HETATM   34  O   UNL     1     -10.442   7.321  73.371  1.00  0.00    -0.318 OA 
HETATM   35  C   UNL     1      -9.140   7.553  73.893  1.00  0.00    -0.264 C  
ENDBRANCH  31  34
BRANCH  29  36
HETATM   36  O   UNL     1     -11.039   9.241  71.289  1.00  0.00    -0.297 OA 
HETATM   37  C   UNL     1     -11.533  10.022  70.202  1.00  0.00    -0.277 C  
ENDBRANCH  29  36
ENDBRANCH  24  26
ENDBRANCH  23  24
ENDBRANCH   3  23
BRANCH   5  38
HETATM   38  O   UNL     1      -6.256   3.796  67.116  1.00  0.00    -0.033 OA 
HETATM   39  C   UNL     1      -6.373   2.479  67.630  1.00  0.00    -0.032 C  
ENDBRANCH   5  38
BRANCH   7  40
HETATM   40  C   UNL     1      -8.306   4.860  64.356  1.00  0.00    -0.133 C  
HETATM   41  O   UNL     1      -8.464   5.362  63.249  1.00  0.00    -0.122 OA 
BRANCH  40  42
HETATM   42  O   UNL     1      -9.078   3.871  64.870  1.00  0.00    -0.128 OA 
HETATM   43  C   UNL     1     -10.230   3.513  64.109  1.00  0.00    -0.219 C  
ENDBRANCH  40  42
ENDBRANCH   7  40
BRANCH  15  44
HETATM   44  O   UNL     1     -12.170  15.088  64.239  1.00  0.00    -0.528 OA 
HETATM   45  C   UNL     1     -11.782  16.448  64.367  1.00  0.00     0.177 C  
ENDBRANCH  15  44
TORSDOF 10
ENDMDL
MODEL       40
REMARK 921   NORMALIZED FREE ENERGY PREDICTED BY IDOCK:   -4.55 KCAL/MOL
REMARK 922        TOTAL FREE ENERGY PREDICTED BY IDOCK:   -9.97 KCAL/MOL
REMARK 923 INTER-LIGAND FREE ENERGY PREDICTED BY IDOCK:   -7.63 KCAL/MOL
REMARK 924 INTRA-LIGAND FREE ENERGY PREDICTED BY IDOCK:   -2.34 KCAL/MOL
REMARK 927      BINDING AFFINITY PREDICTED BY RF-SCORE:    0.00 PKD
ROOT
HETATM    1  C   UNL     1     -10.568   8.116  67.290  1.00  0.00    -0.344 C  
HETATM    2  C   UNL     1      -9.359   7.282  66.851  1.00  0.00    -0.192 C  
HETATM    3  C   UNL     1      -8.185   7.215  67.876  1.00  0.00    -0.119 C  
HETATM    4  C   UNL     1      -9.876  12.237  65.392  1.00  0.00    -0.209 C  
HETATM    5  C   UNL     1      -8.721   6.306  68.981  1.00  0.00    -0.125 C  
HETATM    6  C   UNL     1     -10.623   9.374  66.413  1.00  0.00     0.005 C  
HETATM    7  C   UNL     1      -9.911   7.101  69.629  1.00  0.00    -0.162 C  
HETATM    8  C   UNL     1      -8.990  10.989  65.554  1.00  0.00    -0.194 C  
HETATM    9  C   UNL     1      -9.988  12.898  66.722  1.00  0.00    -0.243 A  
HETATM   10  C   UNL     1     -10.537   8.368  68.807  1.00  0.00    -0.154 C  
HETATM   11  C   UNL     1     -10.033  15.648  69.055  1.00  0.00    -0.233 A  
HETATM   12  C   UNL     1      -9.789  12.194  67.898  1.00  0.00    -0.199 A  
HETATM   13  N   UNL     1      -9.782  13.119  68.914  1.00  0.00    -0.407 NA 
HETATM   14  C   UNL     1     -10.180   9.891  69.089  1.00  0.00    -0.218 C  
HETATM   15  C   UNL     1     -10.262  16.787  68.267  1.00  0.00    -0.295 A  
HETATM   16  N   UNL     1      -9.401  10.105  66.658  1.00  0.00    -0.158 NA 
HETATM   17  C   UNL     1     -10.434  16.663  66.901  1.00  0.00    -0.271 A  
HETATM   18  C   UNL     1      -9.392  10.725  67.995  1.00  0.00    -0.150 C  
HETATM   19  C   UNL     1     -10.376  15.422  66.247  1.00  0.00    -0.304 A  
HETATM   20  C   UNL     1     -10.164  14.264  67.029  1.00  0.00    -0.260 A  
HETATM   21  H   UNL     1      -9.639  12.899  69.899  1.00  0.00     0.000 HD 
HETATM   22  C   UNL     1      -9.997  14.394  68.409  1.00  0.00    -0.241 A  
ENDROOT
BRANCH   3  23
HETATM   23  O   UNL     1      -7.768   8.468  68.529  1.00  0.00    -0.100 OA 
BRANCH  23  24
HETATM   24  C   UNL     1      -6.422   8.579  68.685  1.00  0.00    -0.054 C  
HETATM   25  O   UNL     1      -5.638   7.813  68.135  1.00  0.00    -0.030 OA 
BRANCH  24  26
HETATM   26  C   UNL     1      -5.850   9.692  69.536  1.00  0.00    -0.033 A  
HETATM   27  C   UNL     1      -5.616   9.763  70.906  1.00  0.00    -0.071 A  
HETATM   28  C   UNL     1      -5.402  12.095  69.418  1.00  0.00    -0.067 A  
HETATM   29  C   UNL     1      -5.343  10.992  71.562  1.00  0.00     0.072 A  
HETATM   30  C   UNL     1      -5.583  10.849  68.812  1.00  0.00    -0.040 A  
HETATM   31  C   UNL     1      -5.312  12.192  70.818  1.00  0.00    -0.155 A  
BRANCH  28  32
HETATM   32  O   UNL     1      -5.320  13.214  68.625  1.00  0.00    -0.064 OA 
HETATM   33  C   UNL     1      -6.302  13.286  67.584  1.00  0.00    -0.156 C  
ENDBRANCH  28  32
BRANCH  31  34
HETATM   34  O   UNL     1      -5.217  13.359  71.527  1.00  0.00    -0.160 OA 
HETATM   35  C   UNL     1      -6.139  14.410  71.269  1.00  0.00    -0.005 C  
ENDBRANCH  31  34
BRANCH  29  36
HETATM   36  O   UNL     1      -5.186  10.823  72.923  1.00  0.00    -0.312 OA 
HETATM   37  C   UNL     1      -5.139   9.502  73.457  1.00  0.00    -0.095 C  
ENDBRANCH  29  36
ENDBRANCH  24  26
ENDBRANCH  23  24
ENDBRANCH   3  23
BRANCH   5  38
HETATM   38  O   UNL     1      -9.163   5.067  68.385  1.00  0.00    -0.111 OA 
HETATM   39  C   UNL     1      -9.650   4.064  69.263  1.00  0.00    -0.177 C  
ENDBRANCH   5  38
BRANCH   7  40
HETATM   40  C   UNL     1      -9.572   7.426  71.072  1.00  0.00    -0.161 C  
HETATM   41  O   UNL     1      -8.505   7.873  71.475  1.00  0.00    -0.105 OA 
BRANCH  40  42
HETATM   42  O   UNL     1     -10.618   7.093  71.870  1.00  0.00    -0.211 OA 
HETATM   43  C   UNL     1     -11.351   8.181  72.431  1.00  0.00    -0.391 C  
ENDBRANCH  40  42
ENDBRANCH   7  40
BRANCH  15  44
HETATM   44  O   UNL     1     -10.341  18.077  68.722  1.00  0.00    -0.368 OA 
HETATM   45  C   UNL     1      -9.214  18.913  68.500  1.00  0.00    -0.361 C  
ENDBRANCH  15  44
TORSDOF 10
ENDMDL
MODEL       41
REMARK 921   NORMALIZED FREE ENERGY PREDICTED BY IDOCK:   -4.54 KCAL/MOL
REMARK 922        TOTAL FREE ENERGY PREDICTED BY IDOCK:   -9.95 KCAL/MOL
REMARK 923 INTER-LIGAND FREE ENERGY PREDICTED BY IDOCK:   -9.12 KCAL/MOL
REMARK 924 INTRA-LIGAND FREE ENERGY PREDICTED BY IDOCK:   -0.83 KCAL/MOL
REMARK 927      BINDING AFFINITY PREDICTED BY RF-SCORE:    0.00 PKD
ROOT
HETATM    1  C   UNL     1      -9.054   9.360  65.824  1.00  0.00    -0.249 C  
HETATM    2  C   UNL     1     -10.309  10.185  65.524  1.00  0.00    -0.196 C  
HETATM    3  C   UNL     1     -10.615  11.330  66.538  1.00  0.00    -0.266 C  
HETATM    4  C   UNL     1     -10.603   5.692  68.107  1.00  0.00    -0.256 C  
HETATM    5  C   UNL     1      -9.551  12.382  66.228  1.00  0.00    -0.241 C  
HETATM    6  C   UNL     1      -9.498   7.953  66.245  1.00  0.00    -0.151 C  
HETATM    7  C   UNL     1      -8.184  11.715  66.619  1.00  0.00    -0.140 C  
HETATM    8  C   UNL     1     -11.253   7.021  67.682  1.00  0.00    -0.000 C  
HETATM    9  C   UNL     1      -9.678   5.973  69.240  1.00  0.00    -0.174 A  
HETATM   10  C   UNL     1      -8.143  10.093  66.824  1.00  0.00    -0.119 C  
HETATM   11  C   UNL     1      -8.115   5.433  72.444  1.00  0.00    -0.107 A  
HETATM   12  C   UNL     1      -9.144   7.235  69.442  1.00  0.00    -0.142 A  
HETATM   13  N   UNL     1      -8.495   7.199  70.652  1.00  0.00    -0.136 NA 
HETATM   14  C   UNL     1      -8.195   9.360  68.232  1.00  0.00    -0.118 C  
HETATM   15  C   UNL     1      -8.371   4.087  72.750  1.00  0.00    -0.096 A  
HETATM   16  N   UNL     1     -10.287   8.108  67.445  1.00  0.00    -0.257 NA 
HETATM   17  C   UNL     1      -9.074   3.296  71.860  1.00  0.00    -0.164 A  
HETATM   18  C   UNL     1      -9.455   8.473  68.605  1.00  0.00    -0.143 C  
HETATM   19  C   UNL     1      -9.566   3.790  70.642  1.00  0.00    -0.259 A  
HETATM   20  C   UNL     1      -9.300   5.139  70.313  1.00  0.00    -0.209 A  
HETATM   21  H   UNL     1      -8.015   7.992  71.078  1.00  0.00     0.000 HD 
HETATM   22  C   UNL     1      -8.584   5.932  71.211  1.00  0.00    -0.129 A  
ENDROOT
BRANCH   3  23
HETATM   23  O   UNL     1     -10.500  11.027  67.975  1.00  0.00    -0.176 OA 
BRANCH  23  24
HETATM   24  C   UNL     1     -11.565  11.447  68.708  1.00  0.00    -0.313 C  
HETATM   25  O   UNL     1     -12.478  10.690  69.021  1.00  0.00    -0.311 OA 
BRANCH  24  26
HETATM   26  C   UNL     1     -11.634  12.881  69.186  1.00  0.00    -0.375 A  
HETATM   27  C   UNL     1     -10.845  13.984  68.876  1.00  0.00    -0.278 A  
HETATM   28  C   UNL     1     -12.638  14.206  70.981  1.00  0.00    -0.369 A  
HETATM   29  C   UNL     1     -10.884  15.178  69.642  1.00  0.00    -0.286 A  
HETATM   30  C   UNL     1     -12.621  13.088  70.145  1.00  0.00    -0.047 A  
HETATM   31  C   UNL     1     -11.739  15.266  70.762  1.00  0.00    -0.337 A  
BRANCH  28  32
HETATM   32  O   UNL     1     -13.540  14.248  72.017  1.00  0.00    -0.358 OA 
HETATM   33  C   UNL     1     -14.073  12.974  72.401  1.00  0.00    -0.206 C  
ENDBRANCH  28  32
BRANCH  31  34
HETATM   34  O   UNL     1     -11.606  16.370  71.559  1.00  0.00    -0.437 OA 
HETATM   35  C   UNL     1     -11.911  16.273  72.945  1.00  0.00    -0.516 C  
ENDBRANCH  31  34
BRANCH  29  36
HETATM   36  O   UNL     1      -9.987  16.117  69.173  1.00  0.00    -0.225 OA 
HETATM   37  C   UNL     1     -10.481  17.261  68.480  1.00  0.00    -0.375 C  
ENDBRANCH  29  36
ENDBRANCH  24  26
ENDBRANCH  23  24
ENDBRANCH   3  23
BRANCH   5  38
HETATM   38  O   UNL     1      -9.612  12.699  64.820  1.00  0.00     0.019 OA 
HETATM   39  C   UNL     1     -10.671  13.541  64.392  1.00  0.00    -0.388 C  
ENDBRANCH   5  38
BRANCH   7  40
HETATM   40  C   UNL     1      -7.559  12.483  67.769  1.00  0.00    -0.138 C  
HETATM   41  O   UNL     1      -7.821  12.336  68.956  1.00  0.00     0.027 OA 
BRANCH  40  42
HETATM   42  O   UNL     1      -6.696  13.409  67.280  1.00  0.00    -0.196 OA 
HETATM   43  C   UNL     1      -7.074  14.773  67.452  1.00  0.00    -0.143 C  
ENDBRANCH  40  42
ENDBRANCH   7  40
BRANCH  15  44
HETATM   44  O   UNL     1      -7.982   3.433  73.890  1.00  0.00    -0.069 OA 
HETATM   45  C   UNL     1      -8.764   2.319  74.296  1.00  0.00    -0.073 C  
ENDBRANCH  15  44
TORSDOF 10
ENDMDL
MODEL       42
REMARK 921   NORMALIZED FREE ENERGY PREDICTED BY IDOCK:   -4.52 KCAL/MOL
REMARK 922        TOTAL FREE ENERGY PREDICTED BY IDOCK:   -9.93 KCAL/MOL
REMARK 923 INTER-LIGAND FREE ENERGY PREDICTED BY IDOCK:   -7.66 KCAL/MOL
REMARK 924 INTRA-LIGAND FREE ENERGY PREDICTED BY IDOCK:   -2.27 KCAL/MOL
REMARK 927      BINDING AFFINITY PREDICTED BY RF-SCORE:    0.00 PKD
ROOT
HETATM    1  C   UNL     1      -6.694  10.424  68.288  1.00  0.00    -0.061 C  
HETATM    2  C   UNL     1      -7.774   9.848  69.209  1.00  0.00    -0.109 C  
HETATM    3  C   UNL     1      -9.231   9.912  68.654  1.00  0.00    -0.139 C  
HETATM    4  C   UNL     1      -6.098  14.730  69.762  1.00  0.00    -0.131 C  
HETATM    5  C   UNL     1      -9.249   8.846  67.560  1.00  0.00    -0.136 C  
HETATM    6  C   UNL     1      -6.161  11.714  68.926  1.00  0.00    -0.057 C  
HETATM    7  C   UNL     1      -8.265   9.373  66.454  1.00  0.00    -0.111 C  
HETATM    8  C   UNL     1      -7.148  13.647  70.068  1.00  0.00     0.548 C  
HETATM    9  C   UNL     1      -6.371  15.263  68.399  1.00  0.00    -0.107 A  
HETATM   10  C   UNL     1      -7.221  10.568  66.849  1.00  0.00    -0.106 C  
HETATM   11  C   UNL     1      -6.768  17.786  65.854  1.00  0.00    -0.286 A  
HETATM   12  C   UNL     1      -7.066  14.521  67.458  1.00  0.00    -0.175 A  
HETATM   13  N   UNL     1      -7.301  15.357  66.393  1.00  0.00     0.014 NA 
HETATM   14  C   UNL     1      -7.440  12.105  66.510  1.00  0.00     0.307 C  
HETATM   15  C   UNL     1      -6.122  18.923  66.366  1.00  0.00    -0.167 A  
HETATM   16  N   UNL     1      -7.278  12.627  69.013  1.00  0.00    -0.044 NA 
HETATM   17  C   UNL     1      -5.500  18.869  67.600  1.00  0.00    -0.171 A  
HETATM   18  C   UNL     1      -7.670  13.140  67.689  1.00  0.00    -0.168 C  
HETATM   19  C   UNL     1      -5.496  17.708  68.388  1.00  0.00    -0.150 A  
HETATM   20  C   UNL     1      -6.127  16.551  67.878  1.00  0.00    -0.143 A  
HETATM   21  H   UNL     1      -7.810  15.095  65.549  1.00  0.00     0.000 HD 
HETATM   22  C   UNL     1      -6.748  16.609  66.629  1.00  0.00    -0.157 A  
ENDROOT
BRANCH   3  23
HETATM   23  O   UNL     1      -9.674  11.168  68.024  1.00  0.00    -0.167 OA 
BRANCH  23  24
HETATM   24  C   UNL     1     -10.658  11.805  68.711  1.00  0.00    -0.206 C  
HETATM   25  O   UNL     1     -11.294  11.250  69.601  1.00  0.00    -0.260 OA 
BRANCH  24  26
HETATM   26  C   UNL     1     -10.978  13.252  68.405  1.00  0.00    -0.289 A  
HETATM   27  C   UNL     1     -10.721  14.023  67.275  1.00  0.00    -0.278 A  
HETATM   28  C   UNL     1     -11.619  15.311  69.562  1.00  0.00    -0.322 A  
HETATM   29  C   UNL     1     -10.838  15.437  67.284  1.00  0.00    -0.316 A  
HETATM   30  C   UNL     1     -11.568  13.918  69.474  1.00  0.00    -0.358 A  
HETATM   31  C   UNL     1     -11.220  16.102  68.470  1.00  0.00    -0.365 A  
BRANCH  28  32
HETATM   32  O   UNL     1     -12.059  15.887  70.729  1.00  0.00    -0.389 OA 
HETATM   33  C   UNL     1     -13.326  15.409  71.196  1.00  0.00    -0.508 C  
ENDBRANCH  28  32
BRANCH  31  34
HETATM   34  O   UNL     1     -11.148  17.469  68.465  1.00  0.00    -0.123 OA 
HETATM   35  C   UNL     1      -9.880  18.102  68.580  1.00  0.00    -0.382 C  
ENDBRANCH  31  34
BRANCH  29  36
HETATM   36  O   UNL     1     -10.494  15.988  66.065  1.00  0.00    -0.320 OA 
HETATM   37  C   UNL     1     -11.408  15.885  64.975  1.00  0.00    -0.193 C  
ENDBRANCH  29  36
ENDBRANCH  24  26
ENDBRANCH  23  24
ENDBRANCH   3  23
BRANCH   5  38
HETATM   38  O   UNL     1      -8.801   7.595  68.126  1.00  0.00    -0.126 OA 
HETATM   39  C   UNL     1      -9.802   6.689  68.563  1.00  0.00    -0.139 C  
ENDBRANCH   5  38
BRANCH   7  40
HETATM   40  C   UNL     1      -9.040   9.646  65.179  1.00  0.00    -0.228 C  
HETATM   41  O   UNL     1     -10.181  10.088  65.114  1.00  0.00    -0.288 OA 
BRANCH  40  42
HETATM   42  O   UNL     1      -8.297   9.274  64.107  1.00  0.00    -0.156 OA 
HETATM   43  C   UNL     1      -8.730   9.768  62.840  1.00  0.00    -0.229 C  
ENDBRANCH  40  42
ENDBRANCH   7  40
BRANCH  15  44
HETATM   44  O   UNL     1      -6.031  20.143  65.749  1.00  0.00    -0.174 OA 
HETATM   45  C   UNL     1      -6.133  21.295  66.574  1.00  0.00    -0.300 C  
ENDBRANCH  15  44
TORSDOF 10
ENDMDL
MODEL       43
REMARK 921   NORMALIZED FREE ENERGY PREDICTED BY IDOCK:   -4.52 KCAL/MOL
REMARK 922        TOTAL FREE ENERGY PREDICTED BY IDOCK:   -9.92 KCAL/MOL
REMARK 923 INTER-LIGAND FREE ENERGY PREDICTED BY IDOCK:   -7.59 KCAL/MOL
REMARK 924 INTRA-LIGAND FREE ENERGY PREDICTED BY IDOCK:   -2.33 KCAL/MOL
REMARK 927      BINDING AFFINITY PREDICTED BY RF-SCORE:    0.00 PKD
ROOT
HETATM    1  C   UNL     1      -5.616  10.159  68.338  1.00  0.00    -0.038 C  
HETATM    2  C   UNL     1      -6.623   9.368  69.178  1.00  0.00    -0.049 C  
HETATM    3  C   UNL     1      -8.086   9.357  68.635  1.00  0.00    -0.104 C  
HETATM    4  C   UNL     1      -5.428  14.283  70.344  1.00  0.00    -0.119 C  
HETATM    5  C   UNL     1      -8.012   8.440  67.415  1.00  0.00    -0.106 C  
HETATM    6  C   UNL     1      -5.205  11.404  69.134  1.00  0.00    -0.043 C  
HETATM    7  C   UNL     1      -7.098   9.196  66.386  1.00  0.00    -0.084 C  
HETATM    8  C   UNL     1      -6.363  13.072  70.510  1.00  0.00     0.310 C  
HETATM    9  C   UNL     1      -5.768  14.954  69.059  1.00  0.00    -0.096 A  
HETATM   10  C   UNL     1      -6.172  10.430  66.929  1.00  0.00    -0.066 C  
HETATM   11  C   UNL     1      -6.442  17.725  66.852  1.00  0.00    -0.203 A  
HETATM   12  C   UNL     1      -6.398  14.271  68.031  1.00  0.00    -0.153 A  
HETATM   13  N   UNL     1      -6.727  15.207  67.081  1.00  0.00    -0.290 NA 
HETATM   14  C   UNL     1      -6.544  11.968  66.786  1.00  0.00     0.037 C  
HETATM   15  C   UNL     1      -5.904  18.846  67.504  1.00  0.00    -0.175 A  
HETATM   16  N   UNL     1      -6.404  12.185  69.335  1.00  0.00    -0.107 NA 
HETATM   17  C   UNL     1      -5.265  18.700  68.722  1.00  0.00    -0.186 A  
HETATM   18  C   UNL     1      -6.861  12.819  68.086  1.00  0.00    -0.094 C  
HETATM   19  C   UNL     1      -5.137  17.456  69.358  1.00  0.00    -0.164 A  
HETATM   20  C   UNL     1      -5.658  16.315  68.705  1.00  0.00    -0.105 A  
HETATM   21  H   UNL     1      -7.218  15.004  66.211  1.00  0.00     0.000 HD 
HETATM   22  C   UNL     1      -6.296  16.467  67.473  1.00  0.00    -0.159 A  
ENDROOT
BRANCH   3  23
HETATM   23  O   UNL     1      -8.657  10.632  68.169  1.00  0.00    -0.117 OA 
BRANCH  23  24
HETATM   24  C   UNL     1      -9.965  10.797  68.501  1.00  0.00    -0.178 C  
HETATM   25  O   UNL     1     -10.491  10.159  69.406  1.00  0.00    -0.202 OA 
BRANCH  24  26
HETATM   26  C   UNL     1     -10.808  11.815  67.763  1.00  0.00    -0.258 A  
HETATM   27  C   UNL     1     -11.574  11.697  66.607  1.00  0.00    -0.194 A  
HETATM   28  C   UNL     1     -11.121  14.237  67.626  1.00  0.00    -0.292 A  
HETATM   29  C   UNL     1     -12.062  12.831  65.908  1.00  0.00    -0.426 A  
HETATM   30  C   UNL     1     -10.736  13.088  68.319  1.00  0.00    -0.261 A  
HETATM   31  C   UNL     1     -11.766  14.129  66.381  1.00  0.00    -0.390 A  
BRANCH  28  32
HETATM   32  O   UNL     1     -10.853  15.467  68.177  1.00  0.00    -0.265 OA 
HETATM   33  C   UNL     1      -9.517  15.625  68.673  1.00  0.00    -0.204 C  
ENDBRANCH  28  32
BRANCH  31  34
HETATM   34  O   UNL     1     -12.115  15.178  65.574  1.00  0.00    -0.020 OA 
HETATM   35  C   UNL     1     -11.202  15.629  64.582  1.00  0.00    -0.369 C  
ENDBRANCH  31  34
BRANCH  29  36
HETATM   36  O   UNL     1     -12.758  12.473  64.770  1.00  0.00    -0.640 OA 
HETATM   37  C   UNL     1     -12.041  11.949  63.655  1.00  0.00    -0.477 C  
ENDBRANCH  29  36
ENDBRANCH  24  26
ENDBRANCH  23  24
ENDBRANCH   3  23
BRANCH   5  38
HETATM   38  O   UNL     1      -7.437   7.178  67.820  1.00  0.00    -0.094 OA 
HETATM   39  C   UNL     1      -8.338   6.136  68.158  1.00  0.00    -0.114 C  
ENDBRANCH   5  38
BRANCH   7  40
HETATM   40  C   UNL     1      -7.911   9.550  65.155  1.00  0.00    -0.117 C  
HETATM   41  O   UNL     1      -9.131   9.482  65.058  1.00  0.00    -0.207 OA 
BRANCH  40  42
HETATM   42  O   UNL     1      -7.077   9.904  64.145  1.00  0.00    -0.120 OA 
HETATM   43  C   UNL     1      -7.697  10.442  62.978  1.00  0.00    -0.118 C  
ENDBRANCH  40  42
ENDBRANCH   7  40
BRANCH  15  44
HETATM   44  O   UNL     1      -5.940  20.138  67.047  1.00  0.00    -0.170 OA 
HETATM   45  C   UNL     1      -7.053  20.931  67.432  1.00  0.00    -0.361 C  
ENDBRANCH  15  44
TORSDOF 10
ENDMDL
MODEL       44
REMARK 921   NORMALIZED FREE ENERGY PREDICTED BY IDOCK:   -4.50 KCAL/MOL
REMARK 922        TOTAL FREE ENERGY PREDICTED BY IDOCK:   -9.89 KCAL/MOL
REMARK 923 INTER-LIGAND FREE ENERGY PREDICTED BY IDOCK:   -7.58 KCAL/MOL
REMARK 924 INTRA-LIGAND FREE ENERGY PREDICTED BY IDOCK:   -2.31 KCAL/MOL
REMARK 927      BINDING AFFINITY PREDICTED BY RF-SCORE:    0.00 PKD
ROOT
HETATM    1  C   UNL     1      -8.242  13.297  68.288  1.00  0.00    -0.156 C  
HETATM    2  C   UNL     1      -7.975  13.127  66.789  1.00  0.00     0.272 C  
HETATM    3  C   UNL     1      -9.208  12.701  65.934  1.00  0.00     0.086 C  
HETATM    4  C   UNL     1      -6.998   9.287  70.142  1.00  0.00    -0.067 C  
HETATM    5  C   UNL     1     -10.069  13.962  65.887  1.00  0.00    -0.317 C  
HETATM    6  C   UNL     1      -7.517  12.167  69.032  1.00  0.00     0.039 C  
HETATM    7  C   UNL     1     -10.539  14.196  67.368  1.00  0.00    -0.279 C  
HETATM    8  C   UNL     1      -7.202   9.759  68.691  1.00  0.00    -0.073 C  
HETATM    9  C   UNL     1      -8.340   9.129  70.767  1.00  0.00    -0.248 A  
HETATM   10  C   UNL     1      -9.751  13.411  68.566  1.00  0.00    -0.156 C  
HETATM   11  C   UNL     1     -10.902   7.532  72.740  1.00  0.00    -0.397 A  
HETATM   12  C   UNL     1      -9.447   9.809  70.286  1.00  0.00    -0.195 A  
HETATM   13  N   UNL     1     -10.538   9.308  70.954  1.00  0.00    -0.270 NA 
HETATM   14  C   UNL     1     -10.268  12.081  69.266  1.00  0.00     0.245 C  
HETATM   15  C   UNL     1     -10.216   6.617  73.553  1.00  0.00    -0.277 A  
HETATM   16  N   UNL     1      -8.091  10.926  68.563  1.00  0.00    -0.129 NA 
HETATM   17  C   UNL     1      -8.838   6.521  73.479  1.00  0.00    -0.135 A  
HETATM   18  C   UNL     1      -9.461  10.730  69.070  1.00  0.00    -0.166 C  
HETATM   19  C   UNL     1      -8.077   7.305  72.598  1.00  0.00    -0.117 A  
HETATM   20  C   UNL     1      -8.753   8.244  71.785  1.00  0.00    -0.218 A  
HETATM   21  H   UNL     1     -11.501   9.606  70.800  1.00  0.00     0.000 HD 
HETATM   22  C   UNL     1     -10.143   8.341  71.869  1.00  0.00    -0.245 A  
ENDROOT
BRANCH   3  23
HETATM   23  O   UNL     1     -10.068  11.623  66.454  1.00  0.00    -0.205 OA 
BRANCH  23  24
HETATM   24  C   UNL     1     -10.278  10.617  65.564  1.00  0.00    -0.262 C  
HETATM   25  O   UNL     1     -10.907  10.787  64.526  1.00  0.00    -0.225 OA 
BRANCH  24  26
HETATM   26  C   UNL     1      -9.703   9.243  65.831  1.00  0.00    -0.355 A  
HETATM   27  C   UNL     1      -8.602   8.593  65.280  1.00  0.00    -0.206 A  
HETATM   28  C   UNL     1     -10.339   7.117  66.862  1.00  0.00    -0.279 A  
HETATM   29  C   UNL     1      -8.389   7.200  65.446  1.00  0.00    -0.118 A  
HETATM   30  C   UNL     1     -10.457   8.503  66.736  1.00  0.00    -0.308 A  
HETATM   31  C   UNL     1      -9.314   6.431  66.186  1.00  0.00    -0.076 A  
BRANCH  28  32
HETATM   32  O   UNL     1     -11.242   6.442  67.648  1.00  0.00    -0.337 OA 
HETATM   33  C   UNL     1     -10.789   6.161  68.978  1.00  0.00    -0.350 C  
ENDBRANCH  28  32
BRANCH  31  34
HETATM   34  O   UNL     1      -9.149   5.072  66.166  1.00  0.00    -0.129 OA 
HETATM   35  C   UNL     1      -9.834   4.300  65.188  1.00  0.00    -0.200 C  
ENDBRANCH  31  34
BRANCH  29  36
HETATM   36  O   UNL     1      -7.260   6.770  64.777  1.00  0.00    -0.073 OA 
HETATM   37  C   UNL     1      -6.341   7.738  64.276  1.00  0.00    -0.053 C  
ENDBRANCH  29  36
ENDBRANCH  24  26
ENDBRANCH  23  24
ENDBRANCH   3  23
BRANCH   5  38
HETATM   38  O   UNL     1      -9.261  15.056  65.400  1.00  0.00     0.060 OA 
HETATM   39  C   UNL     1      -9.334  16.281  66.112  1.00  0.00    -0.339 C  
ENDBRANCH   5  38
BRANCH   7  40
HETATM   40  C   UNL     1     -12.048  14.054  67.445  1.00  0.00    -0.349 C  
HETATM   41  O   UNL     1     -12.782  13.693  66.533  1.00  0.00    -0.255 OA 
BRANCH  40  42
HETATM   42  O   UNL     1     -12.478  14.443  68.672  1.00  0.00    -0.115 OA 
HETATM   43  C   UNL     1     -12.137  15.772  69.064  1.00  0.00    -0.171 C  
ENDBRANCH  40  42
ENDBRANCH   7  40
BRANCH  15  44
HETATM   44  O   UNL     1     -10.784   5.764  74.462  1.00  0.00    -0.182 OA 
HETATM   45  C   UNL     1     -10.360   4.409  74.433  1.00  0.00    -0.253 C  
ENDBRANCH  15  44
TORSDOF 10
ENDMDL
MODEL       45
REMARK 921   NORMALIZED FREE ENERGY PREDICTED BY IDOCK:   -4.49 KCAL/MOL
REMARK 922        TOTAL FREE ENERGY PREDICTED BY IDOCK:   -9.88 KCAL/MOL
REMARK 923 INTER-LIGAND FREE ENERGY PREDICTED BY IDOCK:   -8.48 KCAL/MOL
REMARK 924 INTRA-LIGAND FREE ENERGY PREDICTED BY IDOCK:   -1.40 KCAL/MOL
REMARK 927      BINDING AFFINITY PREDICTED BY RF-SCORE:    0.00 PKD
ROOT
HETATM    1  C   UNL     1      -6.579  10.179  66.817  1.00  0.00    -0.073 C  
HETATM    2  C   UNL     1      -7.545  11.313  66.460  1.00  0.00    -0.111 C  
HETATM    3  C   UNL     1      -8.241  12.006  67.673  1.00  0.00    -0.155 C  
HETATM    4  C   UNL     1      -9.083   6.355  66.404  1.00  0.00    -0.168 C  
HETATM    5  C   UNL     1      -7.122  12.830  68.309  1.00  0.00    -0.104 C  
HETATM    6  C   UNL     1      -7.202   8.857  66.351  1.00  0.00    -0.084 C  
HETATM    7  C   UNL     1      -6.092  11.776  68.853  1.00  0.00    -0.054 C  
HETATM    8  C   UNL     1      -9.438   7.853  66.408  1.00  0.00    -0.192 C  
HETATM    9  C   UNL     1      -8.754   5.956  67.800  1.00  0.00    -0.104 A  
HETATM   10  C   UNL     1      -6.190  10.239  68.305  1.00  0.00    -0.048 C  
HETATM   11  C   UNL     1      -8.799   3.870  70.741  1.00  0.00    -0.137 A  
HETATM   12  C   UNL     1      -8.332   6.885  68.737  1.00  0.00    -0.121 A  
HETATM   13  N   UNL     1      -8.292   6.234  69.946  1.00  0.00    -0.127 NA 
HETATM   14  C   UNL     1      -6.885   9.044  69.088  1.00  0.00    -0.054 C  
HETATM   15  C   UNL     1      -9.202   2.606  70.283  1.00  0.00    -0.131 A  
HETATM   16  N   UNL     1      -8.440   8.701  67.080  1.00  0.00    -0.114 NA 
HETATM   17  C   UNL     1      -9.454   2.404  68.938  1.00  0.00    -0.164 A  
HETATM   18  C   UNL     1      -8.203   8.386  68.500  1.00  0.00    -0.124 C  
HETATM   19  C   UNL     1      -9.337   3.433  67.990  1.00  0.00    -0.241 A  
HETATM   20  C   UNL     1      -8.916   4.707  68.434  1.00  0.00    -0.140 A  
HETATM   21  H   UNL     1      -8.031   6.667  70.832  1.00  0.00     0.000 HD 
HETATM   22  C   UNL     1      -8.656   4.903  69.792  1.00  0.00    -0.086 A  
ENDROOT
BRANCH   3  23
HETATM   23  O   UNL     1      -8.787  11.146  68.738  1.00  0.00    -0.162 OA 
BRANCH  23  24
HETATM   24  C   UNL     1     -10.136  11.242  68.876  1.00  0.00    -0.170 C  
HETATM   25  O   UNL     1     -10.730  10.733  69.820  1.00  0.00    -0.245 OA 
BRANCH  24  26
HETATM   26  C   UNL     1     -10.946  12.018  67.861  1.00  0.00    -0.266 A  
HETATM   27  C   UNL     1     -11.284  11.720  66.544  1.00  0.00    -0.380 A  
HETATM   28  C   UNL     1     -11.784  14.285  67.477  1.00  0.00    -0.384 A  
HETATM   29  C   UNL     1     -11.805  12.700  65.660  1.00  0.00    -0.437 A  
HETATM   30  C   UNL     1     -11.353  13.264  68.328  1.00  0.00    -0.335 A  
HETATM   31  C   UNL     1     -11.988  14.026  66.109  1.00  0.00    -0.420 A  
BRANCH  28  32
HETATM   32  O   UNL     1     -11.998  15.538  67.999  1.00  0.00    -0.195 OA 
HETATM   33  C   UNL     1     -10.807  16.277  68.294  1.00  0.00    -0.340 C  
ENDBRANCH  28  32
BRANCH  31  34
HETATM   34  O   UNL     1     -12.327  14.960  65.168  1.00  0.00    -0.212 OA 
HETATM   35  C   UNL     1     -11.303  15.705  64.522  1.00  0.00    -0.320 C  
ENDBRANCH  31  34
BRANCH  29  36
HETATM   36  O   UNL     1     -12.026  12.186  64.398  1.00  0.00    -0.377 OA 
HETATM   37  C   UNL     1     -11.009  11.400  63.781  1.00  0.00    -0.370 C  
ENDBRANCH  29  36
ENDBRANCH  24  26
ENDBRANCH  23  24
ENDBRANCH   3  23
BRANCH   5  38
HETATM   38  O   UNL     1      -6.540  13.678  67.296  1.00  0.00    -0.254 OA 
HETATM   39  C   UNL     1      -6.677  15.079  67.468  1.00  0.00    -0.150 C  
ENDBRANCH   5  38
BRANCH   7  40
HETATM   40  C   UNL     1      -6.025  11.873  70.366  1.00  0.00    -0.115 C  
HETATM   41  O   UNL     1      -5.968  10.927  71.143  1.00  0.00    -0.351 OA 
BRANCH  40  42
HETATM   42  O   UNL     1      -6.094  13.174  70.742  1.00  0.00    -0.143 OA 
HETATM   43  C   UNL     1      -5.282  13.551  71.853  1.00  0.00    -0.166 C  
ENDBRANCH  40  42
ENDBRANCH   7  40
BRANCH  15  44
HETATM   44  O   UNL     1      -9.380   1.489  71.055  1.00  0.00    -0.087 OA 
HETATM   45  C   UNL     1      -9.231   1.641  72.460  1.00  0.00    -0.073 C  
ENDBRANCH  15  44
TORSDOF 10
ENDMDL
MODEL       46
REMARK 921   NORMALIZED FREE ENERGY PREDICTED BY IDOCK:   -4.49 KCAL/MOL
REMARK 922        TOTAL FREE ENERGY PREDICTED BY IDOCK:   -9.87 KCAL/MOL
REMARK 923 INTER-LIGAND FREE ENERGY PREDICTED BY IDOCK:   -8.45 KCAL/MOL
REMARK 924 INTRA-LIGAND FREE ENERGY PREDICTED BY IDOCK:   -1.41 KCAL/MOL
REMARK 927      BINDING AFFINITY PREDICTED BY RF-SCORE:    0.00 PKD
ROOT
HETATM    1  C   UNL     1      -9.490  13.848  68.000  1.00  0.00    -0.208 C  
HETATM    2  C   UNL     1      -8.612  13.908  66.746  1.00  0.00    -0.066 C  
HETATM    3  C   UNL     1      -9.226  13.254  65.469  1.00  0.00     0.530 C  
HETATM    4  C   UNL     1      -7.995  10.153  70.277  1.00  0.00     0.091 C  
HETATM    5  C   UNL     1     -10.319  14.236  65.049  1.00  0.00    -0.421 C  
HETATM    6  C   UNL     1      -8.831  12.885  68.997  1.00  0.00     0.519 C  
HETATM    7  C   UNL     1     -11.384  14.184  66.202  1.00  0.00    -0.337 C  
HETATM    8  C   UNL     1      -7.731  10.698  68.862  1.00  0.00    -0.121 C  
HETATM    9  C   UNL     1      -9.369   9.579  70.301  1.00  0.00    -0.305 A  
HETATM   10  C   UNL     1     -10.948  13.523  67.633  1.00  0.00    -0.280 C  
HETATM   11  C   UNL     1     -11.930   7.163  71.080  1.00  0.00    -0.381 A  
HETATM   12  C   UNL     1     -10.337   9.982  69.395  1.00  0.00    -0.227 A  
HETATM   13  N   UNL     1     -11.410   9.142  69.567  1.00  0.00    -0.435 NA 
HETATM   14  C   UNL     1     -11.297  12.040  68.085  1.00  0.00    -0.349 C  
HETATM   15  C   UNL     1     -11.393   6.389  72.121  1.00  0.00    -0.290 A  
HETATM   16  N   UNL     1      -8.789  11.589  68.359  1.00  0.00    -0.162 NA 
HETATM   17  C   UNL     1     -10.135   6.674  72.620  1.00  0.00    -0.191 A  
HETATM   18  C   UNL     1     -10.129  10.983  68.263  1.00  0.00    -0.177 C  
HETATM   19  C   UNL     1      -9.346   7.718  72.112  1.00  0.00    -0.204 A  
HETATM   20  C   UNL     1      -9.880   8.517  71.077  1.00  0.00    -0.245 A  
HETATM   21  H   UNL     1     -12.274   9.183  69.026  1.00  0.00     0.000 HD 
HETATM   22  C   UNL     1     -11.153   8.229  70.581  1.00  0.00    -0.253 A  
ENDROOT
BRANCH   3  23
HETATM   23  O   UNL     1      -9.874  11.938  65.611  1.00  0.00    -0.235 OA 
BRANCH  23  24
HETATM   24  C   UNL     1      -9.597  11.082  64.592  1.00  0.00    -0.254 C  
HETATM   25  O   UNL     1      -9.823  11.369  63.422  1.00  0.00    -0.321 OA 
BRANCH  24  26
HETATM   26  C   UNL     1      -8.965   9.739  64.887  1.00  0.00    -0.257 A  
HETATM   27  C   UNL     1      -8.053   8.981  64.157  1.00  0.00    -0.157 A  
HETATM   28  C   UNL     1      -9.290   7.798  66.340  1.00  0.00    -0.181 A  
HETATM   29  C   UNL     1      -7.796   7.618  64.456  1.00  0.00    -0.134 A  
HETATM   30  C   UNL     1      -9.443   9.157  66.056  1.00  0.00    -0.321 A  
HETATM   31  C   UNL     1      -8.483   6.990  65.519  1.00  0.00    -0.114 A  
BRANCH  28  32
HETATM   32  O   UNL     1      -9.943   7.269  67.428  1.00  0.00    -0.147 OA 
HETATM   33  C   UNL     1     -11.220   6.688  67.138  1.00  0.00    -0.234 C  
ENDBRANCH  28  32
BRANCH  31  34
HETATM   34  O   UNL     1      -8.324   5.637  65.647  1.00  0.00    -0.123 OA 
HETATM   35  C   UNL     1      -7.310   5.132  66.507  1.00  0.00    -0.086 C  
ENDBRANCH  31  34
BRANCH  29  36
HETATM   36  O   UNL     1      -6.889   7.062  63.576  1.00  0.00    -0.042 OA 
HETATM   37  C   UNL     1      -7.372   6.398  62.410  1.00  0.00    -0.056 C  
ENDBRANCH  29  36
ENDBRANCH  24  26
ENDBRANCH  23  24
ENDBRANCH   3  23
BRANCH   5  38
HETATM   38  O   UNL     1      -9.733  15.549  64.915  1.00  0.00    -0.176 OA 
HETATM   39  C   UNL     1     -10.557  16.660  65.233  1.00  0.00    -0.205 C  
ENDBRANCH   5  38
BRANCH   7  40
HETATM   40  C   UNL     1     -12.690  13.635  65.658  1.00  0.00    -0.454 C  
HETATM   41  O   UNL     1     -13.755  14.237  65.608  1.00  0.00    -0.222 OA 
BRANCH  40  42
HETATM   42  O   UNL     1     -12.517  12.344  65.280  1.00  0.00    -0.611 OA 
HETATM   43  C   UNL     1     -13.003  11.999  63.983  1.00  0.00    -0.136 C  
ENDBRANCH  40  42
ENDBRANCH   7  40
BRANCH  15  44
HETATM   44  O   UNL     1     -12.006   5.327  72.734  1.00  0.00    -0.211 OA 
HETATM   45  C   UNL     1     -11.212   4.534  73.604  1.00  0.00    -0.264 C  
ENDBRANCH  15  44
TORSDOF 10
ENDMDL
MODEL       47
REMARK 921   NORMALIZED FREE ENERGY PREDICTED BY IDOCK:   -4.43 KCAL/MOL
REMARK 922        TOTAL FREE ENERGY PREDICTED BY IDOCK:   -9.77 KCAL/MOL
REMARK 923 INTER-LIGAND FREE ENERGY PREDICTED BY IDOCK:   -7.26 KCAL/MOL
REMARK 924 INTRA-LIGAND FREE ENERGY PREDICTED BY IDOCK:   -2.51 KCAL/MOL
REMARK 927      BINDING AFFINITY PREDICTED BY RF-SCORE:    0.00 PKD
ROOT
HETATM    1  C   UNL     1     -11.374   7.970  71.373  1.00  0.00    -0.292 C  
HETATM    2  C   UNL     1     -11.359   6.542  70.817  1.00  0.00    -0.399 C  
HETATM    3  C   UNL     1      -9.958   5.859  70.766  1.00  0.00    -0.189 C  
HETATM    4  C   UNL     1     -11.205  10.657  67.656  1.00  0.00    -0.361 C  
HETATM    5  C   UNL     1      -9.650   5.553  72.231  1.00  0.00    -0.152 C  
HETATM    6  C   UNL     1     -11.697   8.927  70.219  1.00  0.00     0.045 C  
HETATM    7  C   UNL     1      -9.502   6.956  72.923  1.00  0.00    -0.161 C  
HETATM    8  C   UNL     1     -11.014   9.145  67.874  1.00  0.00     0.031 C  
HETATM    9  C   UNL     1      -9.998  11.353  68.181  1.00  0.00    -0.196 A  
HETATM   10  C   UNL     1     -10.074   8.272  72.140  1.00  0.00    -0.344 C  
HETATM   11  C   UNL     1      -7.296  13.741  68.181  1.00  0.00    -0.124 A  
HETATM   12  C   UNL     1      -9.187  10.770  69.141  1.00  0.00    -0.116 A  
HETATM   13  N   UNL     1      -8.083  11.578  69.267  1.00  0.00    -0.359 NA 
HETATM   14  C   UNL     1      -9.180   9.282  71.300  1.00  0.00    -0.161 C  
HETATM   15  C   UNL     1      -7.676  14.718  67.247  1.00  0.00    -0.184 A  
HETATM   16  N   UNL     1     -10.634   8.784  69.250  1.00  0.00    -0.221 NA 
HETATM   17  C   UNL     1      -8.888  14.615  66.590  1.00  0.00    -0.240 A  
HETATM   18  C   UNL     1      -9.372   9.375  69.728  1.00  0.00    -0.203 C  
HETATM   19  C   UNL     1      -9.772  13.546  66.808  1.00  0.00    -0.271 A  
HETATM   20  C   UNL     1      -9.411  12.564  67.759  1.00  0.00    -0.198 A  
HETATM   21  H   UNL     1      -7.297  11.397  69.891  1.00  0.00     0.000 HD 
HETATM   22  C   UNL     1      -8.189  12.677  68.424  1.00  0.00    -0.129 A  
ENDROOT
BRANCH   3  23
HETATM   23  O   UNL     1      -8.824   6.648  70.254  1.00  0.00    -0.149 OA 
BRANCH  23  24
HETATM   24  C   UNL     1      -8.046   5.972  69.368  1.00  0.00    -0.111 C  
HETATM   25  O   UNL     1      -7.063   5.330  69.723  1.00  0.00    -0.056 OA 
BRANCH  24  26
HETATM   26  C   UNL     1      -8.400   5.976  67.897  1.00  0.00    -0.116 A  
HETATM   27  C   UNL     1      -8.988   4.999  67.099  1.00  0.00    -0.112 A  
HETATM   28  C   UNL     1      -7.890   7.223  65.854  1.00  0.00    -0.106 A  
HETATM   29  C   UNL     1      -8.978   5.077  65.682  1.00  0.00    -0.149 A  
HETATM   30  C   UNL     1      -8.001   7.138  67.244  1.00  0.00    -0.111 A  
HETATM   31  C   UNL     1      -8.350   6.170  65.043  1.00  0.00    -0.112 A  
BRANCH  28  32
HETATM   32  O   UNL     1      -7.321   8.344  65.301  1.00  0.00    -0.080 OA 
HETATM   33  C   UNL     1      -8.186   9.485  65.231  1.00  0.00    -0.130 C  
ENDBRANCH  28  32
BRANCH  31  34
HETATM   34  O   UNL     1      -8.221   6.103  63.682  1.00  0.00    -0.098 OA 
HETATM   35  C   UNL     1      -6.949   5.818  63.114  1.00  0.00    -0.044 C  
ENDBRANCH  31  34
BRANCH  29  36
HETATM   36  O   UNL     1      -9.582   3.979  65.103  1.00  0.00    -0.158 OA 
HETATM   37  C   UNL     1      -8.800   2.814  64.844  1.00  0.00    -0.119 C  
ENDBRANCH  29  36
ENDBRANCH  24  26
ENDBRANCH  23  24
ENDBRANCH   3  23
BRANCH   5  38
HETATM   38  O   UNL     1     -10.747   4.794  72.785  1.00  0.00    -0.206 OA 
HETATM   39  C   UNL     1     -10.708   4.521  74.177  1.00  0.00    -0.259 C  
ENDBRANCH   5  38
BRANCH   7  40
HETATM   40  C   UNL     1      -8.078   7.123  73.421  1.00  0.00    -0.108 C  
HETATM   41  O   UNL     1      -7.626   8.115  73.980  1.00  0.00    -0.165 OA 
BRANCH  40  42
HETATM   42  O   UNL     1      -7.353   6.021  73.104  1.00  0.00    -0.091 OA 
HETATM   43  C   UNL     1      -5.939   6.196  73.042  1.00  0.00    -0.046 C  
ENDBRANCH  40  42
ENDBRANCH   7  40
BRANCH  15  44
HETATM   44  O   UNL     1      -6.945  15.822  66.895  1.00  0.00    -0.225 OA 
HETATM   45  C   UNL     1      -7.668  16.999  66.562  1.00  0.00    -0.292 C  
ENDBRANCH  15  44
TORSDOF 10
ENDMDL
MODEL       48
REMARK 921   NORMALIZED FREE ENERGY PREDICTED BY IDOCK:   -4.41 KCAL/MOL
REMARK 922        TOTAL FREE ENERGY PREDICTED BY IDOCK:   -9.75 KCAL/MOL
REMARK 923 INTER-LIGAND FREE ENERGY PREDICTED BY IDOCK:   -7.52 KCAL/MOL
REMARK 924 INTRA-LIGAND FREE ENERGY PREDICTED BY IDOCK:   -2.23 KCAL/MOL
REMARK 927      BINDING AFFINITY PREDICTED BY RF-SCORE:    0.00 PKD
ROOT
HETATM    1  C   UNL     1      -7.379   7.204  64.983  1.00  0.00    -0.083 C  
HETATM    2  C   UNL     1      -8.441   8.029  64.249  1.00  0.00     0.083 C  
HETATM    3  C   UNL     1      -8.835   9.374  64.936  1.00  0.00    -0.202 C  
HETATM    4  C   UNL     1      -9.780   4.182  67.467  1.00  0.00    -0.185 C  
HETATM    5  C   UNL     1      -7.621  10.271  64.699  1.00  0.00    -0.103 C  
HETATM    6  C   UNL     1      -8.054   5.943  65.538  1.00  0.00    -0.131 C  
HETATM    7  C   UNL     1      -6.454   9.611  65.517  1.00  0.00    -0.078 C  
HETATM    8  C   UNL     1     -10.172   5.436  66.666  1.00  0.00    -0.243 C  
HETATM    9  C   UNL     1      -9.100   4.628  68.716  1.00  0.00    -0.158 A  
HETATM   10  C   UNL     1      -6.635   8.065  66.018  1.00  0.00    -0.046 C  
HETATM   11  C   UNL     1      -8.344   4.651  72.241  1.00  0.00    -0.114 A  
HETATM   12  C   UNL     1      -8.489   5.868  68.803  1.00  0.00    -0.111 A  
HETATM   13  N   UNL     1      -8.129   6.037  70.118  1.00  0.00    -0.112 NA 
HETATM   14  C   UNL     1      -7.073   7.638  67.484  1.00  0.00    -0.086 C  
HETATM   15  C   UNL     1      -8.806   3.414  72.719  1.00  0.00    -0.085 A  
HETATM   16  N   UNL     1      -9.066   6.388  66.468  1.00  0.00    -0.147 NA 
HETATM   17  C   UNL     1      -9.378   2.505  71.849  1.00  0.00    -0.175 A  
HETATM   18  C   UNL     1      -8.474   6.927  67.705  1.00  0.00    -0.123 C  
HETATM   19  C   UNL     1      -9.535   2.772  70.480  1.00  0.00    -0.202 A  
HETATM   20  C   UNL     1      -9.058   4.006  69.981  1.00  0.00    -0.187 A  
HETATM   21  H   UNL     1      -7.671   6.867  70.493  1.00  0.00     0.000 HD 
HETATM   22  C   UNL     1      -8.476   4.918  70.863  1.00  0.00    -0.111 A  
ENDROOT
BRANCH   3  23
HETATM   23  O   UNL     1      -9.071   9.362  66.390  1.00  0.00    -0.147 OA 
BRANCH  23  24
HETATM   24  C   UNL     1      -9.815  10.411  66.831  1.00  0.00    -0.191 C  
HETATM   25  O   UNL     1      -9.839  11.485  66.239  1.00  0.00    -0.205 OA 
BRANCH  24  26
HETATM   26  C   UNL     1     -10.669  10.262  68.071  1.00  0.00    -0.299 A  
HETATM   27  C   UNL     1     -11.439  11.192  68.764  1.00  0.00    -0.366 A  
HETATM   28  C   UNL     1     -11.000   8.718  69.939  1.00  0.00    -0.179 A  
HETATM   29  C   UNL     1     -11.939  10.935  70.067  1.00  0.00    -0.350 A  
HETATM   30  C   UNL     1     -10.604   8.989  68.627  1.00  0.00    -0.194 A  
HETATM   31  C   UNL     1     -11.651   9.706  70.700  1.00  0.00    -0.299 A  
BRANCH  28  32
HETATM   32  O   UNL     1     -10.739   7.477  70.468  1.00  0.00    -0.225 OA 
HETATM   33  C   UNL     1     -11.781   6.512  70.282  1.00  0.00    -0.366 C  
ENDBRANCH  28  32
BRANCH  31  34
HETATM   34  O   UNL     1     -12.011   9.585  72.014  1.00  0.00    -0.348 OA 
HETATM   35  C   UNL     1     -13.320   9.139  72.343  1.00  0.00    -0.463 C  
ENDBRANCH  31  34
BRANCH  29  36
HETATM   36  O   UNL     1     -12.638  12.014  70.570  1.00  0.00    -0.216 OA 
HETATM   37  C   UNL     1     -12.167  13.333  70.299  1.00  0.00    -0.321 C  
ENDBRANCH  29  36
ENDBRANCH  24  26
ENDBRANCH  23  24
ENDBRANCH   3  23
BRANCH   5  38
HETATM   38  O   UNL     1      -7.338  10.299  63.283  1.00  0.00    -0.145 OA 
HETATM   39  C   UNL     1      -5.973  10.259  62.895  1.00  0.00    -0.142 C  
ENDBRANCH   5  38
BRANCH   7  40
HETATM   40  C   UNL     1      -6.016  10.556  66.621  1.00  0.00    -0.071 C  
HETATM   41  O   UNL     1      -5.257  10.279  67.541  1.00  0.00    -0.040 OA 
BRANCH  40  42
HETATM   42  O   UNL     1      -6.639  11.751  66.469  1.00  0.00    -0.051 OA 
HETATM   43  C   UNL     1      -6.705  12.576  67.631  1.00  0.00    -0.136 C  
ENDBRANCH  40  42
ENDBRANCH   7  40
BRANCH  15  44
HETATM   44  O   UNL     1      -8.749   2.981  74.018  1.00  0.00    -0.075 OA 
HETATM   45  C   UNL     1      -9.674   1.976  74.407  1.00  0.00    -0.086 C  
ENDBRANCH  15  44
TORSDOF 10
ENDMDL
MODEL       49
REMARK 921   NORMALIZED FREE ENERGY PREDICTED BY IDOCK:   -4.41 KCAL/MOL
REMARK 922        TOTAL FREE ENERGY PREDICTED BY IDOCK:   -9.74 KCAL/MOL
REMARK 923 INTER-LIGAND FREE ENERGY PREDICTED BY IDOCK:   -7.16 KCAL/MOL
REMARK 924 INTRA-LIGAND FREE ENERGY PREDICTED BY IDOCK:   -2.58 KCAL/MOL
REMARK 927      BINDING AFFINITY PREDICTED BY RF-SCORE:    0.00 PKD
ROOT
HETATM    1  C   UNL     1      -8.100  13.779  68.523  1.00  0.00    -0.128 C  
HETATM    2  C   UNL     1      -7.921  14.046  67.025  1.00  0.00     0.028 C  
HETATM    3  C   UNL     1      -9.226  13.974  66.172  1.00  0.00    -0.031 C  
HETATM    4  C   UNL     1      -7.101   9.327  69.026  1.00  0.00    -0.067 C  
HETATM    5  C   UNL     1      -9.982  15.244  66.558  1.00  0.00    -0.265 C  
HETATM    6  C   UNL     1      -7.436  12.435  68.849  1.00  0.00     0.001 C  
HETATM    7  C   UNL     1     -10.359  15.055  68.072  1.00  0.00    -0.236 C  
HETATM    8  C   UNL     1      -7.335  10.223  67.796  1.00  0.00    -0.087 C  
HETATM    9  C   UNL     1      -8.420   9.076  69.671  1.00  0.00    -0.128 A  
HETATM   10  C   UNL     1      -9.580  13.900  68.927  1.00  0.00     0.021 C  
HETATM   11  C   UNL     1     -11.005   7.132  71.264  1.00  0.00    -0.264 A  
HETATM   12  C   UNL     1      -9.489   9.938  69.489  1.00  0.00    -0.223 A  
HETATM   13  N   UNL     1     -10.584   9.332  70.057  1.00  0.00    -0.216 NA 
HETATM   14  C   UNL     1     -10.169  12.459  69.242  1.00  0.00     0.351 C  
HETATM   15  C   UNL     1     -10.357   5.974  71.722  1.00  0.00    -0.215 A  
HETATM   16  N   UNL     1      -8.131  11.429  68.079  1.00  0.00    -0.127 NA 
HETATM   17  C   UNL     1      -8.997   5.817  71.526  1.00  0.00    -0.146 A  
HETATM   18  C   UNL     1      -9.486  11.179  68.602  1.00  0.00    -0.193 C  
HETATM   19  C   UNL     1      -8.219   6.777  70.862  1.00  0.00    -0.123 A  
HETATM   20  C   UNL     1      -8.854   7.957  70.410  1.00  0.00    -0.142 A  
HETATM   21  H   UNL     1     -11.525   9.723  70.065  1.00  0.00     0.000 HD 
HETATM   22  C   UNL     1     -10.226   8.113  70.617  1.00  0.00    -0.196 A  
ENDROOT
BRANCH   3  23
HETATM   23  O   UNL     1     -10.145  12.848  66.412  1.00  0.00    -0.257 OA 
BRANCH  23  24
HETATM   24  C   UNL     1     -10.477  12.165  65.284  1.00  0.00    -0.276 C  
HETATM   25  O   UNL     1     -11.191  12.653  64.415  1.00  0.00    -0.311 OA 
BRANCH  24  26
HETATM   26  C   UNL     1      -9.938  10.769  65.061  1.00  0.00    -0.361 A  
HETATM   27  C   UNL     1     -10.099   9.601  65.801  1.00  0.00    -0.274 A  
HETATM   28  C   UNL     1      -8.207   9.617  63.772  1.00  0.00    -0.162 A  
HETATM   29  C   UNL     1      -9.283   8.459  65.593  1.00  0.00    -0.052 A  
HETATM   30  C   UNL     1      -9.091  10.682  63.962  1.00  0.00    -0.246 A  
HETATM   31  C   UNL     1      -8.266   8.491  64.614  1.00  0.00    -0.160 A  
BRANCH  28  32
HETATM   32  O   UNL     1      -7.282   9.693  62.759  1.00  0.00    -0.103 OA 
HETATM   33  C   UNL     1      -6.093  10.425  63.084  1.00  0.00    -0.130 C  
ENDBRANCH  28  32
BRANCH  31  34
HETATM   34  O   UNL     1      -7.405   7.428  64.578  1.00  0.00    -0.075 OA 
HETATM   35  C   UNL     1      -6.232   7.453  65.381  1.00  0.00    -0.038 C  
ENDBRANCH  31  34
BRANCH  29  36
HETATM   36  O   UNL     1      -9.597   7.438  66.469  1.00  0.00    -0.189 OA 
HETATM   37  C   UNL     1     -10.898   7.398  67.050  1.00  0.00    -0.237 C  
ENDBRANCH  29  36
ENDBRANCH  24  26
ENDBRANCH  23  24
ENDBRANCH   3  23
BRANCH   5  38
HETATM   38  O   UNL     1      -9.112  16.379  66.358  1.00  0.00    -0.256 OA 
HETATM   39  C   UNL     1      -9.435  17.573  67.053  1.00  0.00    -0.268 C  
ENDBRANCH   5  38
BRANCH   7  40
HETATM   40  C   UNL     1     -11.869  14.994  68.211  1.00  0.00    -0.268 C  
HETATM   41  O   UNL     1     -12.630  14.367  67.484  1.00  0.00     0.012 OA 
BRANCH  40  42
HETATM   42  O   UNL     1     -12.263  15.788  69.237  1.00  0.00    -0.298 OA 
HETATM   43  C   UNL     1     -12.551  15.126  70.468  1.00  0.00    -0.380 C  
ENDBRANCH  40  42
ENDBRANCH   7  40
BRANCH  15  44
HETATM   44  O   UNL     1     -10.949   4.927  72.379  1.00  0.00    -0.180 OA 
HETATM   45  C   UNL     1     -10.950   4.970  73.799  1.00  0.00    -0.269 C  
ENDBRANCH  15  44
TORSDOF 10
ENDMDL
MODEL       50
REMARK 921   NORMALIZED FREE ENERGY PREDICTED BY IDOCK:   -4.39 KCAL/MOL
REMARK 922        TOTAL FREE ENERGY PREDICTED BY IDOCK:   -9.71 KCAL/MOL
REMARK 923 INTER-LIGAND FREE ENERGY PREDICTED BY IDOCK:   -7.40 KCAL/MOL
REMARK 924 INTRA-LIGAND FREE ENERGY PREDICTED BY IDOCK:   -2.32 KCAL/MOL
REMARK 927      BINDING AFFINITY PREDICTED BY RF-SCORE:    0.00 PKD
ROOT
HETATM    1  C   UNL     1      -8.728   8.939  64.994  1.00  0.00    -0.200 C  
HETATM    2  C   UNL     1      -7.222   8.657  65.034  1.00  0.00    -0.084 C  
HETATM    3  C   UNL     1      -6.750   7.707  66.179  1.00  0.00    -0.053 C  
HETATM    4  C   UNL     1      -9.217  12.904  67.253  1.00  0.00    -0.208 C  
HETATM    5  C   UNL     1      -7.245   6.331  65.735  1.00  0.00    -0.074 C  
HETATM    6  C   UNL     1      -8.948  10.406  65.386  1.00  0.00    -0.183 C  
HETATM    7  C   UNL     1      -8.812   6.425  65.773  1.00  0.00    -0.111 C  
HETATM    8  C   UNL     1      -8.041  11.926  67.083  1.00  0.00    -0.172 C  
HETATM    9  C   UNL     1     -10.201  12.284  68.184  1.00  0.00    -0.212 A  
HETATM   10  C   UNL     1      -9.500   7.907  65.834  1.00  0.00    -0.000 C  
HETATM   11  C   UNL     1     -12.534  12.165  70.930  1.00  0.00    -0.374 A  
HETATM   12  C   UNL     1     -10.256  10.912  68.368  1.00  0.00    -0.178 A  
HETATM   13  N   UNL     1     -11.128  10.690  69.406  1.00  0.00    -0.241 NA 
HETATM   14  C   UNL     1     -10.045   8.595  67.159  1.00  0.00    -0.329 C  
HETATM   15  C   UNL     1     -12.874  13.505  71.175  1.00  0.00    -0.309 A  
HETATM   16  N   UNL     1      -8.451  10.555  66.735  1.00  0.00    -0.125 NA 
HETATM   17  C   UNL     1     -12.336  14.511  70.394  1.00  0.00    -0.400 A  
HETATM   18  C   UNL     1      -9.326   9.893  67.718  1.00  0.00    -0.140 C  
HETATM   19  C   UNL     1     -11.433  14.249  69.351  1.00  0.00    -0.337 A  
HETATM   20  C   UNL     1     -11.095  12.904  69.081  1.00  0.00    -0.245 A  
HETATM   21  H   UNL     1     -11.361   9.771  69.783  1.00  0.00     0.000 HD 
HETATM   22  C   UNL     1     -11.646  11.892  69.869  1.00  0.00    -0.256 A  
ENDROOT
BRANCH   3  23
HETATM   23  O   UNL     1      -7.291   7.934  67.530  1.00  0.00    -0.088 OA 
BRANCH  23  24
HETATM   24  C   UNL     1      -6.467   7.512  68.525  1.00  0.00    -0.045 C  
HETATM   25  O   UNL     1      -5.247   7.577  68.430  1.00  0.00    -0.023 OA 
BRANCH  24  26
HETATM   26  C   UNL     1      -7.053   6.966  69.809  1.00  0.00    -0.068 A  
HETATM   27  C   UNL     1      -6.496   6.154  70.792  1.00  0.00    -0.041 A  
HETATM   28  C   UNL     1      -9.229   6.621  70.873  1.00  0.00    -0.157 A  
HETATM   29  C   UNL     1      -7.289   5.512  71.779  1.00  0.00    -0.091 A  
HETATM   30  C   UNL     1      -8.394   7.294  69.978  1.00  0.00    -0.137 A  
HETATM   31  C   UNL     1      -8.691   5.685  71.775  1.00  0.00    -0.136 A  
BRANCH  28  32
HETATM   32  O   UNL     1     -10.577   6.886  70.851  1.00  0.00    -0.214 OA 
HETATM   33  C   UNL     1     -11.361   5.956  70.094  1.00  0.00    -0.161 C  
ENDBRANCH  28  32
BRANCH  31  34
HETATM   34  O   UNL     1      -9.415   4.908  72.637  1.00  0.00    -0.135 OA 
HETATM   35  C   UNL     1      -9.901   5.474  73.848  1.00  0.00    -0.178 C  
ENDBRANCH  31  34
BRANCH  29  36
HETATM   36  O   UNL     1      -6.526   4.727  72.620  1.00  0.00    -0.038 OA 
HETATM   37  C   UNL     1      -6.172   5.230  73.906  1.00  0.00    -0.057 C  
ENDBRANCH  29  36
ENDBRANCH  24  26
ENDBRANCH  23  24
ENDBRANCH   3  23
BRANCH   5  38
HETATM   38  O   UNL     1      -6.754   6.071  64.402  1.00  0.00    -0.040 OA 
HETATM   39  C   UNL     1      -7.356   5.004  63.687  1.00  0.00    -0.051 C  
ENDBRANCH   5  38
BRANCH   7  40
HETATM   40  C   UNL     1      -9.348   5.468  66.822  1.00  0.00    -0.132 C  
HETATM   41  O   UNL     1     -10.529   5.305  67.107  1.00  0.00    -0.223 OA 
BRANCH  40  42
HETATM   42  O   UNL     1      -8.313   4.851  67.446  1.00  0.00    -0.106 OA 
HETATM   43  C   UNL     1      -8.543   3.506  67.861  1.00  0.00    -0.099 C  
ENDBRANCH  40  42
ENDBRANCH   7  40
BRANCH  15  44
HETATM   44  O   UNL     1     -13.725  13.954  72.150  1.00  0.00    -0.433 OA 
HETATM   45  C   UNL     1     -13.475  15.245  72.686  1.00  0.00    -0.507 C  
ENDBRANCH  15  44
TORSDOF 10
ENDMDL
MODEL       51
REMARK 921   NORMALIZED FREE ENERGY PREDICTED BY IDOCK:   -4.36 KCAL/MOL
REMARK 922        TOTAL FREE ENERGY PREDICTED BY IDOCK:   -9.67 KCAL/MOL
REMARK 923 INTER-LIGAND FREE ENERGY PREDICTED BY IDOCK:   -8.36 KCAL/MOL
REMARK 924 INTRA-LIGAND FREE ENERGY PREDICTED BY IDOCK:   -1.31 KCAL/MOL
REMARK 927      BINDING AFFINITY PREDICTED BY RF-SCORE:    0.00 PKD
ROOT
HETATM    1  C   UNL     1     -11.659  11.070  66.676  1.00  0.00     0.377 C  
HETATM    2  C   UNL     1     -11.406  12.579  66.598  1.00  0.00    -0.389 C  
HETATM    3  C   UNL     1      -9.908  13.000  66.477  1.00  0.00    -0.263 C  
HETATM    4  C   UNL     1     -11.992  10.189  71.169  1.00  0.00    -0.480 C  
HETATM    5  C   UNL     1      -9.538  12.615  65.046  1.00  0.00     0.151 C  
HETATM    6  C   UNL     1     -12.153  10.743  68.091  1.00  0.00     0.503 C  
HETATM    7  C   UNL     1      -9.625  11.047  65.004  1.00  0.00    -0.291 C  
HETATM    8  C   UNL     1     -11.542  11.424  70.367  1.00  0.00    -0.172 C  
HETATM    9  C   UNL     1     -10.917   9.162  71.074  1.00  0.00    -0.375 A  
HETATM   10  C   UNL     1     -10.423  10.282  66.209  1.00  0.00    -0.214 C  
HETATM   11  C   UNL     1      -8.665   6.613  72.271  1.00  0.00    -0.132 A  
HETATM   12  C   UNL     1     -10.008   9.161  70.029  1.00  0.00    -0.199 A  
HETATM   13  N   UNL     1      -9.058   8.217  70.335  1.00  0.00    -0.145 NA 
HETATM   14  C   UNL     1      -9.724   9.592  67.458  1.00  0.00    -0.194 C  
HETATM   15  C   UNL     1      -9.216   6.186  73.490  1.00  0.00    -0.131 A  
HETATM   16  N   UNL     1     -11.092  11.115  68.999  1.00  0.00    -0.222 NA 
HETATM   17  C   UNL     1     -10.400   6.737  73.947  1.00  0.00    -0.397 A  
HETATM   18  C   UNL     1      -9.945  10.194  68.908  1.00  0.00    -0.199 C  
HETATM   19  C   UNL     1     -11.084   7.737  73.239  1.00  0.00    -0.190 A  
HETATM   20  C   UNL     1     -10.551   8.165  72.002  1.00  0.00    -0.334 A  
HETATM   21  H   UNL     1      -8.247   8.000  69.757  1.00  0.00     0.000 HD 
HETATM   22  C   UNL     1      -9.359   7.601  71.542  1.00  0.00    -0.136 A  
ENDROOT
BRANCH   3  23
HETATM   23  O   UNL     1      -8.932  12.334  67.357  1.00  0.00    -0.169 OA 
BRANCH  23  24
HETATM   24  C   UNL     1      -8.110  13.198  68.011  1.00  0.00    -0.157 C  
HETATM   25  O   UNL     1      -6.918  12.965  68.172  1.00  0.00    -0.081 OA 
BRANCH  24  26
HETATM   26  C   UNL     1      -8.658  14.506  68.540  1.00  0.00    -0.175 A  
HETATM   27  C   UNL     1      -9.864  14.801  69.168  1.00  0.00    -0.167 A  
HETATM   28  C   UNL     1      -8.262  16.913  68.347  1.00  0.00    -0.232 A  
HETATM   29  C   UNL     1     -10.321  16.135  69.333  1.00  0.00    -0.277 A  
HETATM   30  C   UNL     1      -7.822  15.588  68.285  1.00  0.00    -0.127 A  
HETATM   31  C   UNL     1      -9.544  17.209  68.846  1.00  0.00    -0.237 A  
BRANCH  28  32
HETATM   32  O   UNL     1      -7.426  17.911  67.910  1.00  0.00    -0.208 OA 
HETATM   33  C   UNL     1      -7.017  18.839  68.922  1.00  0.00    -0.308 C  
ENDBRANCH  28  32
BRANCH  31  34
HETATM   34  O   UNL     1     -10.114  18.452  68.879  1.00  0.00    -0.388 OA 
HETATM   35  C   UNL     1     -10.330  19.154  67.661  1.00  0.00    -0.430 C  
ENDBRANCH  31  34
BRANCH  29  36
HETATM   36  O   UNL     1     -11.559  16.181  69.943  1.00  0.00    -0.316 OA 
HETATM   37  C   UNL     1     -12.274  14.966  70.153  1.00  0.00    -0.336 C  
ENDBRANCH  29  36
ENDBRANCH  24  26
ENDBRANCH  23  24
ENDBRANCH   3  23
BRANCH   5  38
HETATM   38  O   UNL     1     -10.483  13.230  64.143  1.00  0.00    -0.414 OA 
HETATM   39  C   UNL     1     -11.183  12.373  63.256  1.00  0.00    -0.309 C  
ENDBRANCH   5  38
BRANCH   7  40
HETATM   40  C   UNL     1      -8.246  10.473  64.735  1.00  0.00    -0.100 C  
HETATM   41  O   UNL     1      -7.201  10.845  65.254  1.00  0.00     0.046 OA 
BRANCH  40  42
HETATM   42  O   UNL     1      -8.333   9.512  63.781  1.00  0.00    -0.151 OA 
HETATM   43  C   UNL     1      -8.607   9.966  62.456  1.00  0.00    -0.186 C  
ENDBRANCH  40  42
ENDBRANCH   7  40
BRANCH  15  44
HETATM   44  O   UNL     1      -8.690   5.233  74.321  1.00  0.00    -0.116 OA 
HETATM   45  C   UNL     1      -8.282   4.008  73.728  1.00  0.00    -0.088 C  
ENDBRANCH  15  44
TORSDOF 10
ENDMDL
MODEL       52
REMARK 921   NORMALIZED FREE ENERGY PREDICTED BY IDOCK:   -4.32 KCAL/MOL
REMARK 922        TOTAL FREE ENERGY PREDICTED BY IDOCK:   -9.60 KCAL/MOL
REMARK 923 INTER-LIGAND FREE ENERGY PREDICTED BY IDOCK:   -7.63 KCAL/MOL
REMARK 924 INTRA-LIGAND FREE ENERGY PREDICTED BY IDOCK:   -1.97 KCAL/MOL
REMARK 927      BINDING AFFINITY PREDICTED BY RF-SCORE:    0.00 PKD
ROOT
HETATM    1  C   UNL     1      -5.916   9.962  67.299  1.00  0.00    -0.051 C  
HETATM    2  C   UNL     1      -6.615  11.325  67.334  1.00  0.00    -0.081 C  
HETATM    3  C   UNL     1      -7.892  11.399  68.227  1.00  0.00    -0.132 C  
HETATM    4  C   UNL     1      -7.565   7.915  63.537  1.00  0.00    -0.130 C  
HETATM    5  C   UNL     1      -7.339  11.373  69.651  1.00  0.00     0.171 C  
HETATM    6  C   UNL     1      -6.110   9.362  65.900  1.00  0.00    -0.056 C  
HETATM    7  C   UNL     1      -6.691   9.951  69.816  1.00  0.00    -0.076 C  
HETATM    8  C   UNL     1      -7.963   9.188  64.305  1.00  0.00    -0.139 C  
HETATM    9  C   UNL     1      -8.004   6.738  64.337  1.00  0.00    -0.096 A  
HETATM   10  C   UNL     1      -6.383   9.078  68.468  1.00  0.00    -0.054 C  
HETATM   11  C   UNL     1      -9.474   3.497  64.918  1.00  0.00    -0.158 A  
HETATM   12  C   UNL     1      -8.206   6.828  65.704  1.00  0.00    -0.134 A  
HETATM   13  N   UNL     1      -8.775   5.641  66.098  1.00  0.00    -0.131 NA 
HETATM   14  C   UNL     1      -7.310   7.910  67.919  1.00  0.00    -0.092 C  
HETATM   15  C   UNL     1      -9.489   2.875  63.659  1.00  0.00    -0.106 A  
HETATM   16  N   UNL     1      -7.533   9.194  65.713  1.00  0.00    -0.090 NA 
HETATM   17  C   UNL     1      -8.974   3.530  62.556  1.00  0.00    -0.089 A  
HETATM   18  C   UNL     1      -8.068   8.098  66.538  1.00  0.00    -0.106 C  
HETATM   19  C   UNL     1      -8.437   4.825  62.635  1.00  0.00    -0.110 A  
HETATM   20  C   UNL     1      -8.399   5.456  63.899  1.00  0.00    -0.109 A  
HETATM   21  H   UNL     1      -9.054   5.417  67.052  1.00  0.00     0.000 HD 
HETATM   22  C   UNL     1      -8.914   4.788  65.011  1.00  0.00    -0.153 A  
ENDROOT
BRANCH   3  23
HETATM   23  O   UNL     1      -8.865  10.297  68.133  1.00  0.00    -0.121 OA 
BRANCH  23  24
HETATM   24  C   UNL     1     -10.146  10.714  67.959  1.00  0.00    -0.157 C  
HETATM   25  O   UNL     1     -10.724  10.610  66.882  1.00  0.00    -0.257 OA 
BRANCH  24  26
HETATM   26  C   UNL     1     -10.913  11.304  69.123  1.00  0.00    -0.292 A  
HETATM   27  C   UNL     1     -11.593  10.690  70.171  1.00  0.00    -0.414 A  
HETATM   28  C   UNL     1     -11.924  13.422  69.815  1.00  0.00    -0.330 A  
HETATM   29  C   UNL     1     -12.492  11.403  71.006  1.00  0.00    -0.383 A  
HETATM   30  C   UNL     1     -10.989  12.692  69.077  1.00  0.00    -0.240 A  
HETATM   31  C   UNL     1     -12.723  12.778  70.778  1.00  0.00    -0.136 A  
BRANCH  28  32
HETATM   32  O   UNL     1     -12.051  14.769  69.579  1.00  0.00    -0.307 OA 
HETATM   33  C   UNL     1     -11.319  15.253  68.446  1.00  0.00    -0.329 C  
ENDBRANCH  28  32
BRANCH  31  34
HETATM   34  O   UNL     1     -13.724  13.367  71.500  1.00  0.00    -0.230 OA 
HETATM   35  C   UNL     1     -13.400  14.110  72.668  1.00  0.00    -0.541 C  
ENDBRANCH  31  34
BRANCH  29  36
HETATM   36  O   UNL     1     -13.079  10.581  71.947  1.00  0.00    -0.457 OA 
HETATM   37  C   UNL     1     -13.569   9.304  71.543  1.00  0.00    -0.346 C  
ENDBRANCH  29  36
ENDBRANCH  24  26
ENDBRANCH  23  24
ENDBRANCH   3  23
BRANCH   5  38
HETATM   38  O   UNL     1      -6.362  12.428  69.787  1.00  0.00    -0.128 OA 
HETATM   39  C   UNL     1      -5.292  12.206  70.692  1.00  0.00    -0.152 C  
ENDBRANCH   5  38
BRANCH   7  40
HETATM   40  C   UNL     1      -7.446   9.174  70.879  1.00  0.00    -0.118 C  
HETATM   41  O   UNL     1      -8.569   9.433  71.294  1.00  0.00    -0.299 OA 
BRANCH  40  42
HETATM   42  O   UNL     1      -6.664   8.170  71.349  1.00  0.00    -0.048 OA 
HETATM   43  C   UNL     1      -7.280   6.887  71.447  1.00  0.00    -0.080 C  
ENDBRANCH  40  42
ENDBRANCH   7  40
BRANCH  15  44
HETATM   44  O   UNL     1      -9.979   1.625  63.385  1.00  0.00    -0.110 OA 
HETATM   45  C   UNL     1     -11.253   1.551  62.761  1.00  0.00    -0.237 C  
ENDBRANCH  15  44
TORSDOF 10
ENDMDL
MODEL       53
REMARK 921   NORMALIZED FREE ENERGY PREDICTED BY IDOCK:   -4.31 KCAL/MOL
REMARK 922        TOTAL FREE ENERGY PREDICTED BY IDOCK:   -9.58 KCAL/MOL
REMARK 923 INTER-LIGAND FREE ENERGY PREDICTED BY IDOCK:   -8.14 KCAL/MOL
REMARK 924 INTRA-LIGAND FREE ENERGY PREDICTED BY IDOCK:   -1.44 KCAL/MOL
REMARK 927      BINDING AFFINITY PREDICTED BY RF-SCORE:    0.00 PKD
ROOT
HETATM    1  C   UNL     1     -12.404  13.847  66.917  1.00  0.00    -0.331 C  
HETATM    2  C   UNL     1     -11.456  15.047  67.013  1.00  0.00    -0.288 C  
HETATM    3  C   UNL     1      -9.986  14.775  66.565  1.00  0.00    -0.271 C  
HETATM    4  C   UNL     1     -12.412  12.042  71.137  1.00  0.00    -0.353 C  
HETATM    5  C   UNL     1     -10.086  14.664  65.044  1.00  0.00    -0.282 C  
HETATM    6  C   UNL     1     -12.764  13.409  68.342  1.00  0.00     1.081 C  
HETATM    7  C   UNL     1     -10.940  13.372  64.781  1.00  0.00    -0.371 C  
HETATM    8  C   UNL     1     -11.545  13.113  70.450  1.00  0.00     0.099 C  
HETATM    9  C   UNL     1     -12.013  10.712  70.598  1.00  0.00    -0.466 A  
HETATM   10  C   UNL     1     -11.809  12.750  66.018  1.00  0.00    -0.495 C  
HETATM   11  C   UNL     1     -11.154   7.213  70.731  1.00  0.00    -0.296 A  
HETATM   12  C   UNL     1     -11.402  10.587  69.361  1.00  0.00    -0.269 A  
HETATM   13  N   UNL     1     -11.006   9.276  69.249  1.00  0.00    -0.402 NA 
HETATM   14  C   UNL     1     -11.354  11.516  66.909  1.00  0.00    -0.324 C  
HETATM   15  C   UNL     1     -11.644   6.766  71.969  1.00  0.00    -0.291 A  
HETATM   16  N   UNL     1     -11.529  13.014  68.980  1.00  0.00    -0.285 NA 
HETATM   17  C   UNL     1     -12.312   7.641  72.806  1.00  0.00     0.138 A  
HETATM   18  C   UNL     1     -11.017  11.742  68.442  1.00  0.00    -0.231 C  
HETATM   19  C   UNL     1     -12.517   8.989  72.474  1.00  0.00    -0.309 A  
HETATM   20  C   UNL     1     -12.045   9.448  71.224  1.00  0.00    -0.424 A  
HETATM   21  H   UNL     1     -10.511   8.885  68.448  1.00  0.00     0.000 HD 
HETATM   22  C   UNL     1     -11.377   8.560  70.379  1.00  0.00    -0.182 A  
ENDROOT
BRANCH   3  23
HETATM   23  O   UNL     1      -9.340  13.537  67.036  1.00  0.00    -0.230 OA 
BRANCH  23  24
HETATM   24  C   UNL     1      -8.062  13.719  67.463  1.00  0.00    -0.185 C  
HETATM   25  O   UNL     1      -7.516  14.816  67.432  1.00  0.00    -0.186 OA 
BRANCH  24  26
HETATM   26  C   UNL     1      -7.282  12.550  68.025  1.00  0.00    -0.105 A  
HETATM   27  C   UNL     1      -7.191  11.227  67.601  1.00  0.00    -0.092 A  
HETATM   28  C   UNL     1      -6.123  11.887  70.075  1.00  0.00    -0.153 A  
HETATM   29  C   UNL     1      -6.638  10.210  68.421  1.00  0.00    -0.053 A  
HETATM   30  C   UNL     1      -6.601  12.863  69.197  1.00  0.00    -0.104 A  
HETATM   31  C   UNL     1      -6.164  10.529  69.713  1.00  0.00    -0.074 A  
BRANCH  28  32
HETATM   32  O   UNL     1      -5.622  12.279  71.293  1.00  0.00    -0.368 OA 
HETATM   33  C   UNL     1      -5.333  13.678  71.402  1.00  0.00    -0.200 C  
ENDBRANCH  28  32
BRANCH  31  34
HETATM   34  O   UNL     1      -5.804   9.483  70.518  1.00  0.00    -0.044 OA 
HETATM   35  C   UNL     1      -6.778   8.884  71.363  1.00  0.00    -0.085 C  
ENDBRANCH  31  34
BRANCH  29  36
HETATM   36  O   UNL     1      -6.691   8.973  67.810  1.00  0.00    -0.064 OA 
HETATM   37  C   UNL     1      -7.960   8.353  67.610  1.00  0.00    -0.110 C  
ENDBRANCH  29  36
ENDBRANCH  24  26
ENDBRANCH  23  24
ENDBRANCH   3  23
BRANCH   5  38
HETATM   38  O   UNL     1     -10.734  15.850  64.536  1.00  0.00    -0.506 OA 
HETATM   39  C   UNL     1     -11.976  15.676  63.874  1.00  0.00     0.264 C  
ENDBRANCH   5  38
BRANCH   7  40
HETATM   40  C   UNL     1     -10.086  12.341  64.065  1.00  0.00    -0.325 C  
HETATM   41  O   UNL     1     -10.056  12.150  62.856  1.00  0.00    -0.205 OA 
BRANCH  40  42
HETATM   42  O   UNL     1      -9.393  11.614  64.977  1.00  0.00    -0.163 OA 
HETATM   43  C   UNL     1      -8.928  10.338  64.540  1.00  0.00    -0.219 C  
ENDBRANCH  40  42
ENDBRANCH   7  40
BRANCH  15  44
HETATM   44  O   UNL     1     -11.531   5.495  72.468  1.00  0.00    -0.283 OA 
HETATM   45  C   UNL     1     -10.501   4.677  71.932  1.00  0.00    -0.102 C  
ENDBRANCH  15  44
TORSDOF 10
ENDMDL
MODEL       54
REMARK 921   NORMALIZED FREE ENERGY PREDICTED BY IDOCK:   -4.30 KCAL/MOL
REMARK 922        TOTAL FREE ENERGY PREDICTED BY IDOCK:   -9.57 KCAL/MOL
REMARK 923 INTER-LIGAND FREE ENERGY PREDICTED BY IDOCK:   -7.25 KCAL/MOL
REMARK 924 INTRA-LIGAND FREE ENERGY PREDICTED BY IDOCK:   -2.32 KCAL/MOL
REMARK 927      BINDING AFFINITY PREDICTED BY RF-SCORE:    0.00 PKD
ROOT
HETATM    1  C   UNL     1     -10.592   5.544  67.527  1.00  0.00    -0.252 C  
HETATM    2  C   UNL     1      -9.235   5.017  67.048  1.00  0.00    -0.122 C  
HETATM    3  C   UNL     1      -8.078   5.103  68.092  1.00  0.00    -0.094 C  
HETATM    4  C   UNL     1     -10.754   9.868  65.998  1.00  0.00     0.138 C  
HETATM    5  C   UNL     1      -8.421   4.011  69.104  1.00  0.00    -0.077 C  
HETATM    6  C   UNL     1     -10.900   6.835  66.757  1.00  0.00    -0.226 C  
HETATM    7  C   UNL     1      -9.753   4.486  69.788  1.00  0.00    -0.285 C  
HETATM    8  C   UNL     1      -9.630   8.819  66.076  1.00  0.00    -0.226 C  
HETATM    9  C   UNL     1     -11.007  10.375  67.376  1.00  0.00    -0.335 A  
HETATM   10  C   UNL     1     -10.622   5.664  69.060  1.00  0.00    -0.316 C  
HETATM   11  C   UNL     1     -11.632  12.843  69.929  1.00  0.00    -0.246 A  
HETATM   12  C   UNL     1     -10.674   9.627  68.493  1.00  0.00    -0.200 A  
HETATM   13  N   UNL     1     -10.864  10.441  69.583  1.00  0.00    -0.259 NA 
HETATM   14  C   UNL     1     -10.589   7.197  69.477  1.00  0.00    -0.247 C  
HETATM   15  C   UNL     1     -12.086  13.975  69.234  1.00  0.00    -0.338 A  
HETATM   16  N   UNL     1      -9.856   7.777  67.092  1.00  0.00    -0.185 NA 
HETATM   17  C   UNL     1     -12.221  13.937  67.859  1.00  0.00    -0.194 A  
HETATM   18  C   UNL     1      -9.983   8.267  68.475  1.00  0.00    -0.190 C  
HETATM   19  C   UNL     1     -11.904  12.796  67.105  1.00  0.00    -0.415 A  
HETATM   20  C   UNL     1     -11.463  11.643  67.792  1.00  0.00    -0.373 A  
HETATM   21  H   UNL     1     -10.684  10.171  70.549  1.00  0.00     0.000 HD 
HETATM   22  C   UNL     1     -11.335  11.685  69.181  1.00  0.00    -0.283 A  
ENDROOT
BRANCH   3  23
HETATM   23  O   UNL     1      -7.932   6.354  68.857  1.00  0.00    -0.107 OA 
BRANCH  23  24
HETATM   24  C   UNL     1      -6.651   6.806  68.922  1.00  0.00    -0.051 C  
HETATM   25  O   UNL     1      -5.692   6.042  68.938  1.00  0.00    -0.011 OA 
BRANCH  24  26
HETATM   26  C   UNL     1      -6.377   8.294  68.949  1.00  0.00    -0.044 A  
HETATM   27  C   UNL     1      -6.188   9.167  70.016  1.00  0.00    -0.038 A  
HETATM   28  C   UNL     1      -6.518  10.247  67.483  1.00  0.00    -0.066 A  
HETATM   29  C   UNL     1      -6.229  10.576  69.854  1.00  0.00    -0.090 A  
HETATM   30  C   UNL     1      -6.385   8.872  67.684  1.00  0.00    -0.056 A  
HETATM   31  C   UNL     1      -6.475  11.129  68.578  1.00  0.00    -0.058 A  
BRANCH  28  32
HETATM   32  O   UNL     1      -6.695  10.718  66.204  1.00  0.00    -0.124 OA 
HETATM   33  C   UNL     1      -6.197   9.857  65.172  1.00  0.00    -0.100 C  
ENDBRANCH  28  32
BRANCH  31  34
HETATM   34  O   UNL     1      -6.675  12.481  68.516  1.00  0.00    -0.067 OA 
HETATM   35  C   UNL     1      -5.573  13.339  68.248  1.00  0.00    -0.095 C  
ENDBRANCH  31  34
BRANCH  29  36
HETATM   36  O   UNL     1      -6.057  11.236  71.055  1.00  0.00    -0.362 OA 
HETATM   37  C   UNL     1      -5.208  10.662  72.046  1.00  0.00     0.125 C  
ENDBRANCH  29  36
ENDBRANCH  24  26
ENDBRANCH  23  24
ENDBRANCH   3  23
BRANCH   5  38
HETATM   38  O   UNL     1      -8.595   2.764  68.396  1.00  0.00    -0.069 OA 
HETATM   39  C   UNL     1      -7.823   1.657  68.836  1.00  0.00    -0.045 C  
ENDBRANCH   5  38
BRANCH   7  40
HETATM   40  C   UNL     1      -9.497   4.747  71.261  1.00  0.00    -0.156 C  
HETATM   41  O   UNL     1      -8.779   5.628  71.718  1.00  0.00    -0.134 OA 
BRANCH  40  42
HETATM   42  O   UNL     1     -10.144   3.816  72.006  1.00  0.00    -0.176 OA 
HETATM   43  C   UNL     1      -9.349   2.734  72.487  1.00  0.00    -0.099 C  
ENDBRANCH  40  42
ENDBRANCH   7  40
BRANCH  15  44
HETATM   44  O   UNL     1     -12.432  15.177  69.794  1.00  0.00    -0.271 OA 
HETATM   45  C   UNL     1     -13.252  15.141  70.953  1.00  0.00    -0.433 C  
ENDBRANCH  15  44
TORSDOF 10
ENDMDL
MODEL       55
REMARK 921   NORMALIZED FREE ENERGY PREDICTED BY IDOCK:   -4.30 KCAL/MOL
REMARK 922        TOTAL FREE ENERGY PREDICTED BY IDOCK:   -9.56 KCAL/MOL
REMARK 923 INTER-LIGAND FREE ENERGY PREDICTED BY IDOCK:   -7.42 KCAL/MOL
REMARK 924 INTRA-LIGAND FREE ENERGY PREDICTED BY IDOCK:   -2.15 KCAL/MOL
REMARK 927      BINDING AFFINITY PREDICTED BY RF-SCORE:    0.00 PKD
ROOT
HETATM    1  C   UNL     1      -5.776   9.953  67.319  1.00  0.00    -0.046 C  
HETATM    2  C   UNL     1      -6.295   8.831  68.224  1.00  0.00    -0.055 C  
HETATM    3  C   UNL     1      -7.583   8.109  67.720  1.00  0.00    -0.098 C  
HETATM    4  C   UNL     1      -7.536  13.792  69.118  1.00  0.00     0.103 C  
HETATM    5  C   UNL     1      -7.090   7.267  66.545  1.00  0.00    -0.078 C  
HETATM    6  C   UNL     1      -5.994  11.288  68.044  1.00  0.00    -0.046 C  
HETATM    7  C   UNL     1      -6.636   8.304  65.456  1.00  0.00    -0.049 C  
HETATM    8  C   UNL     1      -7.796  12.295  69.368  1.00  0.00     0.662 C  
HETATM    9  C   UNL     1      -8.151  14.154  67.811  1.00  0.00    -0.170 A  
HETATM   10  C   UNL     1      -6.394   9.855  65.914  1.00  0.00    -0.085 C  
HETATM   11  C   UNL     1     -10.044  16.164  65.492  1.00  0.00    -0.308 A  
HETATM   12  C   UNL     1      -8.390  13.201  66.835  1.00  0.00    -0.008 A  
HETATM   13  N   UNL     1      -9.119  13.820  65.849  1.00  0.00    -0.387 NA 
HETATM   14  C   UNL     1      -7.443  11.031  65.707  1.00  0.00     0.073 C  
HETATM   15  C   UNL     1     -10.093  17.440  66.074  1.00  0.00    -0.262 A  
HETATM   16  N   UNL     1      -7.419  11.428  68.238  1.00  0.00    -0.094 NA 
HETATM   17  C   UNL     1      -9.459  17.677  67.280  1.00  0.00    -0.257 A  
HETATM   18  C   UNL     1      -8.120  11.706  66.972  1.00  0.00    -0.164 C  
HETATM   19  C   UNL     1      -8.764  16.673  67.972  1.00  0.00    -0.194 A  
HETATM   20  C   UNL     1      -8.691  15.387  67.389  1.00  0.00    -0.194 A  
HETATM   21  H   UNL     1      -9.458  13.364  65.003  1.00  0.00     0.000 HD 
HETATM   22  C   UNL     1      -9.327  15.155  66.168  1.00  0.00    -0.311 A  
ENDROOT
BRANCH   3  23
HETATM   23  O   UNL     1      -8.685   8.942  67.208  1.00  0.00    -0.120 OA 
BRANCH  23  24
HETATM   24  C   UNL     1      -9.917   8.510  67.588  1.00  0.00    -0.198 C  
HETATM   25  O   UNL     1     -10.532   7.659  66.955  1.00  0.00    -0.315 OA 
BRANCH  24  26
HETATM   26  C   UNL     1     -10.556   9.063  68.843  1.00  0.00    -0.203 A  
HETATM   27  C   UNL     1     -10.892   8.444  70.044  1.00  0.00    -0.225 A  
HETATM   28  C   UNL     1     -11.825  11.017  69.590  1.00  0.00    -0.342 A  
HETATM   29  C   UNL     1     -11.745   9.060  70.996  1.00  0.00    -0.296 A  
HETATM   30  C   UNL     1     -10.916  10.402  68.726  1.00  0.00    -0.287 A  
HETATM   31  C   UNL     1     -12.285  10.338  70.733  1.00  0.00    -0.350 A  
BRANCH  28  32
HETATM   32  O   UNL     1     -12.262  12.287  69.300  1.00  0.00    -0.198 OA 
HETATM   33  C   UNL     1     -11.866  12.780  68.013  1.00  0.00    -0.336 C  
ENDBRANCH  28  32
BRANCH  31  34
HETATM   34  O   UNL     1     -13.233  10.803  71.603  1.00  0.00    -0.413 OA 
HETATM   35  C   UNL     1     -13.154  12.143  72.072  1.00  0.00    -0.357 C  
ENDBRANCH  31  34
BRANCH  29  36
HETATM   36  O   UNL     1     -11.970   8.244  72.087  1.00  0.00    -0.323 OA 
HETATM   37  C   UNL     1     -12.188   6.850  71.877  1.00  0.00    -0.332 C  
ENDBRANCH  29  36
ENDBRANCH  24  26
ENDBRANCH  23  24
ENDBRANCH   3  23
BRANCH   5  38
HETATM   38  O   UNL     1      -5.992   6.444  66.995  1.00  0.00    -0.022 OA 
HETATM   39  C   UNL     1      -5.271   5.728  66.004  1.00  0.00    -0.009 C  
ENDBRANCH   5  38
BRANCH   7  40
HETATM   40  C   UNL     1      -7.522   8.169  64.231  1.00  0.00    -0.101 C  
HETATM   41  O   UNL     1      -8.630   7.646  64.202  1.00  0.00     0.145 OA 
BRANCH  40  42
HETATM   42  O   UNL     1      -6.877   8.667  63.147  1.00  0.00    -0.090 OA 
HETATM   43  C   UNL     1      -5.983   7.775  62.484  1.00  0.00    -0.068 C  
ENDBRANCH  40  42
ENDBRANCH   7  40
BRANCH  15  44
HETATM   44  O   UNL     1     -10.729  18.538  65.556  1.00  0.00    -0.586 OA 
HETATM   45  C   UNL     1     -10.752  19.711  66.355  1.00  0.00    -0.424 C  
ENDBRANCH  15  44
TORSDOF 10
ENDMDL
MODEL       56
REMARK 921   NORMALIZED FREE ENERGY PREDICTED BY IDOCK:   -4.28 KCAL/MOL
REMARK 922        TOTAL FREE ENERGY PREDICTED BY IDOCK:   -9.54 KCAL/MOL
REMARK 923 INTER-LIGAND FREE ENERGY PREDICTED BY IDOCK:   -8.29 KCAL/MOL
REMARK 924 INTRA-LIGAND FREE ENERGY PREDICTED BY IDOCK:   -1.25 KCAL/MOL
REMARK 927      BINDING AFFINITY PREDICTED BY RF-SCORE:    0.00 PKD
ROOT
HETATM    1  C   UNL     1     -11.498  10.661  66.524  1.00  0.00     0.577 C  
HETATM    2  C   UNL     1     -11.515  12.181  66.336  1.00  0.00    -0.430 C  
HETATM    3  C   UNL     1     -10.116  12.848  66.151  1.00  0.00    -0.276 C  
HETATM    4  C   UNL     1     -11.619  10.060  71.073  1.00  0.00    -0.476 C  
HETATM    5  C   UNL     1      -9.701  12.432  64.741  1.00  0.00     0.025 C  
HETATM    6  C   UNL     1     -11.911  10.355  67.970  1.00  0.00     0.594 C  
HETATM    7  C   UNL     1      -9.511  10.874  64.810  1.00  0.00    -0.279 C  
HETATM    8  C   UNL     1     -11.403  11.294  70.178  1.00  0.00    -0.164 C  
HETATM    9  C   UNL     1     -10.382   9.233  71.024  1.00  0.00    -0.388 A  
HETATM   10  C   UNL     1     -10.148  10.069  66.083  1.00  0.00    -0.317 C  
HETATM   11  C   UNL     1      -7.703   7.209  72.339  1.00  0.00    -0.094 A  
HETATM   12  C   UNL     1      -9.499   9.316  69.960  1.00  0.00    -0.211 A  
HETATM   13  N   UNL     1      -8.394   8.577  70.307  1.00  0.00    -0.119 NA 
HETATM   14  C   UNL     1      -9.325   9.604  67.359  1.00  0.00    -0.155 C  
HETATM   15  C   UNL     1      -8.157   6.781  73.597  1.00  0.00    -0.101 A  
HETATM   16  N   UNL     1     -10.921  10.971  68.824  1.00  0.00    -0.203 NA 
HETATM   17  C   UNL     1      -9.413   7.148  74.043  1.00  0.00    -0.303 A  
HETATM   18  C   UNL     1      -9.632  10.260  68.770  1.00  0.00    -0.175 C  
HETATM   19  C   UNL     1     -10.271   7.959  73.284  1.00  0.00    -0.297 A  
HETATM   20  C   UNL     1      -9.835   8.384  72.009  1.00  0.00    -0.354 A  
HETATM   21  H   UNL     1      -7.564   8.464  69.726  1.00  0.00     0.000 HD 
HETATM   22  C   UNL     1      -8.568   8.005  71.561  1.00  0.00    -0.128 A  
ENDROOT
BRANCH   3  23
HETATM   23  O   UNL     1      -9.028  12.428  67.052  1.00  0.00    -0.196 OA 
BRANCH  23  24
HETATM   24  C   UNL     1      -8.211  13.446  67.430  1.00  0.00    -0.183 C  
HETATM   25  O   UNL     1      -7.049  13.254  67.770  1.00  0.00    -0.116 OA 
BRANCH  24  26
HETATM   26  C   UNL     1      -8.721  14.870  67.410  1.00  0.00    -0.208 A  
HETATM   27  C   UNL     1      -8.377  15.951  66.603  1.00  0.00    -0.328 A  
HETATM   28  C   UNL     1      -9.968  16.429  68.825  1.00  0.00    -0.246 A  
HETATM   29  C   UNL     1      -8.755  17.281  66.923  1.00  0.00    -0.240 A  
HETATM   30  C   UNL     1      -9.640  15.133  68.421  1.00  0.00    -0.212 A  
HETATM   31  C   UNL     1      -9.499  17.537  68.096  1.00  0.00    -0.291 A  
BRANCH  28  32
HETATM   32  O   UNL     1     -10.746  16.599  69.945  1.00  0.00    -0.309 OA 
HETATM   33  C   UNL     1     -11.625  15.505  70.237  1.00  0.00    -0.335 C  
ENDBRANCH  28  32
BRANCH  31  34
HETATM   34  O   UNL     1      -9.683  18.848  68.440  1.00  0.00    -0.335 OA 
HETATM   35  C   UNL     1     -10.696  19.605  67.790  1.00  0.00    -0.322 C  
ENDBRANCH  31  34
BRANCH  29  36
HETATM   36  O   UNL     1      -8.267  18.188  66.003  1.00  0.00    -0.482 OA 
HETATM   37  C   UNL     1      -6.870  18.203  65.718  1.00  0.00    -0.270 C  
ENDBRANCH  29  36
ENDBRANCH  24  26
ENDBRANCH  23  24
ENDBRANCH   3  23
BRANCH   5  38
HETATM   38  O   UNL     1     -10.749  12.806  63.821  1.00  0.00    -0.413 OA 
HETATM   39  C   UNL     1     -11.336  11.768  63.052  1.00  0.00     0.083 C  
ENDBRANCH   5  38
BRANCH   7  40
HETATM   40  C   UNL     1      -8.056  10.532  64.548  1.00  0.00    -0.052 C  
HETATM   41  O   UNL     1      -7.151  10.570  65.372  1.00  0.00    -0.133 OA 
BRANCH  40  42
HETATM   42  O   UNL     1      -7.890  10.226  63.236  1.00  0.00    -0.151 OA 
HETATM   43  C   UNL     1      -7.510   8.882  62.948  1.00  0.00    -0.106 C  
ENDBRANCH  40  42
ENDBRANCH   7  40
BRANCH  15  44
HETATM   44  O   UNL     1      -7.461   5.997  74.479  1.00  0.00    -0.094 OA 
HETATM   45  C   UNL     1      -7.206   4.654  74.092  1.00  0.00    -0.077 C  
ENDBRANCH  15  44
TORSDOF 10
ENDMDL
MODEL       57
REMARK 921   NORMALIZED FREE ENERGY PREDICTED BY IDOCK:   -4.27 KCAL/MOL
REMARK 922        TOTAL FREE ENERGY PREDICTED BY IDOCK:   -9.52 KCAL/MOL
REMARK 923 INTER-LIGAND FREE ENERGY PREDICTED BY IDOCK:   -7.38 KCAL/MOL
REMARK 924 INTRA-LIGAND FREE ENERGY PREDICTED BY IDOCK:   -2.14 KCAL/MOL
REMARK 927      BINDING AFFINITY PREDICTED BY RF-SCORE:    0.00 PKD
ROOT
HETATM    1  C   UNL     1     -11.150   9.522  68.146  1.00  0.00    -0.052 C  
HETATM    2  C   UNL     1     -10.563   8.399  67.285  1.00  0.00    -0.328 C  
HETATM    3  C   UNL     1      -9.113   7.958  67.658  1.00  0.00    -0.133 C  
HETATM    4  C   UNL     1     -10.342  13.353  65.750  1.00  0.00    -0.296 C  
HETATM    5  C   UNL     1      -9.293   7.193  68.968  1.00  0.00    -0.140 C  
HETATM    6  C   UNL     1     -11.266  10.779  67.274  1.00  0.00    -0.197 C  
HETATM    7  C   UNL     1      -9.777   8.266  70.009  1.00  0.00    -0.176 C  
HETATM    8  C   UNL     1      -9.857  11.899  65.608  1.00  0.00    -0.241 C  
HETATM    9  C   UNL     1      -9.635  13.962  66.911  1.00  0.00    -0.271 A  
HETATM   10  C   UNL     1     -10.346   9.692  69.447  1.00  0.00    -0.226 C  
HETATM   11  C   UNL     1      -7.840  16.511  68.723  1.00  0.00    -0.235 A  
HETATM   12  C   UNL     1      -9.108  13.182  67.927  1.00  0.00    -0.207 A  
HETATM   13  N   UNL     1      -8.377  14.024  68.730  1.00  0.00    -0.309 NA 
HETATM   14  C   UNL     1      -9.503  11.038  69.383  1.00  0.00     0.123 C  
HETATM   15  C   UNL     1      -8.093  17.701  68.021  1.00  0.00    -0.243 A  
HETATM   16  N   UNL     1      -9.925  11.123  66.858  1.00  0.00    -0.193 NA 
HETATM   17  C   UNL     1      -8.911  17.687  66.906  1.00  0.00    -0.260 A  
HETATM   18  C   UNL     1      -9.126  11.658  67.973  1.00  0.00    -0.177 C  
HETATM   19  C   UNL     1      -9.502  16.510  66.423  1.00  0.00    -0.314 A  
HETATM   20  C   UNL     1      -9.271  15.307  67.130  1.00  0.00    -0.223 A  
HETATM   21  H   UNL     1      -7.856  13.732  69.556  1.00  0.00     0.000 HD 
HETATM   22  C   UNL     1      -8.451  15.328  68.259  1.00  0.00    -0.154 A  
ENDROOT
BRANCH   3  23
HETATM   23  O   UNL     1      -8.118   9.013  67.920  1.00  0.00    -0.105 OA 
BRANCH  23  24
HETATM   24  C   UNL     1      -6.929   8.808  67.293  1.00  0.00    -0.075 C  
HETATM   25  O   UNL     1      -5.858   9.062  67.832  1.00  0.00    -0.042 OA 
BRANCH  24  26
HETATM   26  C   UNL     1      -6.903   8.224  65.897  1.00  0.00    -0.064 A  
HETATM   27  C   UNL     1      -7.370   8.731  64.688  1.00  0.00    -0.098 A  
HETATM   28  C   UNL     1      -6.580   6.073  64.777  1.00  0.00    -0.038 A  
HETATM   29  C   UNL     1      -7.515   7.917  63.535  1.00  0.00    -0.118 A  
HETATM   30  C   UNL     1      -6.378   6.936  65.856  1.00  0.00    -0.050 A  
HETATM   31  C   UNL     1      -7.188   6.544  63.599  1.00  0.00    -0.064 A  
BRANCH  28  32
HETATM   32  O   UNL     1      -6.180   4.763  64.890  1.00  0.00    -0.031 OA 
HETATM   33  C   UNL     1      -6.916   3.991  65.848  1.00  0.00    -0.065 C  
ENDBRANCH  28  32
BRANCH  31  34
HETATM   34  O   UNL     1      -7.511   5.778  62.513  1.00  0.00    -0.049 OA 
HETATM   35  C   UNL     1      -8.741   5.063  62.503  1.00  0.00    -0.115 C  
ENDBRANCH  31  34
BRANCH  29  36
HETATM   36  O   UNL     1      -8.033   8.625  62.469  1.00  0.00    -0.135 OA 
HETATM   37  C   UNL     1      -8.962   9.677  62.721  1.00  0.00    -0.252 C  
ENDBRANCH  29  36
ENDBRANCH  24  26
ENDBRANCH  23  24
ENDBRANCH   3  23
BRANCH   5  38
HETATM   38  O   UNL     1     -10.278   6.157  68.766  1.00  0.00    -0.156 OA 
HETATM   39  C   UNL     1     -11.072   5.792  69.884  1.00  0.00    -0.257 C  
ENDBRANCH   5  38
BRANCH   7  40
HETATM   40  C   UNL     1      -8.730   8.421  71.096  1.00  0.00    -0.159 C  
HETATM   41  O   UNL     1      -7.537   8.166  70.984  1.00  0.00    -0.074 OA 
BRANCH  40  42
HETATM   42  O   UNL     1      -9.323   8.836  72.243  1.00  0.00    -0.314 OA 
HETATM   43  C   UNL     1      -9.559   7.831  73.227  1.00  0.00    -0.283 C  
ENDBRANCH  40  42
ENDBRANCH   7  40
BRANCH  15  44
HETATM   44  O   UNL     1      -7.599  18.940  68.333  1.00  0.00    -0.284 OA 
HETATM   45  C   UNL     1      -6.580  19.001  69.320  1.00  0.00    -0.302 C  
ENDBRANCH  15  44
TORSDOF 10
ENDMDL
MODEL       58
REMARK 921   NORMALIZED FREE ENERGY PREDICTED BY IDOCK:   -4.26 KCAL/MOL
REMARK 922        TOTAL FREE ENERGY PREDICTED BY IDOCK:   -9.51 KCAL/MOL
REMARK 923 INTER-LIGAND FREE ENERGY PREDICTED BY IDOCK:   -7.44 KCAL/MOL
REMARK 924 INTRA-LIGAND FREE ENERGY PREDICTED BY IDOCK:   -2.07 KCAL/MOL
REMARK 927      BINDING AFFINITY PREDICTED BY RF-SCORE:    0.00 PKD
ROOT
HETATM    1  C   UNL     1      -5.500  10.153  67.088  1.00  0.00    -0.041 C  
HETATM    2  C   UNL     1      -6.251  11.457  67.380  1.00  0.00    -0.078 C  
HETATM    3  C   UNL     1      -7.331  11.370  68.502  1.00  0.00    -0.105 C  
HETATM    4  C   UNL     1      -7.739   8.303  63.535  1.00  0.00    -0.142 C  
HETATM    5  C   UNL     1      -6.510  11.269  69.787  1.00  0.00    -0.140 C  
HETATM    6  C   UNL     1      -5.930   9.655  65.702  1.00  0.00    -0.061 C  
HETATM    7  C   UNL     1      -5.768   9.887  69.694  1.00  0.00    -0.037 C  
HETATM    8  C   UNL     1      -8.048   9.480  64.478  1.00  0.00    -0.142 C  
HETATM    9  C   UNL     1      -7.951   7.038  64.292  1.00  0.00    -0.091 A  
HETATM   10  C   UNL     1      -5.683   9.148  68.238  1.00  0.00    -0.038 C  
HETATM   11  C   UNL     1      -9.104   3.666  64.840  1.00  0.00    -0.136 A  
HETATM   12  C   UNL     1      -7.887   7.004  65.675  1.00  0.00    -0.112 A  
HETATM   13  N   UNL     1      -8.303   5.752  66.058  1.00  0.00    -0.121 NA 
HETATM   14  C   UNL     1      -6.636   7.966  67.769  1.00  0.00    -0.060 C  
HETATM   15  C   UNL     1      -9.331   3.147  63.556  1.00  0.00    -0.096 A  
HETATM   16  N   UNL     1      -7.352   9.404  65.773  1.00  0.00    -0.094 NA 
HETATM   17  C   UNL     1      -9.076   3.923  62.440  1.00  0.00    -0.098 A  
HETATM   18  C   UNL     1      -7.657   8.210  66.581  1.00  0.00    -0.093 C  
HETATM   19  C   UNL     1      -8.604   5.241  62.534  1.00  0.00    -0.100 A  
HETATM   20  C   UNL     1      -8.354   5.771  63.820  1.00  0.00    -0.019 A  
HETATM   21  H   UNL     1      -8.379   5.435  67.024  1.00  0.00     0.000 HD 
HETATM   22  C   UNL     1      -8.607   4.981  64.944  1.00  0.00    -0.150 A  
ENDROOT
BRANCH   3  23
HETATM   23  O   UNL     1      -8.243  10.213  68.493  1.00  0.00    -0.104 OA 
BRANCH  23  24
HETATM   24  C   UNL     1      -9.547  10.546  68.686  1.00  0.00    -0.171 C  
HETATM   25  O   UNL     1     -10.208  10.080  69.608  1.00  0.00    -0.211 OA 
BRANCH  24  26
HETATM   26  C   UNL     1     -10.216  11.541  67.762  1.00  0.00    -0.200 A  
HETATM   27  C   UNL     1     -10.165  11.676  66.378  1.00  0.00    -0.256 A  
HETATM   28  C   UNL     1     -11.340  13.712  67.852  1.00  0.00    -0.295 A  
HETATM   29  C   UNL     1     -10.628  12.844  65.718  1.00  0.00    -0.275 A  
HETATM   30  C   UNL     1     -10.947  12.509  68.443  1.00  0.00    -0.277 A  
HETATM   31  C   UNL     1     -11.156  13.915  66.472  1.00  0.00    -0.308 A  
BRANCH  28  32
HETATM   32  O   UNL     1     -11.902  14.687  68.640  1.00  0.00    -0.319 OA 
HETATM   33  C   UNL     1     -12.232  14.268  69.970  1.00  0.00    -0.359 C  
ENDBRANCH  28  32
BRANCH  31  34
HETATM   34  O   UNL     1     -11.424  15.076  65.799  1.00  0.00    -0.327 OA 
HETATM   35  C   UNL     1     -10.381  16.020  65.591  1.00  0.00    -0.392 C  
ENDBRANCH  31  34
BRANCH  29  36
HETATM   36  O   UNL     1     -10.439  12.770  64.352  1.00  0.00    -0.346 OA 
HETATM   37  C   UNL     1     -11.555  12.487  63.511  1.00  0.00    -0.508 C  
ENDBRANCH  29  36
ENDBRANCH  24  26
ENDBRANCH  23  24
ENDBRANCH   3  23
BRANCH   5  38
HETATM   38  O   UNL     1      -5.584  12.375  69.832  1.00  0.00    -0.089 OA 
HETATM   39  C   UNL     1      -6.031  13.569  70.456  1.00  0.00    -0.133 C  
ENDBRANCH   5  38
BRANCH   7  40
HETATM   40  C   UNL     1      -6.259   8.977  70.805  1.00  0.00    -0.048 C  
HETATM   41  O   UNL     1      -5.786   7.885  71.098  1.00  0.00    -0.034 OA 
BRANCH  40  42
HETATM   42  O   UNL     1      -7.347   9.529  71.398  1.00  0.00    -0.330 OA 
HETATM   43  C   UNL     1      -8.366   8.620  71.810  1.00  0.00    -0.139 C  
ENDBRANCH  40  42
ENDBRANCH   7  40
BRANCH  15  44
HETATM   44  O   UNL     1      -9.798   1.892  63.265  1.00  0.00    -0.102 OA 
HETATM   45  C   UNL     1     -11.170   1.775  62.920  1.00  0.00    -0.259 C  
ENDBRANCH  15  44
TORSDOF 10
ENDMDL
MODEL       59
REMARK 921   NORMALIZED FREE ENERGY PREDICTED BY IDOCK:   -4.24 KCAL/MOL
REMARK 922        TOTAL FREE ENERGY PREDICTED BY IDOCK:   -9.48 KCAL/MOL
REMARK 923 INTER-LIGAND FREE ENERGY PREDICTED BY IDOCK:   -7.57 KCAL/MOL
REMARK 924 INTRA-LIGAND FREE ENERGY PREDICTED BY IDOCK:   -1.91 KCAL/MOL
REMARK 927      BINDING AFFINITY PREDICTED BY RF-SCORE:    0.00 PKD
ROOT
HETATM    1  C   UNL     1      -9.534   7.737  72.409  1.00  0.00    -0.234 C  
HETATM    2  C   UNL     1     -10.198   6.386  72.122  1.00  0.00    -0.207 C  
HETATM    3  C   UNL     1      -9.705   5.659  70.832  1.00  0.00    -0.173 C  
HETATM    4  C   UNL     1     -12.420  10.840  70.646  1.00  0.00    -0.461 C  
HETATM    5  C   UNL     1      -8.307   5.169  71.206  1.00  0.00    -0.118 C  
HETATM    6  C   UNL     1     -10.582   8.838  72.199  1.00  0.00    -0.316 C  
HETATM    7  C   UNL     1      -7.453   6.472  71.407  1.00  0.00    -0.089 C  
HETATM    8  C   UNL     1     -12.331   9.307  70.545  1.00  0.00     0.121 C  
HETATM    9  C   UNL     1     -11.331  11.421  69.814  1.00  0.00    -0.332 A  
HETATM   10  C   UNL     1      -8.238   7.894  71.594  1.00  0.00    -0.132 C  
HETATM   11  C   UNL     1      -9.831  13.683  67.440  1.00  0.00    -0.234 A  
HETATM   12  C   UNL     1     -10.191  10.695  69.506  1.00  0.00    -0.158 A  
HETATM   13  N   UNL     1      -9.488  11.438  68.590  1.00  0.00    -0.271 NA 
HETATM   14  C   UNL     1      -8.459   8.961  70.437  1.00  0.00    -0.181 C  
HETATM   15  C   UNL     1     -10.707  14.778  67.381  1.00  0.00    -0.281 A  
HETATM   16  N   UNL     1     -10.986   8.769  70.814  1.00  0.00    -0.238 NA 
HETATM   17  C   UNL     1     -11.842  14.802  68.170  1.00  0.00    -0.318 A  
HETATM   18  C   UNL     1      -9.927   9.248  69.909  1.00  0.00    -0.205 C  
HETATM   19  C   UNL     1     -12.174  13.751  69.038  1.00  0.00    -0.259 A  
HETATM   20  C   UNL     1     -11.293  12.649  69.122  1.00  0.00    -0.339 A  
HETATM   21  H   UNL     1      -8.607  11.153  68.162  1.00  0.00     0.000 HD 
HETATM   22  C   UNL     1     -10.145  12.633  68.328  1.00  0.00    -0.233 A  
ENDROOT
BRANCH   3  23
HETATM   23  O   UNL     1      -9.556   6.458  69.604  1.00  0.00    -0.146 OA 
BRANCH  23  24
HETATM   24  C   UNL     1     -10.456   6.143  68.636  1.00  0.00    -0.236 C  
HETATM   25  O   UNL     1     -11.659   6.081  68.862  1.00  0.00    -0.071 OA 
BRANCH  24  26
HETATM   26  C   UNL     1      -9.984   5.883  67.222  1.00  0.00    -0.179 A  
HETATM   27  C   UNL     1     -10.403   4.950  66.278  1.00  0.00    -0.336 A  
HETATM   28  C   UNL     1      -8.083   6.383  65.764  1.00  0.00    -0.127 A  
HETATM   29  C   UNL     1      -9.648   4.668  65.110  1.00  0.00    -0.128 A  
HETATM   30  C   UNL     1      -8.906   6.681  66.853  1.00  0.00    -0.118 A  
HETATM   31  C   UNL     1      -8.426   5.340  64.885  1.00  0.00    -0.150 A  
BRANCH  28  32
HETATM   32  O   UNL     1      -6.939   7.120  65.574  1.00  0.00    -0.054 OA 
HETATM   33  C   UNL     1      -5.743   6.511  66.076  1.00  0.00    -0.021 C  
ENDBRANCH  28  32
BRANCH  31  34
HETATM   34  O   UNL     1      -7.661   4.903  63.837  1.00  0.00    -0.070 OA 
HETATM   35  C   UNL     1      -7.966   5.340  62.519  1.00  0.00    -0.087 C  
ENDBRANCH  31  34
BRANCH  29  36
HETATM   36  O   UNL     1     -10.236   3.681  64.344  1.00  0.00    -0.199 OA 
HETATM   37  C   UNL     1      -9.759   2.342  64.453  1.00  0.00    -0.071 C  
ENDBRANCH  29  36
ENDBRANCH  24  26
ENDBRANCH  23  24
ENDBRANCH   3  23
BRANCH   5  38
HETATM   38  O   UNL     1      -8.399   4.393  72.421  1.00  0.00    -0.105 OA 
HETATM   39  C   UNL     1      -7.180   4.003  73.034  1.00  0.00    -0.067 C  
ENDBRANCH   5  38
BRANCH   7  40
HETATM   40  C   UNL     1      -6.356   6.522  70.360  1.00  0.00    -0.043 C  
HETATM   41  O   UNL     1      -5.568   7.444  70.190  1.00  0.00    -0.023 OA 
BRANCH  40  42
HETATM   42  O   UNL     1      -6.412   5.406  69.590  1.00  0.00    -0.035 OA 
HETATM   43  C   UNL     1      -5.160   4.798  69.275  1.00  0.00     0.000 C  
ENDBRANCH  40  42
ENDBRANCH   7  40
BRANCH  15  44
HETATM   44  O   UNL     1     -10.556  15.887  66.590  1.00  0.00    -0.314 OA 
HETATM   45  C   UNL     1      -9.280  16.096  66.002  1.00  0.00    -0.328 C  
ENDBRANCH  15  44
TORSDOF 10
ENDMDL
MODEL       60
REMARK 921   NORMALIZED FREE ENERGY PREDICTED BY IDOCK:   -4.24 KCAL/MOL
REMARK 922        TOTAL FREE ENERGY PREDICTED BY IDOCK:   -9.48 KCAL/MOL
REMARK 923 INTER-LIGAND FREE ENERGY PREDICTED BY IDOCK:   -7.77 KCAL/MOL
REMARK 924 INTRA-LIGAND FREE ENERGY PREDICTED BY IDOCK:   -1.71 KCAL/MOL
REMARK 927      BINDING AFFINITY PREDICTED BY RF-SCORE:    0.00 PKD
ROOT
HETATM    1  C   UNL     1      -8.203   7.558  69.843  1.00  0.00    -0.131 C  
HETATM    2  C   UNL     1      -8.457   6.555  68.713  1.00  0.00    -0.122 C  
HETATM    3  C   UNL     1      -8.373   7.139  67.269  1.00  0.00    -0.119 C  
HETATM    4  C   UNL     1     -12.390   8.931  71.130  1.00  0.00    -0.282 C  
HETATM    5  C   UNL     1      -6.877   7.369  67.059  1.00  0.00    -0.074 C  
HETATM    6  C   UNL     1      -9.527   7.787  70.584  1.00  0.00    -0.162 C  
HETATM    7  C   UNL     1      -6.486   8.496  68.081  1.00  0.00    -0.057 C  
HETATM    8  C   UNL     1     -11.870   8.111  69.935  1.00  0.00     0.564 C  
HETATM    9  C   UNL     1     -12.021  10.356  70.905  1.00  0.00    -0.478 A  
HETATM   10  C   UNL     1      -7.518   8.826  69.306  1.00  0.00    -0.078 C  
HETATM   11  C   UNL     1     -12.515  13.927  70.829  1.00  0.00    -0.445 A  
HETATM   12  C   UNL     1     -10.965  10.708  70.080  1.00  0.00    -0.259 A  
HETATM   13  N   UNL     1     -11.009  12.075  69.946  1.00  0.00    -0.395 NA 
HETATM   14  C   UNL     1      -8.549  10.036  69.315  1.00  0.00    -0.172 C  
HETATM   15  C   UNL     1     -13.627  14.157  71.654  1.00  0.00    -0.366 A  
HETATM   16  N   UNL     1     -10.450   8.346  69.623  1.00  0.00    -0.220 NA 
HETATM   17  C   UNL     1     -14.245  13.099  72.294  1.00  0.00    -0.237 A  
HETATM   18  C   UNL     1     -10.105   9.736  69.278  1.00  0.00    -0.198 C  
HETATM   19  C   UNL     1     -13.811  11.772  72.143  1.00  0.00     0.204 A  
HETATM   20  C   UNL     1     -12.682  11.528  71.328  1.00  0.00    -0.469 A  
HETATM   21  H   UNL     1     -10.364  12.625  69.380  1.00  0.00     0.000 HD 
HETATM   22  C   UNL     1     -12.057  12.600  70.690  1.00  0.00    -0.226 A  
ENDROOT
BRANCH   3  23
HETATM   23  O   UNL     1      -9.038   8.427  67.006  1.00  0.00    -0.136 OA 
BRANCH  23  24
HETATM   24  C   UNL     1      -8.929   8.843  65.717  1.00  0.00    -0.203 C  
HETATM   25  O   UNL     1      -8.637   8.074  64.808  1.00  0.00    -0.073 OA 
BRANCH  24  26
HETATM   26  C   UNL     1      -9.200  10.290  65.366  1.00  0.00    -0.236 A  
HETATM   27  C   UNL     1      -8.866  11.467  66.030  1.00  0.00    -0.177 A  
HETATM   28  C   UNL     1     -10.641  11.621  63.903  1.00  0.00    -0.391 A  
HETATM   29  C   UNL     1      -9.454  12.714  65.696  1.00  0.00     0.025 A  
HETATM   30  C   UNL     1      -9.970  10.437  64.217  1.00  0.00    -0.368 A  
HETATM   31  C   UNL     1     -10.418  12.782  64.665  1.00  0.00    -0.350 A  
BRANCH  28  32
HETATM   32  O   UNL     1     -11.520  11.627  62.847  1.00  0.00     0.013 OA 
HETATM   33  C   UNL     1     -12.904  11.614  63.218  1.00  0.00     0.064 C  
ENDBRANCH  28  32
BRANCH  31  34
HETATM   34  O   UNL     1     -11.074  13.973  64.506  1.00  0.00    -0.381 OA 
HETATM   35  C   UNL     1     -12.131  14.312  65.395  1.00  0.00    -0.396 C  
ENDBRANCH  31  34
BRANCH  29  36
HETATM   36  O   UNL     1      -9.002  13.731  66.513  1.00  0.00    -0.179 OA 
HETATM   37  C   UNL     1      -8.192  13.404  67.641  1.00  0.00    -0.177 C  
ENDBRANCH  29  36
ENDBRANCH  24  26
ENDBRANCH  23  24
ENDBRANCH   3  23
BRANCH   5  38
HETATM   38  O   UNL     1      -6.177   6.134  67.325  1.00  0.00    -0.027 OA 
HETATM   39  C   UNL     1      -5.638   5.443  66.209  1.00  0.00    -0.017 C  
ENDBRANCH   5  38
BRANCH   7  40
HETATM   40  C   UNL     1      -6.036   9.731  67.323  1.00  0.00    -0.051 C  
HETATM   41  O   UNL     1      -5.950  10.863  67.783  1.00  0.00    -0.043 OA 
BRANCH  40  42
HETATM   42  O   UNL     1      -5.793   9.405  66.028  1.00  0.00    -0.052 OA 
HETATM   43  C   UNL     1      -5.426  10.482  65.168  1.00  0.00    -0.146 C  
ENDBRANCH  40  42
ENDBRANCH   7  40
BRANCH  15  44
HETATM   44  O   UNL     1     -14.198  15.375  71.914  1.00  0.00    -0.505 OA 
HETATM   45  C   UNL     1     -13.677  16.115  73.008  1.00  0.00    -0.242 C  
ENDBRANCH  15  44
TORSDOF 10
ENDMDL
MODEL       61
REMARK 921   NORMALIZED FREE ENERGY PREDICTED BY IDOCK:   -4.22 KCAL/MOL
REMARK 922        TOTAL FREE ENERGY PREDICTED BY IDOCK:   -9.44 KCAL/MOL
REMARK 923 INTER-LIGAND FREE ENERGY PREDICTED BY IDOCK:   -7.29 KCAL/MOL
REMARK 924 INTRA-LIGAND FREE ENERGY PREDICTED BY IDOCK:   -2.15 KCAL/MOL
REMARK 927      BINDING AFFINITY PREDICTED BY RF-SCORE:    0.00 PKD
ROOT
HETATM    1  C   UNL     1     -10.133   9.069  70.986  1.00  0.00    -0.352 C  
HETATM    2  C   UNL     1     -10.740   7.804  70.369  1.00  0.00    -0.238 C  
HETATM    3  C   UNL     1      -9.857   7.092  69.298  1.00  0.00    -0.159 C  
HETATM    4  C   UNL     1     -11.917  12.517  68.537  1.00  0.00    -0.266 C  
HETATM    5  C   UNL     1      -8.740   6.451  70.119  1.00  0.00    -0.139 C  
HETATM    6  C   UNL     1     -10.943  10.275  70.494  1.00  0.00    -0.270 C  
HETATM    7  C   UNL     1      -7.928   7.653  70.722  1.00  0.00    -0.102 C  
HETATM    8  C   UNL     1     -11.909  10.988  68.356  1.00  0.00    -0.184 C  
HETATM    9  C   UNL     1     -10.555  13.026  68.212  1.00  0.00    -0.260 A  
HETATM   10  C   UNL     1      -8.619   9.135  70.719  1.00  0.00    -0.265 C  
HETATM   11  C   UNL     1      -8.116  15.236  66.741  1.00  0.00    -0.166 A  
HETATM   12  C   UNL     1      -9.440  12.207  68.288  1.00  0.00    -0.204 A  
HETATM   13  N   UNL     1      -8.393  12.919  67.755  1.00  0.00    -0.164 NA 
HETATM   14  C   UNL     1      -8.314  10.271  69.650  1.00  0.00    -0.139 C  
HETATM   15  C   UNL     1      -8.823  16.414  66.451  1.00  0.00    -0.311 A  
HETATM   16  N   UNL     1     -10.806  10.310  69.055  1.00  0.00    -0.218 NA 
HETATM   17  C   UNL     1     -10.165  16.513  66.767  1.00  0.00    -0.295 A  
HETATM   18  C   UNL     1      -9.453  10.724  68.644  1.00  0.00    -0.188 C  
HETATM   19  C   UNL     1     -10.874  15.461  67.367  1.00  0.00    -0.309 A  
HETATM   20  C   UNL     1     -10.172  14.275  67.681  1.00  0.00    -0.237 A  
HETATM   21  H   UNL     1      -7.440  12.568  67.660  1.00  0.00     0.000 HD 
HETATM   22  C   UNL     1      -8.815  14.183  67.366  1.00  0.00    -0.206 A  
ENDROOT
BRANCH   3  23
HETATM   23  O   UNL     1      -9.202   7.928  68.278  1.00  0.00    -0.138 OA 
BRANCH  23  24
HETATM   24  C   UNL     1      -9.563   7.617  67.004  1.00  0.00    -0.175 C  
HETATM   25  O   UNL     1     -10.530   8.137  66.458  1.00  0.00    -0.252 OA 
BRANCH  24  26
HETATM   26  C   UNL     1      -8.745   6.623  66.210  1.00  0.00    -0.150 A  
HETATM   27  C   UNL     1      -8.480   5.275  66.434  1.00  0.00    -0.113 A  
HETATM   28  C   UNL     1      -7.039   6.583  64.456  1.00  0.00    -0.060 A  
HETATM   29  C   UNL     1      -7.458   4.582  65.735  1.00  0.00    -0.081 A  
HETATM   30  C   UNL     1      -8.110   7.195  65.112  1.00  0.00    -0.127 A  
HETATM   31  C   UNL     1      -6.670   5.266  64.783  1.00  0.00    -0.048 A  
BRANCH  28  32
HETATM   32  O   UNL     1      -6.356   7.292  63.498  1.00  0.00    -0.047 OA 
HETATM   33  C   UNL     1      -7.181   8.069  62.622  1.00  0.00    -0.093 C  
ENDBRANCH  28  32
BRANCH  31  34
HETATM   34  O   UNL     1      -5.593   4.594  64.271  1.00  0.00    -0.013 OA 
HETATM   35  C   UNL     1      -5.649   4.095  62.941  1.00  0.00    -0.013 C  
ENDBRANCH  31  34
BRANCH  29  36
HETATM   36  O   UNL     1      -7.351   3.270  66.151  1.00  0.00    -0.069 OA 
HETATM   37  C   UNL     1      -8.111   2.266  65.482  1.00  0.00    -0.084 C  
ENDBRANCH  29  36
ENDBRANCH  24  26
ENDBRANCH  23  24
ENDBRANCH   3  23
BRANCH   5  38
HETATM   38  O   UNL     1      -9.335   5.633  71.150  1.00  0.00    -0.150 OA 
HETATM   39  C   UNL     1      -8.484   4.716  71.820  1.00  0.00    -0.113 C  
ENDBRANCH   5  38
BRANCH   7  40
HETATM   40  C   UNL     1      -6.520   7.643  70.158  1.00  0.00    -0.034 C  
HETATM   41  O   UNL     1      -5.609   8.393  70.490  1.00  0.00    -0.028 OA 
BRANCH  40  42
HETATM   42  O   UNL     1      -6.429   6.708  69.179  1.00  0.00    -0.037 OA 
HETATM   43  C   UNL     1      -5.587   7.035  68.074  1.00  0.00    -0.021 C  
ENDBRANCH  40  42
ENDBRANCH   7  40
BRANCH  15  44
HETATM   44  O   UNL     1      -8.307  17.538  65.860  1.00  0.00    -0.538 OA 
HETATM   45  C   UNL     1      -7.676  18.485  66.710  1.00  0.00    -0.236 C  
ENDBRANCH  15  44
TORSDOF 10
ENDMDL
MODEL       62
REMARK 921   NORMALIZED FREE ENERGY PREDICTED BY IDOCK:   -4.21 KCAL/MOL
REMARK 922        TOTAL FREE ENERGY PREDICTED BY IDOCK:   -9.43 KCAL/MOL
REMARK 923 INTER-LIGAND FREE ENERGY PREDICTED BY IDOCK:   -7.94 KCAL/MOL
REMARK 924 INTRA-LIGAND FREE ENERGY PREDICTED BY IDOCK:   -1.49 KCAL/MOL
REMARK 927      BINDING AFFINITY PREDICTED BY RF-SCORE:    0.00 PKD
ROOT
HETATM    1  C   UNL     1      -6.690   9.555  67.606  1.00  0.00    -0.063 C  
HETATM    2  C   UNL     1      -6.783  10.989  67.076  1.00  0.00    -0.108 C  
HETATM    3  C   UNL     1      -8.229  11.562  66.948  1.00  0.00    -0.167 C  
HETATM    4  C   UNL     1      -6.414   6.949  63.837  1.00  0.00    -0.042 C  
HETATM    5  C   UNL     1      -8.650  11.809  68.396  1.00  0.00    -0.156 C  
HETATM    6  C   UNL     1      -6.221   8.652  66.457  1.00  0.00    -0.058 C  
HETATM    7  C   UNL     1      -8.730  10.383  69.050  1.00  0.00    -0.170 C  
HETATM    8  C   UNL     1      -6.737   8.436  64.069  1.00  0.00    -0.075 C  
HETATM    9  C   UNL     1      -7.592   6.148  64.271  1.00  0.00    -0.096 A  
HETATM   10  C   UNL     1      -8.007   9.134  68.282  1.00  0.00    -0.103 C  
HETATM   11  C   UNL     1     -10.090   3.558  64.055  1.00  0.00    -0.207 A  
HETATM   12  C   UNL     1      -8.505   6.644  65.187  1.00  0.00    -0.034 A  
HETATM   13  N   UNL     1      -9.547   5.750  65.228  1.00  0.00    -0.269 NA 
HETATM   14  C   UNL     1      -8.764   8.077  67.368  1.00  0.00    -0.124 C  
HETATM   15  C   UNL     1      -9.576   2.635  63.130  1.00  0.00    -0.095 A  
HETATM   16  N   UNL     1      -7.229   8.735  65.425  1.00  0.00    -0.083 NA 
HETATM   17  C   UNL     1      -8.338   2.848  62.553  1.00  0.00    -0.074 A  
HETATM   18  C   UNL     1      -8.468   8.036  65.811  1.00  0.00    -0.147 C  
HETATM   19  C   UNL     1      -7.557   3.977  62.847  1.00  0.00    -0.057 A  
HETATM   20  C   UNL     1      -8.053   4.905  63.791  1.00  0.00    -0.112 A  
HETATM   21  H   UNL     1     -10.381   5.855  65.804  1.00  0.00     0.000 HD 
HETATM   22  C   UNL     1      -9.302   4.682  64.374  1.00  0.00    -0.050 A  
ENDROOT
BRANCH   3  23
HETATM   23  O   UNL     1      -9.263  10.699  66.350  1.00  0.00    -0.162 OA 
BRANCH  23  24
HETATM   24  C   UNL     1     -10.151  11.371  65.571  1.00  0.00    -0.247 C  
HETATM   25  O   UNL     1     -10.700  10.846  64.609  1.00  0.00    -0.308 OA 
BRANCH  24  26
HETATM   26  C   UNL     1     -10.509  12.804  65.901  1.00  0.00    -0.295 A  
HETATM   27  C   UNL     1      -9.971  14.005  65.449  1.00  0.00    -0.292 A  
HETATM   28  C   UNL     1     -11.741  14.084  67.584  1.00  0.00    -0.377 A  
HETATM   29  C   UNL     1     -10.245  15.242  66.088  1.00  0.00    -0.304 A  
HETATM   30  C   UNL     1     -11.503  12.908  66.868  1.00  0.00    -0.393 A  
HETATM   31  C   UNL     1     -11.084  15.275  67.224  1.00  0.00    -0.325 A  
BRANCH  28  32
HETATM   32  O   UNL     1     -12.617  14.052  68.642  1.00  0.00     0.033 OA 
HETATM   33  C   UNL     1     -12.194  13.246  69.748  1.00  0.00    -0.222 C  
ENDBRANCH  28  32
BRANCH  31  34
HETATM   34  O   UNL     1     -11.172  16.463  67.896  1.00  0.00    -0.295 OA 
HETATM   35  C   UNL     1     -10.340  16.689  69.027  1.00  0.00    -0.317 C  
ENDBRANCH  31  34
BRANCH  29  36
HETATM   36  O   UNL     1      -9.570  16.289  65.492  1.00  0.00    -0.474 OA 
HETATM   37  C   UNL     1      -8.306  16.687  66.019  1.00  0.00    -0.145 C  
ENDBRANCH  29  36
ENDBRANCH  24  26
ENDBRANCH  23  24
ENDBRANCH   3  23
BRANCH   5  38
HETATM   38  O   UNL     1      -7.654  12.638  69.032  1.00  0.00    -0.004 OA 
HETATM   39  C   UNL     1      -7.609  14.004  68.650  1.00  0.00    -0.130 C  
ENDBRANCH   5  38
BRANCH   7  40
HETATM   40  C   UNL     1     -10.164  10.094  69.454  1.00  0.00    -0.227 C  
HETATM   41  O   UNL     1     -11.162  10.363  68.796  1.00  0.00    -0.246 OA 
BRANCH  40  42
HETATM   42  O   UNL     1     -10.184   9.537  70.691  1.00  0.00    -0.265 OA 
HETATM   43  C   UNL     1     -11.474   9.329  71.265  1.00  0.00    -0.347 C  
ENDBRANCH  40  42
ENDBRANCH   7  40
BRANCH  15  44
HETATM   44  O   UNL     1     -10.194   1.486  62.711  1.00  0.00    -0.095 OA 
HETATM   45  C   UNL     1     -11.614   1.476  62.710  1.00  0.00    -0.208 C  
ENDBRANCH  15  44
TORSDOF 10
ENDMDL
MODEL       63
REMARK 921   NORMALIZED FREE ENERGY PREDICTED BY IDOCK:   -4.20 KCAL/MOL
REMARK 922        TOTAL FREE ENERGY PREDICTED BY IDOCK:   -9.42 KCAL/MOL
REMARK 923 INTER-LIGAND FREE ENERGY PREDICTED BY IDOCK:   -8.08 KCAL/MOL
REMARK 924 INTRA-LIGAND FREE ENERGY PREDICTED BY IDOCK:   -1.34 KCAL/MOL
REMARK 927      BINDING AFFINITY PREDICTED BY RF-SCORE:    0.00 PKD
ROOT
HETATM    1  C   UNL     1      -6.712  10.580  66.601  1.00  0.00    -0.099 C  
HETATM    2  C   UNL     1      -7.699  11.714  66.307  1.00  0.00     0.145 C  
HETATM    3  C   UNL     1      -8.349  12.376  67.561  1.00  0.00    -0.173 C  
HETATM    4  C   UNL     1      -9.209   6.749  66.203  1.00  0.00    -0.120 C  
HETATM    5  C   UNL     1      -7.211  13.194  68.170  1.00  0.00    -0.117 C  
HETATM    6  C   UNL     1      -7.346   9.264  66.131  1.00  0.00    -0.095 C  
HETATM    7  C   UNL     1      -6.154  12.135  68.651  1.00  0.00    -0.057 C  
HETATM    8  C   UNL     1      -9.573   8.244  66.254  1.00  0.00    -0.196 C  
HETATM    9  C   UNL     1      -8.822   6.322  67.576  1.00  0.00    -0.103 A  
HETATM   10  C   UNL     1      -6.265  10.610  68.073  1.00  0.00    -0.053 C  
HETATM   11  C   UNL     1      -8.739   4.173  70.471  1.00  0.00    -0.121 A  
HETATM   12  C   UNL     1      -8.369   7.233  68.516  1.00  0.00    -0.125 A  
HETATM   13  N   UNL     1      -8.277   6.557  69.708  1.00  0.00    -0.125 NA 
HETATM   14  C   UNL     1      -6.922   9.394  68.857  1.00  0.00    -0.063 C  
HETATM   15  C   UNL     1      -9.152   2.917  70.001  1.00  0.00    -0.123 A  
HETATM   16  N   UNL     1      -8.553   9.084  66.905  1.00  0.00    -0.122 NA 
HETATM   17  C   UNL     1      -9.457   2.742  68.664  1.00  0.00    -0.191 A  
HETATM   18  C   UNL     1      -8.258   8.740  68.307  1.00  0.00    -0.118 C  
HETATM   19  C   UNL     1      -9.384   3.791  67.734  1.00  0.00    -0.237 A  
HETATM   20  C   UNL     1      -8.952   5.058  68.189  1.00  0.00    -0.119 A  
HETATM   21  H   UNL     1      -7.984   6.973  70.592  1.00  0.00     0.000 HD 
HETATM   22  C   UNL     1      -8.640   5.227  69.539  1.00  0.00    -0.097 A  
ENDROOT
BRANCH   3  23
HETATM   23  O   UNL     1      -8.848  11.490  68.628  1.00  0.00    -0.163 OA 
BRANCH  23  24
HETATM   24  C   UNL     1     -10.205  11.434  68.699  1.00  0.00    -0.208 C  
HETATM   25  O   UNL     1     -10.922  11.893  67.817  1.00  0.00    -0.206 OA 
BRANCH  24  26
HETATM   26  C   UNL     1     -10.870  10.764  69.882  1.00  0.00    -0.264 A  
HETATM   27  C   UNL     1     -10.754   9.470  70.380  1.00  0.00    -0.341 A  
HETATM   28  C   UNL     1     -12.776  11.084  71.383  1.00  0.00    -0.429 A  
HETATM   29  C   UNL     1     -11.673   8.940  71.323  1.00  0.00    -0.306 A  
HETATM   30  C   UNL     1     -11.797  11.582  70.520  1.00  0.00    -0.363 A  
HETATM   31  C   UNL     1     -12.750   9.734  71.776  1.00  0.00    -0.426 A  
BRANCH  28  32
HETATM   32  O   UNL     1     -13.759  11.932  71.831  1.00  0.00    -0.142 OA 
HETATM   33  C   UNL     1     -13.308  13.248  72.175  1.00  0.00    -0.523 C  
ENDBRANCH  28  32
BRANCH  31  34
HETATM   34  O   UNL     1     -13.696   9.114  72.547  1.00  0.00    -0.474 OA 
HETATM   35  C   UNL     1     -14.403   7.998  72.022  1.00  0.00    -0.410 C  
ENDBRANCH  31  34
BRANCH  29  36
HETATM   36  O   UNL     1     -11.384   7.628  71.639  1.00  0.00    -0.244 OA 
HETATM   37  C   UNL     1     -10.714   7.342  72.865  1.00  0.00    -0.339 C  
ENDBRANCH  29  36
ENDBRANCH  24  26
ENDBRANCH  23  24
ENDBRANCH   3  23
BRANCH   5  38
HETATM   38  O   UNL     1      -6.674  14.067  67.153  1.00  0.00    -0.168 OA 
HETATM   39  C   UNL     1      -6.665  15.458  67.434  1.00  0.00    -0.144 C  
ENDBRANCH   5  38
BRANCH   7  40
HETATM   40  C   UNL     1      -6.028  12.200  70.161  1.00  0.00    -0.154 C  
HETATM   41  O   UNL     1      -6.412  11.345  70.950  1.00  0.00    -0.115 OA 
BRANCH  40  42
HETATM   42  O   UNL     1      -5.469  13.383  70.520  1.00  0.00    -0.122 OA 
HETATM   43  C   UNL     1      -5.714  13.812  71.859  1.00  0.00    -0.066 C  
ENDBRANCH  40  42
ENDBRANCH   7  40
BRANCH  15  44
HETATM   44  O   UNL     1      -9.294   1.782  70.756  1.00  0.00    -0.097 OA 
HETATM   45  C   UNL     1     -10.222   1.829  71.830  1.00  0.00    -0.064 C  
ENDBRANCH  15  44
TORSDOF 10
ENDMDL
MODEL       64
REMARK 921   NORMALIZED FREE ENERGY PREDICTED BY IDOCK:   -4.18 KCAL/MOL
REMARK 922        TOTAL FREE ENERGY PREDICTED BY IDOCK:   -9.38 KCAL/MOL
REMARK 923 INTER-LIGAND FREE ENERGY PREDICTED BY IDOCK:   -8.22 KCAL/MOL
REMARK 924 INTRA-LIGAND FREE ENERGY PREDICTED BY IDOCK:   -1.16 KCAL/MOL
REMARK 927      BINDING AFFINITY PREDICTED BY RF-SCORE:    0.00 PKD
ROOT
HETATM    1  C   UNL     1     -11.503  11.563  67.248  1.00  0.00    -0.338 C  
HETATM    2  C   UNL     1     -11.113  10.499  66.217  1.00  0.00     0.145 C  
HETATM    3  C   UNL     1      -9.682   9.899  66.384  1.00  0.00    -0.212 C  
HETATM    4  C   UNL     1     -10.573  15.559  65.189  1.00  0.00    -0.455 C  
HETATM    5  C   UNL     1      -9.805   9.009  67.620  1.00  0.00    -0.173 C  
HETATM    6  C   UNL     1     -11.584  12.916  66.529  1.00  0.00    -0.371 C  
HETATM    7  C   UNL     1     -10.080   9.994  68.812  1.00  0.00    -0.197 C  
HETATM    8  C   UNL     1     -10.246  14.094  64.846  1.00  0.00    -0.341 C  
HETATM    9  C   UNL     1      -9.702  15.972  66.324  1.00  0.00    -0.332 A  
HETATM   10  C   UNL     1     -10.563  11.517  68.465  1.00  0.00    -0.236 C  
HETATM   11  C   UNL     1      -7.504  18.140  68.186  1.00  0.00    -0.262 A  
HETATM   12  C   UNL     1      -9.154  15.040  67.191  1.00  0.00    -0.215 A  
HETATM   13  N   UNL     1      -8.271  15.721  67.993  1.00  0.00    -0.139 NA 
HETATM   14  C   UNL     1      -9.606  12.786  68.451  1.00  0.00    -0.175 C  
HETATM   15  C   UNL     1      -7.710  19.418  67.643  1.00  0.00    -0.264 A  
HETATM   16  N   UNL     1     -10.264  13.190  66.008  1.00  0.00    -0.281 NA 
HETATM   17  C   UNL     1      -8.630  19.599  66.627  1.00  0.00    -0.380 A  
HETATM   18  C   UNL     1      -9.312  13.527  67.081  1.00  0.00    -0.240 C  
HETATM   19  C   UNL     1      -9.376  18.537  66.091  1.00  0.00    -0.152 A  
HETATM   20  C   UNL     1      -9.192  17.248  66.640  1.00  0.00    -0.275 A  
HETATM   21  H   UNL     1      -7.701  15.295  68.723  1.00  0.00     0.000 HD 
HETATM   22  C   UNL     1      -8.266  17.072  67.670  1.00  0.00    -0.185 A  
ENDROOT
BRANCH   3  23
HETATM   23  O   UNL     1      -8.570  10.830  66.645  1.00  0.00    -0.135 OA 
BRANCH  23  24
HETATM   24  C   UNL     1      -7.382  10.417  66.130  1.00  0.00    -0.131 C  
HETATM   25  O   UNL     1      -6.468  11.200  65.895  1.00  0.00    -0.061 OA 
BRANCH  24  26
HETATM   26  C   UNL     1      -7.148   8.948  65.856  1.00  0.00    -0.084 A  
HETATM   27  C   UNL     1      -7.427   8.174  64.733  1.00  0.00    -0.094 A  
HETATM   28  C   UNL     1      -6.664   6.875  67.063  1.00  0.00    -0.056 A  
HETATM   29  C   UNL     1      -7.399   6.756  64.770  1.00  0.00    -0.088 A  
HETATM   30  C   UNL     1      -6.625   8.267  66.951  1.00  0.00    -0.057 A  
HETATM   31  C   UNL     1      -7.087   6.090  65.976  1.00  0.00    -0.074 A  
BRANCH  28  32
HETATM   32  O   UNL     1      -6.288   6.294  68.250  1.00  0.00    -0.042 OA 
HETATM   33  C   UNL     1      -7.223   6.460  69.323  1.00  0.00    -0.090 C  
ENDBRANCH  28  32
BRANCH  31  34
HETATM   34  O   UNL     1      -7.245   4.731  65.994  1.00  0.00    -0.073 OA 
HETATM   35  C   UNL     1      -6.142   3.903  66.337  1.00  0.00    -0.031 C  
ENDBRANCH  31  34
BRANCH  29  36
HETATM   36  O   UNL     1      -7.750   6.204  63.553  1.00  0.00    -0.092 OA 
HETATM   37  C   UNL     1      -6.721   5.747  62.678  1.00  0.00    -0.039 C  
ENDBRANCH  29  36
ENDBRANCH  24  26
ENDBRANCH  23  24
ENDBRANCH   3  23
BRANCH   5  38
HETATM   38  O   UNL     1     -10.899   8.088  67.419  1.00  0.00    -0.231 OA 
HETATM   39  C   UNL     1     -10.643   6.715  67.666  1.00  0.00    -0.263 C  
ENDBRANCH   5  38
BRANCH   7  40
HETATM   40  C   UNL     1      -8.921   9.937  69.790  1.00  0.00    -0.221 C  
HETATM   41  O   UNL     1      -7.769  10.284  69.558  1.00  0.00    -0.135 OA 
BRANCH  40  42
HETATM   42  O   UNL     1      -9.339   9.387  70.957  1.00  0.00    -0.240 OA 
HETATM   43  C   UNL     1     -10.716   9.018  71.021  1.00  0.00    -0.269 C  
ENDBRANCH  40  42
ENDBRANCH   7  40
BRANCH  15  44
HETATM   44  O   UNL     1      -7.071  20.568  68.026  1.00  0.00    -0.291 OA 
HETATM   45  C   UNL     1      -6.015  20.441  68.967  1.00  0.00    -0.342 C  
ENDBRANCH  15  44
TORSDOF 10
ENDMDL
MODEL       65
REMARK 921   NORMALIZED FREE ENERGY PREDICTED BY IDOCK:   -4.18 KCAL/MOL
REMARK 922        TOTAL FREE ENERGY PREDICTED BY IDOCK:   -9.37 KCAL/MOL
REMARK 923 INTER-LIGAND FREE ENERGY PREDICTED BY IDOCK:   -6.97 KCAL/MOL
REMARK 924 INTRA-LIGAND FREE ENERGY PREDICTED BY IDOCK:   -2.40 KCAL/MOL
REMARK 927      BINDING AFFINITY PREDICTED BY RF-SCORE:    0.00 PKD
ROOT
HETATM    1  C   UNL     1     -10.816   6.963  71.226  1.00  0.00    -0.263 C  
HETATM    2  C   UNL     1     -10.124   5.626  70.938  1.00  0.00    -0.263 C  
HETATM    3  C   UNL     1      -8.601   5.576  71.272  1.00  0.00    -0.127 C  
HETATM    4  C   UNL     1     -10.785   9.169  67.201  1.00  0.00    -0.213 C  
HETATM    5  C   UNL     1      -8.567   5.545  72.799  1.00  0.00    -0.120 C  
HETATM    6  C   UNL     1     -11.188   7.606  69.883  1.00  0.00    -0.085 C  
HETATM    7  C   UNL     1      -9.137   6.936  73.254  1.00  0.00    -0.158 C  
HETATM    8  C   UNL     1     -10.092   7.891  67.708  1.00  0.00    -0.192 C  
HETATM    9  C   UNL     1     -10.102  10.339  67.817  1.00  0.00    -0.213 A  
HETATM   10  C   UNL     1      -9.959   7.833  72.161  1.00  0.00    -0.249 C  
HETATM   11  C   UNL     1      -8.601  13.617  67.917  1.00  0.00    -0.181 A  
HETATM   12  C   UNL     1      -9.389  10.221  68.999  1.00  0.00    -0.189 A  
HETATM   13  N   UNL     1      -8.743  11.418  69.191  1.00  0.00    -0.374 NA 
HETATM   14  C   UNL     1      -9.342   9.049  71.344  1.00  0.00    -0.310 C  
HETATM   15  C   UNL     1      -9.085  14.272  66.774  1.00  0.00    -0.249 A  
HETATM   16  N   UNL     1      -9.950   7.832  69.173  1.00  0.00    -0.178 NA 
HETATM   17  C   UNL     1      -9.967  13.627  65.926  1.00  0.00    -0.304 A  
HETATM   18  C   UNL     1      -9.166   8.926  69.773  1.00  0.00    -0.165 C  
HETATM   19  C   UNL     1     -10.401  12.312  66.154  1.00  0.00    -0.269 A  
HETATM   20  C   UNL     1      -9.936  11.646  67.311  1.00  0.00    -0.210 A  
HETATM   21  H   UNL     1      -8.125  11.626  69.975  1.00  0.00     0.000 HD 
HETATM   22  C   UNL     1      -9.051  12.304  68.167  1.00  0.00    -0.196 A  
ENDROOT
BRANCH   3  23
HETATM   23  O   UNL     1      -7.766   6.717  70.856  1.00  0.00    -0.091 OA 
BRANCH  23  24
HETATM   24  C   UNL     1      -6.616   6.350  70.230  1.00  0.00    -0.045 C  
HETATM   25  O   UNL     1      -5.559   6.217  70.836  1.00  0.00    -0.018 OA 
BRANCH  24  26
HETATM   26  C   UNL     1      -6.625   6.066  68.744  1.00  0.00    -0.055 A  
HETATM   27  C   UNL     1      -6.548   6.926  67.651  1.00  0.00    -0.055 A  
HETATM   28  C   UNL     1      -7.204   4.270  67.187  1.00  0.00    -0.068 A  
HETATM   29  C   UNL     1      -6.861   6.500  66.334  1.00  0.00    -0.061 A  
HETATM   30  C   UNL     1      -6.806   4.719  68.448  1.00  0.00    -0.055 A  
HETATM   31  C   UNL     1      -7.271   5.168  66.105  1.00  0.00    -0.073 A  
BRANCH  28  32
HETATM   32  O   UNL     1      -7.531   2.945  67.026  1.00  0.00    -0.068 OA 
HETATM   33  C   UNL     1      -6.575   2.175  66.289  1.00  0.00    -0.031 C  
ENDBRANCH  28  32
BRANCH  31  34
HETATM   34  O   UNL     1      -7.724   4.864  64.850  1.00  0.00    -0.079 OA 
HETATM   35  C   UNL     1      -9.122   4.855  64.595  1.00  0.00    -0.074 C  
ENDBRANCH  31  34
BRANCH  29  36
HETATM   36  O   UNL     1      -6.755   7.531  65.422  1.00  0.00    -0.044 OA 
HETATM   37  C   UNL     1      -7.405   8.770  65.699  1.00  0.00    -0.085 C  
ENDBRANCH  29  36
ENDBRANCH  24  26
ENDBRANCH  23  24
ENDBRANCH   3  23
BRANCH   5  38
HETATM   38  O   UNL     1      -9.391   4.450  73.257  1.00  0.00    -0.119 OA 
HETATM   39  C   UNL     1     -10.025   4.601  74.518  1.00  0.00    -0.206 C  
ENDBRANCH   5  38
BRANCH   7  40
HETATM   40  C   UNL     1      -8.052   7.713  73.977  1.00  0.00    -0.184 C  
HETATM   41  O   UNL     1      -8.157   8.852  74.415  1.00  0.00    -0.274 OA 
BRANCH  40  42
HETATM   42  O   UNL     1      -6.916   6.973  74.019  1.00  0.00    -0.084 OA 
HETATM   43  C   UNL     1      -5.698   7.702  74.162  1.00  0.00    -0.068 C  
ENDBRANCH  40  42
ENDBRANCH   7  40
BRANCH  15  44
HETATM   44  O   UNL     1      -8.768  15.546  66.381  1.00  0.00    -0.291 OA 
HETATM   45  C   UNL     1      -9.847  16.438  66.144  1.00  0.00    -0.338 C  
ENDBRANCH  15  44
TORSDOF 10
ENDMDL
MODEL       66
REMARK 921   NORMALIZED FREE ENERGY PREDICTED BY IDOCK:   -4.17 KCAL/MOL
REMARK 922        TOTAL FREE ENERGY PREDICTED BY IDOCK:   -9.36 KCAL/MOL
REMARK 923 INTER-LIGAND FREE ENERGY PREDICTED BY IDOCK:   -7.35 KCAL/MOL
REMARK 924 INTRA-LIGAND FREE ENERGY PREDICTED BY IDOCK:   -2.01 KCAL/MOL
REMARK 927      BINDING AFFINITY PREDICTED BY RF-SCORE:    0.00 PKD
ROOT
HETATM    1  C   UNL     1     -10.612   7.276  73.329  1.00  0.00    -0.428 C  
HETATM    2  C   UNL     1     -11.160   5.899  72.941  1.00  0.00    -0.306 C  
HETATM    3  C   UNL     1     -10.349   5.142  71.844  1.00  0.00    -0.212 C  
HETATM    4  C   UNL     1     -13.030  10.236  70.788  1.00  0.00    -0.408 C  
HETATM    5  C   UNL     1      -9.078   4.704  72.570  1.00  0.00    -0.124 C  
HETATM    6  C   UNL     1     -11.596   8.340  72.824  1.00  0.00    -0.256 C  
HETATM    7  C   UNL     1      -8.325   6.036  72.923  1.00  0.00    -0.117 C  
HETATM    8  C   UNL     1     -12.890   8.703  70.773  1.00  0.00     0.292 C  
HETATM    9  C   UNL     1     -11.780  10.818  70.227  1.00  0.00    -0.442 A  
HETATM   10  C   UNL     1      -9.158   7.441  72.853  1.00  0.00    -0.192 C  
HETATM   11  C   UNL     1      -9.782  13.039  68.208  1.00  0.00    -0.221 A  
HETATM   12  C   UNL     1     -10.586  10.115  70.238  1.00  0.00    -0.264 A  
HETATM   13  N   UNL     1      -9.692  10.845  69.495  1.00  0.00    -0.431 NA 
HETATM   14  C   UNL     1      -9.106   8.462  71.636  1.00  0.00    -0.268 C  
HETATM   15  C   UNL     1     -10.636  14.107  67.891  1.00  0.00    -0.243 A  
HETATM   16  N   UNL     1     -11.644   8.213  71.386  1.00  0.00    -0.270 NA 
HETATM   17  C   UNL     1     -11.931  14.127  68.374  1.00  0.00    -0.366 A  
HETATM   18  C   UNL     1     -10.402   8.690  70.752  1.00  0.00    -0.204 C  
HETATM   19  C   UNL     1     -12.448  13.097  69.175  1.00  0.00     0.226 A  
HETATM   20  C   UNL     1     -11.595  12.023  69.517  1.00  0.00    -0.389 A  
HETATM   21  H   UNL     1      -8.728  10.570  69.309  1.00  0.00     0.000 HD 
HETATM   22  C   UNL     1     -10.286  12.012  69.032  1.00  0.00     0.040 A  
ENDROOT
BRANCH   3  23
HETATM   23  O   UNL     1      -9.916   5.903  70.659  1.00  0.00    -0.177 OA 
BRANCH  23  24
HETATM   24  C   UNL     1      -9.701   5.129  69.562  1.00  0.00    -0.192 C  
HETATM   25  O   UNL     1     -10.032   3.949  69.524  1.00  0.00    -0.104 OA 
BRANCH  24  26
HETATM   26  C   UNL     1      -9.059   5.728  68.330  1.00  0.00    -0.117 A  
HETATM   27  C   UNL     1      -9.338   6.903  67.637  1.00  0.00    -0.124 A  
HETATM   28  C   UNL     1      -7.604   5.076  66.475  1.00  0.00    -0.088 A  
HETATM   29  C   UNL     1      -8.821   7.153  66.340  1.00  0.00    -0.145 A  
HETATM   30  C   UNL     1      -8.072   4.917  67.781  1.00  0.00    -0.094 A  
HETATM   31  C   UNL     1      -8.000   6.189  65.712  1.00  0.00    -0.115 A  
BRANCH  28  32
HETATM   32  O   UNL     1      -6.760   4.126  65.952  1.00  0.00    -0.047 OA 
HETATM   33  C   UNL     1      -5.365   4.387  66.150  1.00  0.00    -0.009 C  
ENDBRANCH  28  32
BRANCH  31  34
HETATM   34  O   UNL     1      -7.676   6.409  64.401  1.00  0.00    -0.095 OA 
HETATM   35  C   UNL     1      -8.287   5.619  63.389  1.00  0.00    -0.051 C  
ENDBRANCH  31  34
BRANCH  29  36
HETATM   36  O   UNL     1      -9.264   8.359  65.834  1.00  0.00    -0.195 OA 
HETATM   37  C   UNL     1     -10.256   9.089  66.553  1.00  0.00    -0.248 C  
ENDBRANCH  29  36
ENDBRANCH  24  26
ENDBRANCH  23  24
ENDBRANCH   3  23
BRANCH   5  38
HETATM   38  O   UNL     1      -9.453   3.968  73.754  1.00  0.00    -0.105 OA 
HETATM   39  C   UNL     1     -10.248   2.807  73.570  1.00  0.00    -0.118 C  
ENDBRANCH   5  38
BRANCH   7  40
HETATM   40  C   UNL     1      -7.004   6.081  72.176  1.00  0.00    -0.078 C  
HETATM   41  O   UNL     1      -6.690   5.367  71.232  1.00  0.00    -0.045 OA 
BRANCH  40  42
HETATM   42  O   UNL     1      -6.190   7.003  72.749  1.00  0.00    -0.052 OA 
HETATM   43  C   UNL     1      -5.459   7.839  71.853  1.00  0.00    -0.035 C  
ENDBRANCH  40  42
ENDBRANCH   7  40
BRANCH  15  44
HETATM   44  O   UNL     1     -10.315  15.192  67.117  1.00  0.00    -0.255 OA 
HETATM   45  C   UNL     1      -9.464  14.965  66.003  1.00  0.00    -0.281 C  
ENDBRANCH  15  44
TORSDOF 10
ENDMDL
MODEL       67
REMARK 921   NORMALIZED FREE ENERGY PREDICTED BY IDOCK:   -4.17 KCAL/MOL
REMARK 922        TOTAL FREE ENERGY PREDICTED BY IDOCK:   -9.36 KCAL/MOL
REMARK 923 INTER-LIGAND FREE ENERGY PREDICTED BY IDOCK:   -8.48 KCAL/MOL
REMARK 924 INTRA-LIGAND FREE ENERGY PREDICTED BY IDOCK:   -0.88 KCAL/MOL
REMARK 927      BINDING AFFINITY PREDICTED BY RF-SCORE:    0.00 PKD
ROOT
HETATM    1  C   UNL     1      -6.608  10.455  66.712  1.00  0.00    -0.078 C  
HETATM    2  C   UNL     1      -7.574  11.580  66.323  1.00  0.00     0.098 C  
HETATM    3  C   UNL     1      -8.345  12.239  67.508  1.00  0.00    -0.170 C  
HETATM    4  C   UNL     1      -9.022   6.600  66.094  1.00  0.00    -0.157 C  
HETATM    5  C   UNL     1      -7.277  13.069  68.219  1.00  0.00    -0.113 C  
HETATM    6  C   UNL     1      -7.183   9.132  66.189  1.00  0.00    -0.090 C  
HETATM    7  C   UNL     1      -6.260  12.022  68.800  1.00  0.00    -0.063 C  
HETATM    8  C   UNL     1      -9.402   8.092  66.106  1.00  0.00    -0.147 C  
HETATM    9  C   UNL     1      -8.762   6.180  67.499  1.00  0.00    -0.104 A  
HETATM   10  C   UNL     1      -6.302  10.494  68.219  1.00  0.00    -0.054 C  
HETATM   11  C   UNL     1      -8.932   4.040  70.396  1.00  0.00    -0.157 A  
HETATM   12  C   UNL     1      -8.407   7.099  68.474  1.00  0.00    -0.125 A  
HETATM   13  N   UNL     1      -8.422   6.426  69.672  1.00  0.00    -0.129 NA 
HETATM   14  C   UNL     1      -7.019   9.273  68.942  1.00  0.00    -0.064 C  
HETATM   15  C   UNL     1      -9.288   2.778  69.894  1.00  0.00    -0.132 A  
HETATM   16  N   UNL     1      -8.456   8.943  66.847  1.00  0.00    -0.111 NA 
HETATM   17  C   UNL     1      -9.464   2.598  68.534  1.00  0.00    -0.203 A  
HETATM   18  C   UNL     1      -8.292   8.606  68.272  1.00  0.00    -0.127 C  
HETATM   19  C   UNL     1      -9.313   3.645  67.612  1.00  0.00    -0.246 A  
HETATM   20  C   UNL     1      -8.938   4.917  68.102  1.00  0.00    -0.123 A  
HETATM   21  H   UNL     1      -8.218   6.847  70.578  1.00  0.00     0.000 HD 
HETATM   22  C   UNL     1      -8.755   5.092  69.474  1.00  0.00    -0.099 A  
ENDROOT
BRANCH   3  23
HETATM   23  O   UNL     1      -8.934  11.351  68.526  1.00  0.00    -0.164 OA 
BRANCH  23  24
HETATM   24  C   UNL     1     -10.293  11.326  68.506  1.00  0.00    -0.203 C  
HETATM   25  O   UNL     1     -10.920  10.321  68.187  1.00  0.00    -0.250 OA 
BRANCH  24  26
HETATM   26  C   UNL     1     -11.077  12.555  68.912  1.00  0.00    -0.309 A  
HETATM   27  C   UNL     1     -11.024  13.865  68.445  1.00  0.00    -0.272 A  
HETATM   28  C   UNL     1     -12.484  13.353  70.747  1.00  0.00    -0.341 A  
HETATM   29  C   UNL     1     -11.631  14.939  69.144  1.00  0.00    -0.307 A  
HETATM   30  C   UNL     1     -11.941  12.322  69.977  1.00  0.00    -0.379 A  
HETATM   31  C   UNL     1     -12.309  14.693  70.359  1.00  0.00    -0.339 A  
BRANCH  28  32
HETATM   32  O   UNL     1     -13.183  13.033  71.886  1.00  0.00    -0.431 OA 
HETATM   33  C   UNL     1     -13.438  11.634  72.062  1.00  0.00    -0.199 C  
ENDBRANCH  28  32
BRANCH  31  34
HETATM   34  O   UNL     1     -12.721  15.786  71.072  1.00  0.00    -0.463 OA 
HETATM   35  C   UNL     1     -11.975  16.200  72.210  1.00  0.00    -0.546 C  
ENDBRANCH  31  34
BRANCH  29  36
HETATM   36  O   UNL     1     -11.414  16.149  68.516  1.00  0.00    -0.376 OA 
HETATM   37  C   UNL     1     -10.252  16.905  68.850  1.00  0.00    -0.314 C  
ENDBRANCH  29  36
ENDBRANCH  24  26
ENDBRANCH  23  24
ENDBRANCH   3  23
BRANCH   5  38
HETATM   38  O   UNL     1      -6.655  13.945  67.254  1.00  0.00    -0.263 OA 
HETATM   39  C   UNL     1      -6.833  15.340  67.437  1.00  0.00    -0.154 C  
ENDBRANCH   5  38
BRANCH   7  40
HETATM   40  C   UNL     1      -6.277  12.091  70.316  1.00  0.00    -0.008 C  
HETATM   41  O   UNL     1      -6.349  11.133  71.076  1.00  0.00    -0.268 OA 
BRANCH  40  42
HETATM   42  O   UNL     1      -6.256  13.389  70.711  1.00  0.00    -0.059 OA 
HETATM   43  C   UNL     1      -5.394  13.697  71.806  1.00  0.00    -0.196 C  
ENDBRANCH  40  42
ENDBRANCH   7  40
BRANCH  15  44
HETATM   44  O   UNL     1      -9.489   1.644  70.636  1.00  0.00    -0.102 OA 
HETATM   45  C   UNL     1     -10.087   1.803  71.914  1.00  0.00    -0.147 C  
ENDBRANCH  15  44
TORSDOF 10
ENDMDL
MODEL       68
REMARK 921   NORMALIZED FREE ENERGY PREDICTED BY IDOCK:   -4.13 KCAL/MOL
REMARK 922        TOTAL FREE ENERGY PREDICTED BY IDOCK:   -9.30 KCAL/MOL
REMARK 923 INTER-LIGAND FREE ENERGY PREDICTED BY IDOCK:   -6.46 KCAL/MOL
REMARK 924 INTRA-LIGAND FREE ENERGY PREDICTED BY IDOCK:   -2.83 KCAL/MOL
REMARK 927      BINDING AFFINITY PREDICTED BY RF-SCORE:    0.00 PKD
ROOT
HETATM    1  C   UNL     1      -5.712   4.473  70.704  1.00  0.00    -0.013 C  
HETATM    2  C   UNL     1      -5.471   4.953  72.139  1.00  0.00    -0.008 C  
HETATM    3  C   UNL     1      -6.757   5.299  72.953  1.00  0.00    -0.071 C  
HETATM    4  C   UNL     1      -5.229   8.243  68.131  1.00  0.00    -0.034 C  
HETATM    5  C   UNL     1      -7.374   3.933  73.252  1.00  0.00    -0.069 C  
HETATM    6  C   UNL     1      -5.209   5.562  69.747  1.00  0.00    -0.004 C  
HETATM    7  C   UNL     1      -7.803   3.359  71.854  1.00  0.00    -0.058 C  
HETATM    8  C   UNL     1      -5.334   8.009  69.649  1.00  0.00    -0.023 C  
HETATM    9  C   UNL     1      -6.581   8.046  67.540  1.00  0.00    -0.058 A  
HETATM   10  C   UNL     1      -7.177   4.045  70.508  1.00  0.00    -0.041 C  
HETATM   11  C   UNL     1      -9.402   8.783  65.418  1.00  0.00    -0.095 A  
HETATM   12  C   UNL     1      -7.543   7.277  68.175  1.00  0.00    -0.115 A  
HETATM   13  N   UNL     1      -8.711   7.448  67.472  1.00  0.00    -0.124 NA 
HETATM   14  C   UNL     1      -7.931   5.115  69.606  1.00  0.00    -0.079 C  
HETATM   15  C   UNL     1      -8.898   9.645  64.432  1.00  0.00    -0.230 A  
HETATM   16  N   UNL     1      -5.996   6.745  70.013  1.00  0.00    -0.023 NA 
HETATM   17  C   UNL     1      -7.560   9.996  64.435  1.00  0.00    -0.145 A  
HETATM   18  C   UNL     1      -7.382   6.600  69.532  1.00  0.00    -0.091 C  
HETATM   19  C   UNL     1      -6.665   9.530  65.410  1.00  0.00    -0.081 A  
HETATM   20  C   UNL     1      -7.154   8.647  66.400  1.00  0.00    -0.079 A  
HETATM   21  H   UNL     1      -9.603   7.017  67.712  1.00  0.00     0.000 HD 
HETATM   22  C   UNL     1      -8.504   8.291  66.387  1.00  0.00    -0.121 A  
ENDROOT
BRANCH   3  23
HETATM   23  O   UNL     1      -7.801   6.095  72.286  1.00  0.00    -0.100 OA 
BRANCH  23  24
HETATM   24  C   UNL     1      -8.323   7.076  73.070  1.00  0.00    -0.106 C  
HETATM   25  O   UNL     1      -7.973   7.232  74.234  1.00  0.00    -0.127 OA 
BRANCH  24  26
HETATM   26  C   UNL     1      -9.347   8.033  72.500  1.00  0.00    -0.289 A  
HETATM   27  C   UNL     1     -10.697   8.203  72.794  1.00  0.00    -0.391 A  
HETATM   28  C   UNL     1      -9.668   9.494  70.564  1.00  0.00    -0.263 A  
HETATM   29  C   UNL     1     -11.562   8.952  71.954  1.00  0.00    -0.371 A  
HETATM   30  C   UNL     1      -8.845   8.817  71.467  1.00  0.00    -0.295 A  
HETATM   31  C   UNL     1     -11.057   9.546  70.776  1.00  0.00    -0.323 A  
BRANCH  28  32
HETATM   32  O   UNL     1      -9.097  10.099  69.470  1.00  0.00    -0.199 OA 
HETATM   33  C   UNL     1      -7.773  10.602  69.685  1.00  0.00    -0.070 C  
ENDBRANCH  28  32
BRANCH  31  34
HETATM   34  O   UNL     1     -11.969  10.105  69.923  1.00  0.00    -0.191 OA 
HETATM   35  C   UNL     1     -12.264  11.492  70.026  1.00  0.00    -0.278 C  
ENDBRANCH  31  34
BRANCH  29  36
HETATM   36  O   UNL     1     -12.861   8.949  72.422  1.00  0.00    -0.392 OA 
HETATM   37  C   UNL     1     -13.834   8.143  71.760  1.00  0.00    -0.393 C  
ENDBRANCH  29  36
ENDBRANCH  24  26
ENDBRANCH  23  24
ENDBRANCH   3  23
BRANCH   5  38
HETATM   38  O   UNL     1      -6.378   3.106  73.891  1.00  0.00    -0.021 OA 
HETATM   39  C   UNL     1      -6.530   1.700  73.770  1.00  0.00    -0.013 C  
ENDBRANCH   5  38
BRANCH   7  40
HETATM   40  C   UNL     1      -9.313   3.214  71.810  1.00  0.00    -0.126 C  
HETATM   41  O   UNL     1      -9.965   2.793  70.863  1.00  0.00    -0.046 OA 
BRANCH  40  42
HETATM   42  O   UNL     1      -9.847   3.678  72.967  1.00  0.00    -0.122 OA 
HETATM   43  C   UNL     1     -10.999   4.510  72.838  1.00  0.00    -0.180 C  
ENDBRANCH  40  42
ENDBRANCH   7  40
BRANCH  15  44
HETATM   44  O   UNL     1      -9.617  10.207  63.410  1.00  0.00    -0.296 OA 
HETATM   45  C   UNL     1      -9.544  11.618  63.265  1.00  0.00    -0.311 C  
ENDBRANCH  15  44
TORSDOF 10
ENDMDL
MODEL       69
REMARK 921   NORMALIZED FREE ENERGY PREDICTED BY IDOCK:   -4.13 KCAL/MOL
REMARK 922        TOTAL FREE ENERGY PREDICTED BY IDOCK:   -9.30 KCAL/MOL
REMARK 923 INTER-LIGAND FREE ENERGY PREDICTED BY IDOCK:   -7.36 KCAL/MOL
REMARK 924 INTRA-LIGAND FREE ENERGY PREDICTED BY IDOCK:   -1.93 KCAL/MOL
REMARK 927      BINDING AFFINITY PREDICTED BY RF-SCORE:    0.00 PKD
ROOT
HETATM    1  C   UNL     1      -5.810   7.773  67.711  1.00  0.00    -0.040 C  
HETATM    2  C   UNL     1      -6.841   6.809  68.308  1.00  0.00    -0.077 C  
HETATM    3  C   UNL     1      -8.237   6.809  67.611  1.00  0.00    -0.119 C  
HETATM    4  C   UNL     1      -6.103  11.538  70.320  1.00  0.00    -0.140 C  
HETATM    5  C   UNL     1      -7.978   6.098  66.283  1.00  0.00    -0.106 C  
HETATM    6  C   UNL     1      -5.566   8.898  68.726  1.00  0.00    -0.041 C  
HETATM    7  C   UNL     1      -7.018   7.051  65.486  1.00  0.00    -0.056 C  
HETATM    8  C   UNL     1      -6.966  10.269  70.199  1.00  0.00    -0.155 C  
HETATM    9  C   UNL     1      -6.356  12.382  69.120  1.00  0.00    -0.095 A  
HETATM   10  C   UNL     1      -6.237   8.230  66.306  1.00  0.00    -0.046 C  
HETATM   11  C   UNL     1      -6.988  15.425  67.292  1.00  0.00    -0.180 A  
HETATM   12  C   UNL     1      -6.831  11.836  67.939  1.00  0.00    -0.077 A  
HETATM   13  N   UNL     1      -7.125  12.891  67.108  1.00  0.00    -0.363 NA 
HETATM   14  C   UNL     1      -6.696   9.751  66.355  1.00  0.00    -0.080 C  
HETATM   15  C   UNL     1      -6.596  16.457  68.159  1.00  0.00    -0.128 A  
HETATM   16  N   UNL     1      -6.829   9.575  68.907  1.00  0.00    -0.054 NA 
HETATM   17  C   UNL     1      -6.075  16.156  69.404  1.00  0.00    -0.160 A  
HETATM   18  C   UNL     1      -7.199  10.372  67.724  1.00  0.00    -0.086 C  
HETATM   19  C   UNL     1      -5.928  14.835  69.857  1.00  0.00    -0.132 A  
HETATM   20  C   UNL     1      -6.302  13.786  68.988  1.00  0.00    -0.100 A  
HETATM   21  H   UNL     1      -7.510  12.801  66.169  1.00  0.00     0.000 HD 
HETATM   22  C   UNL     1      -6.822  14.095  67.729  1.00  0.00    -0.176 A  
ENDROOT
BRANCH   3  23
HETATM   23  O   UNL     1      -8.843   8.110  67.280  1.00  0.00    -0.128 OA 
BRANCH  23  24
HETATM   24  C   UNL     1     -10.167   8.187  67.579  1.00  0.00    -0.243 C  
HETATM   25  O   UNL     1     -11.002   7.490  67.015  1.00  0.00    -0.306 OA 
BRANCH  24  26
HETATM   26  C   UNL     1     -10.643   9.135  68.659  1.00  0.00    -0.207 A  
HETATM   27  C   UNL     1     -11.052   8.895  69.967  1.00  0.00    -0.180 A  
HETATM   28  C   UNL     1     -11.480  11.421  68.903  1.00  0.00    -0.298 A  
HETATM   29  C   UNL     1     -11.735   9.873  70.735  1.00  0.00    -0.341 A  
HETATM   30  C   UNL     1     -10.739  10.452  68.222  1.00  0.00    -0.275 A  
HETATM   31  C   UNL     1     -12.025  11.134  70.168  1.00  0.00    -0.365 A  
BRANCH  28  32
HETATM   32  O   UNL     1     -11.670  12.647  68.314  1.00  0.00    -0.308 OA 
HETATM   33  C   UNL     1     -11.446  12.676  66.899  1.00  0.00    -0.343 C  
ENDBRANCH  28  32
BRANCH  31  34
HETATM   34  O   UNL     1     -12.833  11.969  70.891  1.00  0.00    -0.238 OA 
HETATM   35  C   UNL     1     -12.334  13.230  71.317  1.00  0.00    -0.160 C  
ENDBRANCH  31  34
BRANCH  29  36
HETATM   36  O   UNL     1     -12.078   9.398  71.985  1.00  0.00    -0.362 OA 
HETATM   37  C   UNL     1     -11.631   8.102  72.380  1.00  0.00    -0.399 C  
ENDBRANCH  29  36
ENDBRANCH  24  26
ENDBRANCH  23  24
ENDBRANCH   3  23
BRANCH   5  38
HETATM   38  O   UNL     1      -7.364   4.820  66.556  1.00  0.00    -0.079 OA 
HETATM   39  C   UNL     1      -8.229   3.741  66.874  1.00  0.00    -0.096 C  
ENDBRANCH   5  38
BRANCH   7  40
HETATM   40  C   UNL     1      -7.725   7.551  64.239  1.00  0.00    -0.128 C  
HETATM   41  O   UNL     1      -8.735   8.244  64.217  1.00  0.00     0.034 OA 
BRANCH  40  42
HETATM   42  O   UNL     1      -7.100   7.065  63.137  1.00  0.00    -0.057 OA 
HETATM   43  C   UNL     1      -7.500   5.764  62.711  1.00  0.00    -0.059 C  
ENDBRANCH  40  42
ENDBRANCH   7  40
BRANCH  15  44
HETATM   44  O   UNL     1      -6.672  17.800  67.899  1.00  0.00    -0.184 OA 
HETATM   45  C   UNL     1      -6.175  18.683  68.894  1.00  0.00    -0.231 C  
ENDBRANCH  15  44
TORSDOF 10
ENDMDL
MODEL       70
REMARK 921   NORMALIZED FREE ENERGY PREDICTED BY IDOCK:   -4.11 KCAL/MOL
REMARK 922        TOTAL FREE ENERGY PREDICTED BY IDOCK:   -9.27 KCAL/MOL
REMARK 923 INTER-LIGAND FREE ENERGY PREDICTED BY IDOCK:   -7.48 KCAL/MOL
REMARK 924 INTRA-LIGAND FREE ENERGY PREDICTED BY IDOCK:   -1.79 KCAL/MOL
REMARK 927      BINDING AFFINITY PREDICTED BY RF-SCORE:    0.00 PKD
ROOT
HETATM    1  C   UNL     1     -12.328  15.987  68.550  1.00  0.00     0.686 C  
HETATM    2  C   UNL     1     -11.481  17.081  69.210  1.00  0.00     0.646 C  
HETATM    3  C   UNL     1      -9.938  16.931  69.030  1.00  0.00    -0.265 C  
HETATM    4  C   UNL     1     -13.143  12.973  71.914  1.00  0.00    -0.483 C  
HETATM    5  C   UNL     1      -9.707  17.295  67.564  1.00  0.00    -0.264 C  
HETATM    6  C   UNL     1     -12.960  15.139  69.661  1.00  0.00     0.326 C  
HETATM    7  C   UNL     1     -10.422  16.163  66.742  1.00  0.00    -0.294 C  
HETATM    8  C   UNL     1     -12.203  14.186  71.791  1.00  0.00    -0.157 C  
HETATM    9  C   UNL     1     -12.575  11.866  71.097  1.00  0.00    -0.390 A  
HETATM   10  C   UNL     1     -11.503  15.208  67.512  1.00  0.00    -0.306 C  
HETATM   11  C   UNL     1     -11.594   8.479  70.342  1.00  0.00    -0.075 A  
HETATM   12  C   UNL     1     -11.709  12.115  70.044  1.00  0.00    -0.252 A  
HETATM   13  N   UNL     1     -11.235  10.895  69.627  1.00  0.00    -0.262 NA 
HETATM   14  C   UNL     1     -11.187  13.751  68.062  1.00  0.00    -0.293 C  
HETATM   15  C   UNL     1     -12.313   7.683  71.249  1.00  0.00    -0.309 A  
HETATM   16  N   UNL     1     -11.871  14.544  70.401  1.00  0.00    -0.295 NA 
HETATM   17  C   UNL     1     -13.185   8.271  72.147  1.00  0.00    -0.297 A  
HETATM   18  C   UNL     1     -11.195  13.489  69.626  1.00  0.00    -0.063 C  
HETATM   19  C   UNL     1     -13.380   9.659  72.204  1.00  0.00    -0.545 A  
HETATM   20  C   UNL     1     -12.677  10.472  71.286  1.00  0.00    -0.532 A  
HETATM   21  H   UNL     1     -10.563  10.759  68.873  1.00  0.00     0.000 HD 
HETATM   22  C   UNL     1     -11.802   9.873  70.377  1.00  0.00    -0.234 A  
ENDROOT
BRANCH   3  23
HETATM   23  O   UNL     1      -9.347  15.597  69.231  1.00  0.00    -0.234 OA 
BRANCH  23  24
HETATM   24  C   UNL     1      -7.993  15.613  69.348  1.00  0.00    -0.226 C  
HETATM   25  O   UNL     1      -7.362  16.658  69.463  1.00  0.00    -0.174 OA 
BRANCH  24  26
HETATM   26  C   UNL     1      -7.222  14.311  69.369  1.00  0.00    -0.051 A  
HETATM   27  C   UNL     1      -7.262  13.214  68.512  1.00  0.00    -0.110 A  
HETATM   28  C   UNL     1      -5.868  12.963  70.898  1.00  0.00    -0.006 A  
HETATM   29  C   UNL     1      -6.676  11.968  68.855  1.00  0.00    -0.093 A  
HETATM   30  C   UNL     1      -6.389  14.189  70.476  1.00  0.00    -0.081 A  
HETATM   31  C   UNL     1      -6.033  11.814  70.103  1.00  0.00    -0.162 A  
BRANCH  28  32
HETATM   32  O   UNL     1      -5.202  12.902  72.098  1.00  0.00    -0.353 OA 
HETATM   33  C   UNL     1      -5.184  14.129  72.838  1.00  0.00    -0.250 C  
ENDBRANCH  28  32
BRANCH  31  34
HETATM   34  O   UNL     1      -5.643  10.549  70.448  1.00  0.00    -0.059 OA 
HETATM   35  C   UNL     1      -6.566   9.685  71.098  1.00  0.00     0.021 C  
ENDBRANCH  31  34
BRANCH  29  36
HETATM   36  O   UNL     1      -6.876  11.019  67.872  1.00  0.00    -0.066 OA 
HETATM   37  C   UNL     1      -7.618  11.374  66.707  1.00  0.00    -0.143 C  
ENDBRANCH  29  36
ENDBRANCH  24  26
ENDBRANCH  23  24
ENDBRANCH   3  23
BRANCH   5  38
HETATM   38  O   UNL     1     -10.289  18.592  67.313  1.00  0.00    -0.358 OA 
HETATM   39  C   UNL     1     -10.457  18.975  65.957  1.00  0.00    -0.458 C  
ENDBRANCH   5  38
BRANCH   7  40
HETATM   40  C   UNL     1      -9.387  15.386  65.950  1.00  0.00    -0.294 C  
HETATM   41  O   UNL     1      -8.172  15.529  66.024  1.00  0.00     0.133 OA 
BRANCH  40  42
HETATM   42  O   UNL     1     -10.012  14.537  65.096  1.00  0.00    -0.354 OA 
HETATM   43  C   UNL     1     -11.193  15.034  64.469  1.00  0.00    -0.265 C  
ENDBRANCH  40  42
ENDBRANCH   7  40
BRANCH  15  44
HETATM   44  O   UNL     1     -12.247   6.318  71.350  1.00  0.00    -0.214 OA 
HETATM   45  C   UNL     1     -11.221   5.663  70.619  1.00  0.00    -0.019 C  
ENDBRANCH  15  44
TORSDOF 10
ENDMDL
MODEL       71
REMARK 921   NORMALIZED FREE ENERGY PREDICTED BY IDOCK:   -4.09 KCAL/MOL
REMARK 922        TOTAL FREE ENERGY PREDICTED BY IDOCK:   -9.24 KCAL/MOL
REMARK 923 INTER-LIGAND FREE ENERGY PREDICTED BY IDOCK:   -7.50 KCAL/MOL
REMARK 924 INTRA-LIGAND FREE ENERGY PREDICTED BY IDOCK:   -1.73 KCAL/MOL
REMARK 927      BINDING AFFINITY PREDICTED BY RF-SCORE:    0.00 PKD
ROOT
HETATM    1  C   UNL     1      -6.946   6.982  65.042  1.00  0.00    -0.052 C  
HETATM    2  C   UNL     1      -7.948   7.834  64.257  1.00  0.00    -0.120 C  
HETATM    3  C   UNL     1      -8.376   9.168  64.945  1.00  0.00    -0.162 C  
HETATM    4  C   UNL     1      -9.537   3.933  67.290  1.00  0.00    -0.222 C  
HETATM    5  C   UNL     1      -7.141  10.057  64.810  1.00  0.00    -0.137 C  
HETATM    6  C   UNL     1      -7.669   5.717  65.521  1.00  0.00    -0.089 C  
HETATM    7  C   UNL     1      -6.038   9.367  65.691  1.00  0.00    -0.060 C  
HETATM    8  C   UNL     1      -9.863   5.208  66.492  1.00  0.00    -0.192 C  
HETATM    9  C   UNL     1      -8.940   4.344  68.591  1.00  0.00    -0.153 A  
HETATM   10  C   UNL     1      -6.266   7.813  66.144  1.00  0.00    -0.045 C  
HETATM   11  C   UNL     1      -8.424   4.283  72.159  1.00  0.00    -0.111 A  
HETATM   12  C   UNL     1      -8.325   5.576  68.747  1.00  0.00    -0.102 A  
HETATM   13  N   UNL     1      -8.053   5.713  70.087  1.00  0.00    -0.101 NA 
HETATM   14  C   UNL     1      -6.807   7.359  67.567  1.00  0.00    -0.078 C  
HETATM   15  C   UNL     1      -8.929   3.041  72.577  1.00  0.00    -0.087 A  
HETATM   16  N   UNL     1      -8.737   6.152  66.391  1.00  0.00    -0.133 NA 
HETATM   17  C   UNL     1      -9.449   2.157  71.650  1.00  0.00    -0.194 A  
HETATM   18  C   UNL     1      -8.225   6.658  67.677  1.00  0.00    -0.122 C  
HETATM   19  C   UNL     1      -9.510   2.455  70.280  1.00  0.00    -0.158 A  
HETATM   20  C   UNL     1      -8.990   3.695  69.842  1.00  0.00    -0.170 A  
HETATM   21  H   UNL     1      -7.614   6.529  70.511  1.00  0.00     0.000 HD 
HETATM   22  C   UNL     1      -8.460   4.581  70.782  1.00  0.00    -0.091 A  
ENDROOT
BRANCH   3  23
HETATM   23  O   UNL     1      -8.710   9.127  66.380  1.00  0.00    -0.124 OA 
BRANCH  23  24
HETATM   24  C   UNL     1      -9.990   9.496  66.652  1.00  0.00    -0.247 C  
HETATM   25  O   UNL     1     -10.910   8.686  66.669  1.00  0.00    -0.084 OA 
BRANCH  24  26
HETATM   26  C   UNL     1     -10.306  10.940  66.973  1.00  0.00    -0.276 A  
HETATM   27  C   UNL     1      -9.847  12.123  66.400  1.00  0.00    -0.242 A  
HETATM   28  C   UNL     1     -11.286  12.285  68.767  1.00  0.00    -0.289 A  
HETATM   29  C   UNL     1     -10.034  13.384  67.023  1.00  0.00    -0.246 A  
HETATM   30  C   UNL     1     -11.148  11.082  68.071  1.00  0.00    -0.343 A  
HETATM   31  C   UNL     1     -10.698  13.461  68.268  1.00  0.00    -0.258 A  
BRANCH  28  32
HETATM   32  O   UNL     1     -11.998  12.295  69.942  1.00  0.00    -0.324 OA 
HETATM   33  C   UNL     1     -12.314  10.999  70.464  1.00  0.00    -0.373 C  
ENDBRANCH  28  32
BRANCH  31  34
HETATM   34  O   UNL     1     -10.695  14.676  68.899  1.00  0.00    -0.234 OA 
HETATM   35  C   UNL     1     -11.772  15.578  68.683  1.00  0.00    -0.348 C  
ENDBRANCH  31  34
BRANCH  29  36
HETATM   36  O   UNL     1      -9.460  14.407  66.294  1.00  0.00    -0.290 OA 
HETATM   37  C   UNL     1     -10.239  15.071  65.301  1.00  0.00    -0.377 C  
ENDBRANCH  29  36
ENDBRANCH  24  26
ENDBRANCH  23  24
ENDBRANCH   3  23
BRANCH   5  38
HETATM   38  O   UNL     1      -6.762  10.112  63.418  1.00  0.00    -0.132 OA 
HETATM   39  C   UNL     1      -5.510  10.706  63.112  1.00  0.00    -0.151 C  
ENDBRANCH   5  38
BRANCH   7  40
HETATM   40  C   UNL     1      -5.667  10.283  66.842  1.00  0.00    -0.046 C  
HETATM   41  O   UNL     1      -5.311   9.923  67.958  1.00  0.00    -0.039 OA 
BRANCH  40  42
HETATM   42  O   UNL     1      -5.843  11.575  66.470  1.00  0.00    -0.146 OA 
HETATM   43  C   UNL     1      -6.382  12.447  67.462  1.00  0.00    -0.148 C  
ENDBRANCH  40  42
ENDBRANCH   7  40
BRANCH  15  44
HETATM   44  O   UNL     1      -8.964   2.580  73.867  1.00  0.00    -0.073 OA 
HETATM   45  C   UNL     1     -10.243   2.430  74.467  1.00  0.00    -0.135 C  
ENDBRANCH  15  44
TORSDOF 10
ENDMDL
MODEL       72
REMARK 921   NORMALIZED FREE ENERGY PREDICTED BY IDOCK:   -4.07 KCAL/MOL
REMARK 922        TOTAL FREE ENERGY PREDICTED BY IDOCK:   -9.21 KCAL/MOL
REMARK 923 INTER-LIGAND FREE ENERGY PREDICTED BY IDOCK:   -7.74 KCAL/MOL
REMARK 924 INTRA-LIGAND FREE ENERGY PREDICTED BY IDOCK:   -1.48 KCAL/MOL
REMARK 927      BINDING AFFINITY PREDICTED BY RF-SCORE:    0.00 PKD
ROOT
HETATM    1  C   UNL     1      -6.594   9.258  67.001  1.00  0.00    -0.068 C  
HETATM    2  C   UNL     1      -7.755   8.405  67.523  1.00  0.00    -0.099 C  
HETATM    3  C   UNL     1      -9.161   8.768  66.954  1.00  0.00    -0.156 C  
HETATM    4  C   UNL     1      -6.039  12.519  70.183  1.00  0.00    -0.099 C  
HETATM    5  C   UNL     1      -9.111   8.258  65.514  1.00  0.00    -0.006 C  
HETATM    6  C   UNL     1      -6.091  10.135  68.156  1.00  0.00    -0.048 C  
HETATM    7  C   UNL     1      -8.033   9.148  64.798  1.00  0.00    -0.126 C  
HETATM    8  C   UNL     1      -7.130  11.461  69.937  1.00  0.00     0.238 C  
HETATM    9  C   UNL     1      -6.193  13.586  69.156  1.00  0.00    -0.097 A  
HETATM   10  C   UNL     1      -7.002  10.015  65.726  1.00  0.00    -0.112 C  
HETATM   11  C   UNL     1      -6.340  16.958  67.886  1.00  0.00    -0.149 A  
HETATM   12  C   UNL     1      -6.824  13.340  67.947  1.00  0.00    -0.140 A  
HETATM   13  N   UNL     1      -6.959  14.555  67.320  1.00  0.00    -0.356 NA 
HETATM   14  C   UNL     1      -7.165  11.562  66.050  1.00  0.00     0.344 C  
HETATM   15  C   UNL     1      -5.717  17.743  68.869  1.00  0.00    -0.180 A  
HETATM   16  N   UNL     1      -7.194  10.983  68.546  1.00  0.00    -0.080 NA 
HETATM   17  C   UNL     1      -5.196  17.148  70.003  1.00  0.00    -0.202 A  
HETATM   18  C   UNL     1      -7.470  12.021  67.537  1.00  0.00    -0.140 C  
HETATM   19  C   UNL     1      -5.275  15.765  70.230  1.00  0.00    -0.139 A  
HETATM   20  C   UNL     1      -5.885  14.960  69.241  1.00  0.00    -0.102 A  
HETATM   21  H   UNL     1      -7.404  14.695  66.413  1.00  0.00     0.000 HD 
HETATM   22  C   UNL     1      -6.403  15.565  68.094  1.00  0.00    -0.125 A  
ENDROOT
BRANCH   3  23
HETATM   23  O   UNL     1      -9.529  10.192  66.882  1.00  0.00    -0.162 OA 
BRANCH  23  24
HETATM   24  C   UNL     1     -10.763  10.462  67.386  1.00  0.00    -0.283 C  
HETATM   25  O   UNL     1     -11.650  10.960  66.701  1.00  0.00    -0.188 OA 
BRANCH  24  26
HETATM   26  C   UNL     1     -11.082  10.119  68.825  1.00  0.00    -0.250 A  
HETATM   27  C   UNL     1     -10.861   8.955  69.555  1.00  0.00    -0.163 A  
HETATM   28  C   UNL     1     -12.476  10.916  70.671  1.00  0.00    -0.369 A  
HETATM   29  C   UNL     1     -11.487   8.720  70.806  1.00  0.00    -0.270 A  
HETATM   30  C   UNL     1     -11.770  11.132  69.486  1.00  0.00    -0.405 A  
HETATM   31  C   UNL     1     -12.372   9.683  71.341  1.00  0.00    -0.378 A  
BRANCH  28  32
HETATM   32  O   UNL     1     -13.271  11.922  71.164  1.00  0.00    -0.143 OA 
HETATM   33  C   UNL     1     -12.562  13.075  71.632  1.00  0.00    -0.118 C  
ENDBRANCH  28  32
BRANCH  31  34
HETATM   34  O   UNL     1     -13.075   9.326  72.459  1.00  0.00    -0.418 OA 
HETATM   35  C   UNL     1     -14.395   8.815  72.321  1.00  0.00    -0.380 C  
ENDBRANCH  31  34
BRANCH  29  36
HETATM   36  O   UNL     1     -11.151   7.485  71.324  1.00  0.00    -0.241 OA 
HETATM   37  C   UNL     1     -11.363   6.320  70.530  1.00  0.00    -0.361 C  
ENDBRANCH  29  36
ENDBRANCH  24  26
ENDBRANCH  23  24
ENDBRANCH   3  23
BRANCH   5  38
HETATM   38  O   UNL     1      -8.733   6.864  65.531  1.00  0.00    -0.124 OA 
HETATM   39  C   UNL     1      -7.966   6.388  64.436  1.00  0.00    -0.108 C  
ENDBRANCH   5  38
BRANCH   7  40
HETATM   40  C   UNL     1      -8.699   9.968  63.709  1.00  0.00    -0.217 C  
HETATM   41  O   UNL     1      -8.173  10.334  62.665  1.00  0.00    -0.140 OA 
BRANCH  40  42
HETATM   42  O   UNL     1      -9.962  10.287  64.089  1.00  0.00    -0.315 OA 
HETATM   43  C   UNL     1     -10.461  11.538  63.618  1.00  0.00    -0.427 C  
ENDBRANCH  40  42
ENDBRANCH   7  40
BRANCH  15  44
HETATM   44  O   UNL     1      -5.554  19.103  68.829  1.00  0.00    -0.194 OA 
HETATM   45  C   UNL     1      -6.441  19.838  67.999  1.00  0.00    -0.241 C  
ENDBRANCH  15  44
TORSDOF 10
ENDMDL
MODEL       73
REMARK 921   NORMALIZED FREE ENERGY PREDICTED BY IDOCK:   -4.00 KCAL/MOL
REMARK 922        TOTAL FREE ENERGY PREDICTED BY IDOCK:   -9.09 KCAL/MOL
REMARK 923 INTER-LIGAND FREE ENERGY PREDICTED BY IDOCK:   -7.78 KCAL/MOL
REMARK 924 INTRA-LIGAND FREE ENERGY PREDICTED BY IDOCK:   -1.31 KCAL/MOL
REMARK 927      BINDING AFFINITY PREDICTED BY RF-SCORE:    0.00 PKD
ROOT
HETATM    1  C   UNL     1      -6.226  10.331  66.847  1.00  0.00    -0.068 C  
HETATM    2  C   UNL     1      -7.126  11.462  66.336  1.00  0.00     0.000 C  
HETATM    3  C   UNL     1      -7.928  12.226  67.435  1.00  0.00    -0.171 C  
HETATM    4  C   UNL     1      -8.757   6.534  66.355  1.00  0.00    -0.142 C  
HETATM    5  C   UNL     1      -6.864  13.062  68.145  1.00  0.00    -0.104 C  
HETATM    6  C   UNL     1      -6.827   8.998  66.381  1.00  0.00    -0.079 C  
HETATM    7  C   UNL     1      -5.920  12.019  68.844  1.00  0.00    -0.060 C  
HETATM    8  C   UNL     1      -9.078   8.036  66.250  1.00  0.00    -0.186 C  
HETATM    9  C   UNL     1      -8.584   6.199  67.796  1.00  0.00    -0.114 A  
HETATM   10  C   UNL     1      -5.994  10.459  68.362  1.00  0.00    -0.040 C  
HETATM   11  C   UNL     1      -8.982   4.264  70.812  1.00  0.00    -0.154 A  
HETATM   12  C   UNL     1      -8.242   7.167  68.727  1.00  0.00    -0.122 A  
HETATM   13  N   UNL     1      -8.343   6.577  69.963  1.00  0.00    -0.132 NA 
HETATM   14  C   UNL     1      -6.793   9.316  69.124  1.00  0.00    -0.050 C  
HETATM   15  C   UNL     1      -9.362   2.986  70.375  1.00  0.00    -0.156 A  
HETATM   16  N   UNL     1      -8.137   8.899  66.983  1.00  0.00    -0.109 NA 
HETATM   17  C   UNL     1      -9.478   2.721  69.022  1.00  0.00    -0.160 A  
HETATM   18  C   UNL     1      -8.057   8.652  68.433  1.00  0.00    -0.118 C  
HETATM   19  C   UNL     1      -9.240   3.699  68.044  1.00  0.00    -0.220 A  
HETATM   20  C   UNL     1      -8.839   4.986  68.468  1.00  0.00    -0.112 A  
HETATM   21  H   UNL     1      -8.167   7.049  70.849  1.00  0.00     0.000 HD 
HETATM   22  C   UNL     1      -8.718   5.246  69.835  1.00  0.00    -0.105 A  
ENDROOT
BRANCH   3  23
HETATM   23  O   UNL     1      -8.602  11.430  68.476  1.00  0.00    -0.151 OA 
BRANCH  23  24
HETATM   24  C   UNL     1      -9.935  11.678  68.574  1.00  0.00    -0.194 C  
HETATM   25  O   UNL     1     -10.726  10.828  68.968  1.00  0.00    -0.200 OA 
BRANCH  24  26
HETATM   26  C   UNL     1     -10.476  13.045  68.219  1.00  0.00    -0.258 A  
HETATM   27  C   UNL     1     -10.713  13.639  66.983  1.00  0.00    -0.278 A  
HETATM   28  C   UNL     1     -10.851  15.233  69.250  1.00  0.00    -0.257 A  
HETATM   29  C   UNL     1     -10.951  15.031  66.849  1.00  0.00    -0.324 A  
HETATM   30  C   UNL     1     -10.705  13.846  69.334  1.00  0.00    -0.051 A  
HETATM   31  C   UNL     1     -10.944  15.859  67.993  1.00  0.00    -0.336 A  
BRANCH  28  32
HETATM   32  O   UNL     1     -10.896  15.967  70.410  1.00  0.00    -0.323 OA 
HETATM   33  C   UNL     1     -11.480  15.288  71.529  1.00  0.00    -0.396 C  
ENDBRANCH  28  32
BRANCH  31  34
HETATM   34  O   UNL     1     -11.007  17.209  67.783  1.00  0.00    -0.315 OA 
HETATM   35  C   UNL     1      -9.801  17.954  67.664  1.00  0.00    -0.304 C  
ENDBRANCH  31  34
BRANCH  29  36
HETATM   36  O   UNL     1     -11.119  15.398  65.528  1.00  0.00    -0.333 OA 
HETATM   37  C   UNL     1     -11.740  14.483  64.628  1.00  0.00    -0.431 C  
ENDBRANCH  29  36
ENDBRANCH  24  26
ENDBRANCH  23  24
ENDBRANCH   3  23
BRANCH   5  38
HETATM   38  O   UNL     1      -6.161  13.848  67.159  1.00  0.00    -0.213 OA 
HETATM   39  C   UNL     1      -5.897  15.205  67.482  1.00  0.00     0.038 C  
ENDBRANCH   5  38
BRANCH   7  40
HETATM   40  C   UNL     1      -6.009  12.190  70.350  1.00  0.00    -0.103 C  
HETATM   41  O   UNL     1      -5.972  11.287  71.177  1.00  0.00    -0.374 OA 
BRANCH  40  42
HETATM   42  O   UNL     1      -6.193  13.500  70.648  1.00  0.00    -0.101 OA 
HETATM   43  C   UNL     1      -5.298  14.058  71.608  1.00  0.00    -0.211 C  
ENDBRANCH  40  42
ENDBRANCH   7  40
BRANCH  15  44
HETATM   44  O   UNL     1      -9.645   1.911  71.177  1.00  0.00    -0.128 OA 
HETATM   45  C   UNL     1      -9.935   2.180  72.541  1.00  0.00    -0.138 C  
ENDBRANCH  15  44
TORSDOF 10
ENDMDL
MODEL       74
REMARK 921   NORMALIZED FREE ENERGY PREDICTED BY IDOCK:   -4.00 KCAL/MOL
REMARK 922        TOTAL FREE ENERGY PREDICTED BY IDOCK:   -9.09 KCAL/MOL
REMARK 923 INTER-LIGAND FREE ENERGY PREDICTED BY IDOCK:   -7.90 KCAL/MOL
REMARK 924 INTRA-LIGAND FREE ENERGY PREDICTED BY IDOCK:   -1.19 KCAL/MOL
REMARK 927      BINDING AFFINITY PREDICTED BY RF-SCORE:    0.00 PKD
ROOT
HETATM    1  C   UNL     1     -11.741  11.658  68.340  1.00  0.00    -0.374 C  
HETATM    2  C   UNL     1     -10.998  12.886  68.876  1.00  0.00    -0.271 C  
HETATM    3  C   UNL     1      -9.863  13.435  67.957  1.00  0.00    -0.229 C  
HETATM    4  C   UNL     1      -9.650   8.086  70.324  1.00  0.00    -0.171 C  
HETATM    5  C   UNL     1     -10.618  14.091  66.802  1.00  0.00    -0.277 C  
HETATM    6  C   UNL     1     -11.372  10.456  69.219  1.00  0.00    -0.235 C  
HETATM    7  C   UNL     1     -11.342  12.912  66.059  1.00  0.00    -0.354 C  
HETATM    8  C   UNL     1      -9.314   9.586  70.230  1.00  0.00    -0.259 C  
HETATM    9  C   UNL     1      -9.382   7.470  68.994  1.00  0.00    -0.146 A  
HETATM   10  C   UNL     1     -11.487  11.479  66.833  1.00  0.00    -0.261 C  
HETATM   11  C   UNL     1      -8.150   4.987  66.689  1.00  0.00    -0.108 A  
HETATM   12  C   UNL     1      -9.377   8.228  67.834  1.00  0.00    -0.138 A  
HETATM   13  N   UNL     1      -8.923   7.407  66.830  1.00  0.00    -0.130 NA 
HETATM   14  C   UNL     1     -10.540  10.225  66.596  1.00  0.00    -0.232 C  
HETATM   15  C   UNL     1      -7.979   3.828  67.462  1.00  0.00    -0.089 A  
HETATM   16  N   UNL     1      -9.945  10.268  69.087  1.00  0.00    -0.211 NA 
HETATM   17  C   UNL     1      -8.299   3.838  68.807  1.00  0.00    -0.088 A  
HETATM   18  C   UNL     1      -9.582   9.738  67.761  1.00  0.00    -0.135 C  
HETATM   19  C   UNL     1      -8.787   4.985  69.453  1.00  0.00    -0.116 A  
HETATM   20  C   UNL     1      -8.982   6.154  68.684  1.00  0.00    -0.126 A  
HETATM   21  H   UNL     1      -8.796   7.692  65.860  1.00  0.00     0.000 HD 
HETATM   22  C   UNL     1      -8.663   6.136  67.325  1.00  0.00    -0.108 A  
ENDROOT
BRANCH   3  23
HETATM   23  O   UNL     1      -8.934  12.463  67.353  1.00  0.00    -0.171 OA 
BRANCH  23  24
HETATM   24  C   UNL     1      -7.653  12.911  67.272  1.00  0.00    -0.099 C  
HETATM   25  O   UNL     1      -6.728  12.179  66.939  1.00  0.00    -0.110 OA 
BRANCH  24  26
HETATM   26  C   UNL     1      -7.341  14.362  67.571  1.00  0.00    -0.208 A  
HETATM   27  C   UNL     1      -7.582  15.516  66.832  1.00  0.00    -0.162 A  
HETATM   28  C   UNL     1      -5.938  15.704  69.058  1.00  0.00    -0.106 A  
HETATM   29  C   UNL     1      -6.961  16.753  67.143  1.00  0.00    -0.191 A  
HETATM   30  C   UNL     1      -6.639  14.534  68.759  1.00  0.00    -0.088 A  
HETATM   31  C   UNL     1      -6.062  16.834  68.230  1.00  0.00    -0.132 A  
BRANCH  28  32
HETATM   32  O   UNL     1      -5.127  15.727  70.167  1.00  0.00    -0.116 OA 
HETATM   33  C   UNL     1      -5.492  14.800  71.198  1.00  0.00    -0.122 C  
ENDBRANCH  28  32
BRANCH  31  34
HETATM   34  O   UNL     1      -5.365  18.003  68.374  1.00  0.00    -0.154 OA 
HETATM   35  C   UNL     1      -5.647  18.852  69.479  1.00  0.00    -0.217 C  
ENDBRANCH  31  34
BRANCH  29  36
HETATM   36  O   UNL     1      -7.316  17.745  66.251  1.00  0.00    -0.249 OA 
HETATM   37  C   UNL     1      -8.599  18.357  66.369  1.00  0.00    -0.247 C  
ENDBRANCH  29  36
ENDBRANCH  24  26
ENDBRANCH  23  24
ENDBRANCH   3  23
BRANCH   5  38
HETATM   38  O   UNL     1     -11.559  15.042  67.347  1.00  0.00    -0.348 OA 
HETATM   39  C   UNL     1     -11.022  16.204  67.959  1.00  0.00    -0.338 C  
ENDBRANCH   5  38
BRANCH   7  40
HETATM   40  C   UNL     1     -10.784  12.784  64.654  1.00  0.00    -0.337 C  
HETATM   41  O   UNL     1      -9.630  13.019  64.317  1.00  0.00     0.051 OA 
BRANCH  40  42
HETATM   42  O   UNL     1     -11.776  12.421  63.802  1.00  0.00    -0.397 OA 
HETATM   43  C   UNL     1     -12.532  13.486  63.229  1.00  0.00     0.045 C  
ENDBRANCH  40  42
ENDBRANCH   7  40
BRANCH  15  44
HETATM   44  O   UNL     1      -7.507   2.623  67.012  1.00  0.00    -0.067 OA 
HETATM   45  C   UNL     1      -7.966   2.180  65.743  1.00  0.00    -0.082 C  
ENDBRANCH  15  44
TORSDOF 10
ENDMDL
MODEL       75
REMARK 921   NORMALIZED FREE ENERGY PREDICTED BY IDOCK:   -4.00 KCAL/MOL
REMARK 922        TOTAL FREE ENERGY PREDICTED BY IDOCK:   -9.09 KCAL/MOL
REMARK 923 INTER-LIGAND FREE ENERGY PREDICTED BY IDOCK:   -7.18 KCAL/MOL
REMARK 924 INTRA-LIGAND FREE ENERGY PREDICTED BY IDOCK:   -1.91 KCAL/MOL
REMARK 927      BINDING AFFINITY PREDICTED BY RF-SCORE:    0.00 PKD
ROOT
HETATM    1  C   UNL     1      -8.107   9.787  64.883  1.00  0.00    -0.140 C  
HETATM    2  C   UNL     1      -9.569  10.004  64.477  1.00  0.00    -0.346 C  
HETATM    3  C   UNL     1     -10.453  10.739  65.532  1.00  0.00    -0.194 C  
HETATM    4  C   UNL     1      -8.006   5.530  66.596  1.00  0.00    -0.101 C  
HETATM    5  C   UNL     1      -9.965  12.185  65.469  1.00  0.00    -0.246 C  
HETATM    6  C   UNL     1      -7.895   8.285  65.113  1.00  0.00    -0.120 C  
HETATM    7  C   UNL     1      -8.485  12.144  65.994  1.00  0.00     0.352 C  
HETATM    8  C   UNL     1      -9.151   6.479  66.198  1.00  0.00    -0.124 C  
HETATM    9  C   UNL     1      -7.417   6.028  67.870  1.00  0.00    -0.085 A  
HETATM   10  C   UNL     1      -7.725  10.698  66.062  1.00  0.00    -0.151 C  
HETATM   11  C   UNL     1      -6.073   5.788  71.207  1.00  0.00    -0.034 A  
HETATM   12  C   UNL     1      -7.539   7.353  68.254  1.00  0.00    -0.114 A  
HETATM   13  N   UNL     1      -7.056   7.437  69.537  1.00  0.00    -0.068 NA 
HETATM   14  C   UNL     1      -7.562   9.826  67.381  1.00  0.00    -0.091 C  
HETATM   15  C   UNL     1      -5.712   4.440  71.357  1.00  0.00    -0.012 A  
HETATM   16  N   UNL     1      -8.772   7.903  66.197  1.00  0.00    -0.151 NA 
HETATM   17  C   UNL     1      -5.892   3.554  70.310  1.00  0.00    -0.018 A  
HETATM   18  C   UNL     1      -8.305   8.429  67.491  1.00  0.00    -0.129 C  
HETATM   19  C   UNL     1      -6.445   3.946  69.081  1.00  0.00    -0.033 A  
HETATM   20  C   UNL     1      -6.796   5.305  68.910  1.00  0.00    -0.055 A  
HETATM   21  H   UNL     1      -7.032   8.291  70.095  1.00  0.00     0.000 HD 
HETATM   22  C   UNL     1      -6.606   6.196  69.967  1.00  0.00    -0.044 A  
ENDROOT
BRANCH   3  23
HETATM   23  O   UNL     1     -10.341  10.318  66.939  1.00  0.00    -0.222 OA 
BRANCH  23  24
HETATM   24  C   UNL     1     -11.372  10.739  67.718  1.00  0.00    -0.279 C  
HETATM   25  O   UNL     1     -12.105  11.662  67.383  1.00  0.00    -0.605 OA 
BRANCH  24  26
HETATM   26  C   UNL     1     -11.660  10.042  69.030  1.00  0.00     0.006 A  
HETATM   27  C   UNL     1     -12.364  10.468  70.153  1.00  0.00    -0.339 A  
HETATM   28  C   UNL     1     -10.872   8.137  70.348  1.00  0.00    -0.236 A  
HETATM   29  C   UNL     1     -12.283   9.788  71.396  1.00  0.00    -0.397 A  
HETATM   30  C   UNL     1     -11.053   8.795  69.129  1.00  0.00     0.139 A  
HETATM   31  C   UNL     1     -11.462   8.645  71.519  1.00  0.00    -0.295 A  
BRANCH  28  32
HETATM   32  O   UNL     1     -10.108   6.996  70.380  1.00  0.00    -0.187 OA 
HETATM   33  C   UNL     1     -10.679   5.870  69.700  1.00  0.00    -0.345 C  
ENDBRANCH  28  32
BRANCH  31  34
HETATM   34  O   UNL     1     -11.289   8.138  72.778  1.00  0.00    -0.397 OA 
HETATM   35  C   UNL     1      -9.974   7.887  73.256  1.00  0.00    -0.263 C  
ENDBRANCH  31  34
BRANCH  29  36
HETATM   36  O   UNL     1     -13.031  10.414  72.373  1.00  0.00    -0.275 OA 
HETATM   37  C   UNL     1     -13.427  11.771  72.181  1.00  0.00    -0.168 C  
ENDBRANCH  29  36
ENDBRANCH  24  26
ENDBRANCH  23  24
ENDBRANCH   3  23
BRANCH   5  38
HETATM   38  O   UNL     1     -10.038  12.639  64.100  1.00  0.00    -0.346 OA 
HETATM   39  C   UNL     1     -11.331  12.832  63.551  1.00  0.00    -0.420 C  
ENDBRANCH   5  38
BRANCH   7  40
HETATM   40  C   UNL     1      -8.385  12.939  67.283  1.00  0.00    -0.185 C  
HETATM   41  O   UNL     1      -9.329  13.363  67.938  1.00  0.00    -0.200 OA 
BRANCH  40  42
HETATM   42  O   UNL     1      -7.080  13.162  67.580  1.00  0.00    -0.148 OA 
HETATM   43  C   UNL     1      -6.826  13.935  68.751  1.00  0.00    -0.105 C  
ENDBRANCH  40  42
ENDBRANCH   7  40
BRANCH  15  44
HETATM   44  O   UNL     1      -5.170   3.871  72.479  1.00  0.00     0.000 OA 
HETATM   45  C   UNL     1      -5.608   4.371  73.735  1.00  0.00    -0.008 C  
ENDBRANCH  15  44
TORSDOF 10
ENDMDL
MODEL       76
REMARK 921   NORMALIZED FREE ENERGY PREDICTED BY IDOCK:   -3.97 KCAL/MOL
REMARK 922        TOTAL FREE ENERGY PREDICTED BY IDOCK:   -9.05 KCAL/MOL
REMARK 923 INTER-LIGAND FREE ENERGY PREDICTED BY IDOCK:   -7.65 KCAL/MOL
REMARK 924 INTRA-LIGAND FREE ENERGY PREDICTED BY IDOCK:   -1.40 KCAL/MOL
REMARK 927      BINDING AFFINITY PREDICTED BY RF-SCORE:    0.00 PKD
ROOT
HETATM    1  C   UNL     1      -5.533  13.452  67.706  1.00  0.00    -0.085 C  
HETATM    2  C   UNL     1      -6.311  14.647  67.147  1.00  0.00     0.597 C  
HETATM    3  C   UNL     1      -7.147  15.449  68.192  1.00  0.00    -0.121 C  
HETATM    4  C   UNL     1      -8.263   9.841  66.944  1.00  0.00    -0.117 C  
HETATM    5  C   UNL     1      -6.090  16.201  69.000  1.00  0.00    -0.131 C  
HETATM    6  C   UNL     1      -6.181  12.169  67.169  1.00  0.00    -0.143 C  
HETATM    7  C   UNL     1      -5.276  15.088  69.753  1.00  0.00    -0.091 C  
HETATM    8  C   UNL     1      -8.474  11.363  66.843  1.00  0.00    -0.157 C  
HETATM    9  C   UNL     1      -8.229   9.477  68.388  1.00  0.00    -0.113 A  
HETATM   10  C   UNL     1      -5.415  13.543  69.237  1.00  0.00    -0.076 C  
HETATM   11  C   UNL     1      -8.996   7.533  71.327  1.00  0.00    -0.142 A  
HETATM   12  C   UNL     1      -7.899  10.407  69.361  1.00  0.00    -0.161 A  
HETATM   13  N   UNL     1      -8.138   9.808  70.574  1.00  0.00    -0.354 NA 
HETATM   14  C   UNL     1      -6.347  12.447  69.912  1.00  0.00    -0.048 C  
HETATM   15  C   UNL     1      -9.424   6.289  70.837  1.00  0.00    -0.172 A  
HETATM   16  N   UNL     1      -7.539  12.151  67.663  1.00  0.00    -0.129 NA 
HETATM   17  C   UNL     1      -9.448   6.051  69.475  1.00  0.00    -0.161 A  
HETATM   18  C   UNL     1      -7.592  11.880  69.111  1.00  0.00     0.117 C  
HETATM   19  C   UNL     1      -9.067   7.024  68.536  1.00  0.00    -0.131 A  
HETATM   20  C   UNL     1      -8.617   8.275  69.016  1.00  0.00    -0.135 A  
HETATM   21  H   UNL     1      -8.002  10.256  71.480  1.00  0.00     0.000 HD 
HETATM   22  C   UNL     1      -8.589   8.508  70.392  1.00  0.00    -0.143 A  
ENDROOT
BRANCH   3  23
HETATM   23  O   UNL     1      -7.953  14.687  69.162  1.00  0.00    -0.148 OA 
BRANCH  23  24
HETATM   24  C   UNL     1      -9.240  15.114  69.255  1.00  0.00    -0.205 C  
HETATM   25  O   UNL     1      -9.549  16.112  69.896  1.00  0.00    -0.062 OA 
BRANCH  24  26
HETATM   26  C   UNL     1     -10.338  14.365  68.531  1.00  0.00    -0.248 A  
HETATM   27  C   UNL     1     -10.863  13.093  68.740  1.00  0.00    -0.278 A  
HETATM   28  C   UNL     1     -11.583  14.446  66.427  1.00  0.00    -0.375 A  
HETATM   29  C   UNL     1     -11.689  12.452  67.780  1.00  0.00    -0.350 A  
HETATM   30  C   UNL     1     -10.844  15.062  67.439  1.00  0.00    -0.305 A  
HETATM   31  C   UNL     1     -11.993  13.107  66.566  1.00  0.00    -0.398 A  
BRANCH  28  32
HETATM   32  O   UNL     1     -11.893  15.166  65.299  1.00  0.00    -0.212 OA 
HETATM   33  C   UNL     1     -10.787  15.859  64.705  1.00  0.00    -0.324 C  
ENDBRANCH  28  32
BRANCH  31  34
HETATM   34  O   UNL     1     -12.646  12.375  65.612  1.00  0.00    -0.575 OA 
HETATM   35  C   UNL     1     -11.988  12.078  64.387  1.00  0.00    -0.300 C  
ENDBRANCH  31  34
BRANCH  29  36
HETATM   36  O   UNL     1     -12.057  11.184  68.184  1.00  0.00    -0.633 OA 
HETATM   37  C   UNL     1     -11.611  10.704  69.450  1.00  0.00    -0.280 C  
ENDBRANCH  29  36
ENDBRANCH  24  26
ENDBRANCH  23  24
ENDBRANCH   3  23
BRANCH   5  38
HETATM   38  O   UNL     1      -5.259  16.952  68.088  1.00  0.00    -0.111 OA 
HETATM   39  C   UNL     1      -5.636  18.294  67.823  1.00  0.00    -0.155 C  
ENDBRANCH   5  38
BRANCH   7  40
HETATM   40  C   UNL     1      -5.474  15.245  71.249  1.00  0.00     0.027 C  
HETATM   41  O   UNL     1      -5.161  16.224  71.915  1.00  0.00    -0.264 OA 
BRANCH  40  42
HETATM   42  O   UNL     1      -6.005  14.105  71.758  1.00  0.00    -0.219 OA 
HETATM   43  C   UNL     1      -5.433  13.637  72.978  1.00  0.00     0.057 C  
ENDBRANCH  40  42
ENDBRANCH   7  40
BRANCH  15  44
HETATM   44  O   UNL     1      -9.841   5.226  71.594  1.00  0.00    -0.159 OA 
HETATM   45  C   UNL     1     -11.004   5.412  72.387  1.00  0.00    -0.240 C  
ENDBRANCH  15  44
TORSDOF 10
ENDMDL
MODEL       77
REMARK 921   NORMALIZED FREE ENERGY PREDICTED BY IDOCK:   -3.95 KCAL/MOL
REMARK 922        TOTAL FREE ENERGY PREDICTED BY IDOCK:   -9.02 KCAL/MOL
REMARK 923 INTER-LIGAND FREE ENERGY PREDICTED BY IDOCK:   -7.05 KCAL/MOL
REMARK 924 INTRA-LIGAND FREE ENERGY PREDICTED BY IDOCK:   -1.97 KCAL/MOL
REMARK 927      BINDING AFFINITY PREDICTED BY RF-SCORE:    0.00 PKD
ROOT
HETATM    1  C   UNL     1     -10.411  14.955  65.804  1.00  0.00    -0.345 C  
HETATM    2  C   UNL     1     -11.644  14.918  66.714  1.00  0.00    -0.275 C  
HETATM    3  C   UNL     1     -11.379  14.451  68.179  1.00  0.00    -0.294 C  
HETATM    4  C   UNL     1     -10.499  10.940  63.580  1.00  0.00    -0.301 C  
HETATM    5  C   UNL     1     -10.646  15.635  68.809  1.00  0.00    -0.238 C  
HETATM    6  C   UNL     1     -10.556  13.840  64.760  1.00  0.00    -0.428 C  
HETATM    7  C   UNL     1      -9.273  15.719  68.052  1.00  0.00    -0.188 C  
HETATM    8  C   UNL     1     -11.285  11.498  64.780  1.00  0.00    -0.188 C  
HETATM    9  C   UNL     1      -9.118  10.624  64.042  1.00  0.00    -0.246 A  
HETATM   10  C   UNL     1      -9.117  14.919  66.635  1.00  0.00    -0.309 C  
HETATM   11  C   UNL     1      -6.099   8.676  64.348  1.00  0.00    -0.066 A  
HETATM   12  C   UNL     1      -8.569  11.241  65.154  1.00  0.00     0.164 A  
HETATM   13  N   UNL     1      -7.380  10.602  65.411  1.00  0.00    -0.322 NA 
HETATM   14  C   UNL     1      -8.414  13.503  66.471  1.00  0.00     0.298 C  
HETATM   15  C   UNL     1      -6.146   7.766  63.280  1.00  0.00    -0.063 A  
HETATM   16  N   UNL     1     -10.598  12.592  65.488  1.00  0.00    -0.268 NA 
HETATM   17  C   UNL     1      -7.204   7.793  62.392  1.00  0.00    -0.091 A  
HETATM   18  C   UNL     1      -9.283  12.244  66.054  1.00  0.00    -0.085 C  
HETATM   19  C   UNL     1      -8.267   8.701  62.518  1.00  0.00    -0.194 A  
HETATM   20  C   UNL     1      -8.226   9.635  63.578  1.00  0.00    -0.158 A  
HETATM   21  H   UNL     1      -6.754  10.827  66.183  1.00  0.00     0.000 HD 
HETATM   22  C   UNL     1      -7.151   9.608  64.468  1.00  0.00    -0.121 A  
ENDROOT
BRANCH   3  23
HETATM   23  O   UNL     1     -10.523  13.270  68.383  1.00  0.00    -0.243 OA 
BRANCH  23  24
HETATM   24  C   UNL     1     -11.089  12.316  69.169  1.00  0.00    -0.203 C  
HETATM   25  O   UNL     1     -12.162  12.492  69.735  1.00  0.00    -0.234 OA 
BRANCH  24  26
HETATM   26  C   UNL     1     -10.403  10.979  69.344  1.00  0.00    -0.134 A  
HETATM   27  C   UNL     1     -10.913   9.732  69.695  1.00  0.00    -0.269 A  
HETATM   28  C   UNL     1      -8.158  10.053  69.644  1.00  0.00    -0.172 A  
HETATM   29  C   UNL     1     -10.074   8.658  70.089  1.00  0.00    -0.185 A  
HETATM   30  C   UNL     1      -9.023  11.049  69.185  1.00  0.00    -0.000 A  
HETATM   31  C   UNL     1      -8.674   8.842  70.140  1.00  0.00    -0.161 A  
BRANCH  28  32
HETATM   32  O   UNL     1      -6.804  10.281  69.606  1.00  0.00    -0.066 OA 
HETATM   33  C   UNL     1      -6.428  11.613  69.235  1.00  0.00    -0.105 C  
ENDBRANCH  28  32
BRANCH  31  34
HETATM   34  O   UNL     1      -7.934   7.832  70.690  1.00  0.00    -0.094 OA 
HETATM   35  C   UNL     1      -7.927   7.660  72.102  1.00  0.00    -0.105 C  
ENDBRANCH  31  34
BRANCH  29  36
HETATM   36  O   UNL     1     -10.802   7.536  70.431  1.00  0.00    -0.235 OA 
HETATM   37  C   UNL     1     -10.572   6.319  69.724  1.00  0.00    -0.264 C  
ENDBRANCH  29  36
ENDBRANCH  24  26
ENDBRANCH  23  24
ENDBRANCH   3  23
BRANCH   5  38
HETATM   38  O   UNL     1     -11.441  16.826  68.617  1.00  0.00    -0.188 OA 
HETATM   39  C   UNL     1     -10.742  18.042  68.406  1.00  0.00    -0.116 C  
ENDBRANCH   5  38
BRANCH   7  40
HETATM   40  C   UNL     1      -8.143  15.445  69.027  1.00  0.00    -0.213 C  
HETATM   41  O   UNL     1      -7.986  14.414  69.671  1.00  0.00     0.126 OA 
BRANCH  40  42
HETATM   42  O   UNL     1      -7.351  16.542  69.125  1.00  0.00    -0.217 OA 
HETATM   43  C   UNL     1      -6.118  16.365  69.821  1.00  0.00    -0.212 C  
ENDBRANCH  40  42
ENDBRANCH   7  40
BRANCH  15  44
HETATM   44  O   UNL     1      -5.210   6.804  63.002  1.00  0.00    -0.029 OA 
HETATM   45  C   UNL     1      -5.425   5.512  63.552  1.00  0.00    -0.014 C  
ENDBRANCH  15  44
TORSDOF 10
ENDMDL
MODEL       78
REMARK 921   NORMALIZED FREE ENERGY PREDICTED BY IDOCK:   -3.95 KCAL/MOL
REMARK 922        TOTAL FREE ENERGY PREDICTED BY IDOCK:   -9.01 KCAL/MOL
REMARK 923 INTER-LIGAND FREE ENERGY PREDICTED BY IDOCK:   -7.23 KCAL/MOL
REMARK 924 INTRA-LIGAND FREE ENERGY PREDICTED BY IDOCK:   -1.78 KCAL/MOL
REMARK 927      BINDING AFFINITY PREDICTED BY RF-SCORE:    0.00 PKD
ROOT
HETATM    1  C   UNL     1     -11.372  10.123  66.994  1.00  0.00     0.379 C  
HETATM    2  C   UNL     1     -10.284   9.180  66.471  1.00  0.00    -0.322 C  
HETATM    3  C   UNL     1      -9.027   9.038  67.385  1.00  0.00    -0.124 C  
HETATM    4  C   UNL     1     -10.527  14.125  64.910  1.00  0.00    -0.461 C  
HETATM    5  C   UNL     1      -9.528   8.204  68.562  1.00  0.00    -0.143 C  
HETATM    6  C   UNL     1     -11.407  11.360  66.086  1.00  0.00    -0.043 C  
HETATM    7  C   UNL     1     -10.582   9.112  69.293  1.00  0.00    -0.229 C  
HETATM    8  C   UNL     1      -9.736  12.810  65.029  1.00  0.00     0.055 C  
HETATM    9  C   UNL     1     -10.457  14.824  66.223  1.00  0.00    -0.300 A  
HETATM   10  C   UNL     1     -11.176  10.408  68.493  1.00  0.00    -0.308 C  
HETATM   11  C   UNL     1     -10.053  17.622  68.462  1.00  0.00    -0.375 A  
HETATM   12  C   UNL     1     -10.206  14.134  67.398  1.00  0.00    -0.244 A  
HETATM   13  N   UNL     1     -10.025  15.079  68.379  1.00  0.00    -0.220 NA 
HETATM   14  C   UNL     1     -10.670  11.901  68.692  1.00  0.00    -0.266 C  
HETATM   15  C   UNL     1     -10.261  18.758  67.663  1.00  0.00    -0.399 A  
HETATM   16  N   UNL     1     -10.111  11.991  66.193  1.00  0.00    -0.220 NA 
HETATM   17  C   UNL     1     -10.572  18.616  66.324  1.00  0.00    -0.396 A  
HETATM   18  C   UNL     1      -9.924  12.639  67.503  1.00  0.00    -0.205 C  
HETATM   19  C   UNL     1     -10.679  17.360  65.707  1.00  0.00    -0.120 A  
HETATM   20  C   UNL     1     -10.490  16.207  66.502  1.00  0.00    -0.298 A  
HETATM   21  H   UNL     1      -9.808  14.871  69.353  1.00  0.00     0.000 HD 
HETATM   22  C   UNL     1     -10.182  16.355  67.856  1.00  0.00    -0.268 A  
ENDROOT
BRANCH   3  23
HETATM   23  O   UNL     1      -8.447  10.266  67.956  1.00  0.00    -0.116 OA 
BRANCH  23  24
HETATM   24  C   UNL     1      -7.088  10.270  67.972  1.00  0.00    -0.083 C  
HETATM   25  O   UNL     1      -6.443  11.304  68.109  1.00  0.00    -0.056 OA 
BRANCH  24  26
HETATM   26  C   UNL     1      -6.328   8.968  67.847  1.00  0.00    -0.056 A  
HETATM   27  C   UNL     1      -5.905   8.264  66.722  1.00  0.00    -0.048 A  
HETATM   28  C   UNL     1      -5.730   7.015  69.193  1.00  0.00    -0.018 A  
HETATM   29  C   UNL     1      -5.458   6.919  66.799  1.00  0.00    -0.018 A  
HETATM   30  C   UNL     1      -6.081   8.361  69.074  1.00  0.00    -0.043 A  
HETATM   31  C   UNL     1      -5.443   6.254  68.045  1.00  0.00    -0.004 A  
BRANCH  28  32
HETATM   32  O   UNL     1      -5.678   6.451  70.445  1.00  0.00    -0.018 OA 
HETATM   33  C   UNL     1      -6.952   6.265  71.075  1.00  0.00    -0.068 C  
ENDBRANCH  28  32
BRANCH  31  34
HETATM   34  O   UNL     1      -5.170   4.914  68.030  1.00  0.00    -0.009 OA 
HETATM   35  C   UNL     1      -6.244   3.982  68.019  1.00  0.00    -0.036 C  
ENDBRANCH  31  34
BRANCH  29  36
HETATM   36  O   UNL     1      -5.130   6.416  65.556  1.00  0.00    -0.013 OA 
HETATM   37  C   UNL     1      -6.158   5.859  64.740  1.00  0.00    -0.026 C  
ENDBRANCH  29  36
ENDBRANCH  24  26
ENDBRANCH  23  24
ENDBRANCH   3  23
BRANCH   5  38
HETATM   38  O   UNL     1     -10.126   6.993  68.050  1.00  0.00    -0.155 OA 
HETATM   39  C   UNL     1     -11.079   6.342  68.875  1.00  0.00    -0.362 C  
ENDBRANCH   5  38
BRANCH   7  40
HETATM   40  C   UNL     1     -10.082   9.442  70.687  1.00  0.00    -0.291 C  
HETATM   41  O   UNL     1      -8.957   9.215  71.117  1.00  0.00    -0.223 OA 
BRANCH  40  42
HETATM   42  O   UNL     1     -11.091   9.980  71.416  1.00  0.00    -0.259 OA 
HETATM   43  C   UNL     1     -12.057   9.061  71.925  1.00  0.00    -0.378 C  
ENDBRANCH  40  42
ENDBRANCH   7  40
BRANCH  15  44
HETATM   44  O   UNL     1     -10.190  20.061  68.083  1.00  0.00    -0.422 OA 
HETATM   45  C   UNL     1      -9.743  21.022  67.138  1.00  0.00    -0.018 C  
ENDBRANCH  15  44
TORSDOF 10
ENDMDL
MODEL       79
REMARK 921   NORMALIZED FREE ENERGY PREDICTED BY IDOCK:   -3.95 KCAL/MOL
REMARK 922        TOTAL FREE ENERGY PREDICTED BY IDOCK:   -9.01 KCAL/MOL
REMARK 923 INTER-LIGAND FREE ENERGY PREDICTED BY IDOCK:   -7.18 KCAL/MOL
REMARK 924 INTRA-LIGAND FREE ENERGY PREDICTED BY IDOCK:   -1.83 KCAL/MOL
REMARK 927      BINDING AFFINITY PREDICTED BY RF-SCORE:    0.00 PKD
ROOT
HETATM    1  C   UNL     1      -5.561  11.197  67.753  1.00  0.00    -0.043 C  
HETATM    2  C   UNL     1      -6.293  12.144  66.797  1.00  0.00     0.123 C  
HETATM    3  C   UNL     1      -7.305  13.123  67.470  1.00  0.00    -0.148 C  
HETATM    4  C   UNL     1      -8.006   7.315  67.627  1.00  0.00    -0.114 C  
HETATM    5  C   UNL     1      -6.409  14.137  68.180  1.00  0.00    -0.132 C  
HETATM    6  C   UNL     1      -6.072   9.773  67.497  1.00  0.00    -0.058 C  
HETATM    7  C   UNL     1      -5.674  13.322  69.304  1.00  0.00    -0.083 C  
HETATM    8  C   UNL     1      -8.258   8.738  67.095  1.00  0.00    -0.104 C  
HETATM    9  C   UNL     1      -8.173   7.340  69.106  1.00  0.00    -0.122 A  
HETATM   10  C   UNL     1      -5.675  11.690  69.206  1.00  0.00    -0.057 C  
HETATM   11  C   UNL     1      -9.292   6.170  72.328  1.00  0.00    -0.149 A  
HETATM   12  C   UNL     1      -8.027   8.512  69.831  1.00  0.00    -0.106 A  
HETATM   13  N   UNL     1      -8.420   8.231  71.117  1.00  0.00    -0.130 NA 
HETATM   14  C   UNL     1      -6.654  10.738  70.019  1.00  0.00    -0.159 C  
HETATM   15  C   UNL     1      -9.594   4.812  72.135  1.00  0.00    -0.153 A  
HETATM   16  N   UNL     1      -7.487   9.780  67.793  1.00  0.00    -0.090 NA 
HETATM   17  C   UNL     1      -9.407   4.229  70.896  1.00  0.00    -0.220 A  
HETATM   18  C   UNL     1      -7.744   9.889  69.239  1.00  0.00    -0.109 C  
HETATM   19  C   UNL     1      -8.929   4.952  69.791  1.00  0.00    -0.138 A  
HETATM   20  C   UNL     1      -8.604   6.315  69.974  1.00  0.00    -0.134 A  
HETATM   21  H   UNL     1      -8.438   8.907  71.880  1.00  0.00     0.000 HD 
HETATM   22  C   UNL     1      -8.789   6.897  71.230  1.00  0.00    -0.135 A  
ENDROOT
BRANCH   3  23
HETATM   23  O   UNL     1      -8.216  12.578  68.491  1.00  0.00    -0.147 OA 
BRANCH  23  24
HETATM   24  C   UNL     1      -9.527  12.641  68.140  1.00  0.00    -0.218 C  
HETATM   25  O   UNL     1     -10.001  11.929  67.262  1.00  0.00    -0.186 OA 
BRANCH  24  26
HETATM   26  C   UNL     1     -10.456  13.594  68.863  1.00  0.00    -0.167 A  
HETATM   27  C   UNL     1     -10.422  14.979  68.989  1.00  0.00    -0.245 A  
HETATM   28  C   UNL     1     -12.206  13.562  70.572  1.00  0.00    -0.361 A  
HETATM   29  C   UNL     1     -11.215  15.669  69.943  1.00  0.00    -0.331 A  
HETATM   30  C   UNL     1     -11.467  12.943  69.562  1.00  0.00    -0.292 A  
HETATM   31  C   UNL     1     -12.066  14.943  70.805  1.00  0.00    -0.317 A  
BRANCH  28  32
HETATM   32  O   UNL     1     -13.060  12.801  71.332  1.00  0.00    -0.329 OA 
HETATM   33  C   UNL     1     -12.994  11.391  71.082  1.00  0.00    -0.253 C  
ENDBRANCH  28  32
BRANCH  31  34
HETATM   34  O   UNL     1     -12.671  15.642  71.814  1.00  0.00    -0.394 OA 
HETATM   35  C   UNL     1     -12.252  15.435  73.156  1.00  0.00    -0.456 C  
ENDBRANCH  31  34
BRANCH  29  36
HETATM   36  O   UNL     1     -10.984  17.030  69.915  1.00  0.00    -0.111 OA 
HETATM   37  C   UNL     1     -10.250  17.586  68.826  1.00  0.00    -0.373 C  
ENDBRANCH  29  36
ENDBRANCH  24  26
ENDBRANCH  23  24
ENDBRANCH   3  23
BRANCH   5  38
HETATM   38  O   UNL     1      -5.481  14.687  67.220  1.00  0.00    -0.291 OA 
HETATM   39  C   UNL     1      -5.314  16.096  67.215  1.00  0.00    -0.020 C  
ENDBRANCH   5  38
BRANCH   7  40
HETATM   40  C   UNL     1      -6.098  13.844  70.664  1.00  0.00    -0.131 C  
HETATM   41  O   UNL     1      -6.938  14.712  70.869  1.00  0.00     0.328 OA 
BRANCH  40  42
HETATM   42  O   UNL     1      -5.361  13.243  71.631  1.00  0.00    -0.237 OA 
HETATM   43  C   UNL     1      -5.424  13.835  72.928  1.00  0.00    -0.029 C  
ENDBRANCH  40  42
ENDBRANCH   7  40
BRANCH  15  44
HETATM   44  O   UNL     1     -10.078   3.952  73.087  1.00  0.00    -0.132 OA 
HETATM   45  C   UNL     1     -10.228   4.461  74.404  1.00  0.00    -0.233 C  
ENDBRANCH  15  44
TORSDOF 10
ENDMDL
MODEL       80
REMARK 921   NORMALIZED FREE ENERGY PREDICTED BY IDOCK:   -3.88 KCAL/MOL
REMARK 922        TOTAL FREE ENERGY PREDICTED BY IDOCK:   -8.90 KCAL/MOL
REMARK 923 INTER-LIGAND FREE ENERGY PREDICTED BY IDOCK:   -8.36 KCAL/MOL
REMARK 924 INTRA-LIGAND FREE ENERGY PREDICTED BY IDOCK:   -0.54 KCAL/MOL
REMARK 927      BINDING AFFINITY PREDICTED BY RF-SCORE:    0.00 PKD
ROOT
HETATM    1  C   UNL     1     -12.018  11.890  67.500  1.00  0.00    -0.102 C  
HETATM    2  C   UNL     1     -11.290  13.191  67.851  1.00  0.00    -0.321 C  
HETATM    3  C   UNL     1      -9.877  13.361  67.210  1.00  0.00    -0.233 C  
HETATM    4  C   UNL     1     -11.089   9.067  70.997  1.00  0.00    -0.356 C  
HETATM    5  C   UNL     1     -10.179  13.640  65.738  1.00  0.00    -0.308 C  
HETATM    6  C   UNL     1     -12.082  11.023  68.764  1.00  0.00    -0.114 C  
HETATM    7  C   UNL     1     -10.825  12.316  65.192  1.00  0.00    -0.340 C  
HETATM    8  C   UNL     1     -10.533  10.438  70.573  1.00  0.00     0.173 C  
HETATM    9  C   UNL     1     -10.549   8.042  70.062  1.00  0.00    -0.242 A  
HETATM   10  C   UNL     1     -11.380  11.220  66.270  1.00  0.00    -0.057 C  
HETATM   11  C   UNL     1      -9.083   4.892  69.095  1.00  0.00    -0.144 A  
HETATM   12  C   UNL     1     -10.114   8.380  68.791  1.00  0.00    -0.196 A  
HETATM   13  N   UNL     1      -9.517   7.259  68.267  1.00  0.00    -0.141 NA 
HETATM   14  C   UNL     1     -10.590   9.917  66.720  1.00  0.00    -0.214 C  
HETATM   15  C   UNL     1      -9.299   4.041  70.190  1.00  0.00    -0.170 A  
HETATM   16  N   UNL     1     -10.716  10.740  69.143  1.00  0.00    -0.213 NA 
HETATM   17  C   UNL     1      -9.979   4.501  71.303  1.00  0.00    -0.258 A  
HETATM   18  C   UNL     1     -10.075   9.792  68.215  1.00  0.00    -0.163 C  
HETATM   19  C   UNL     1     -10.462   5.816  71.397  1.00  0.00    -0.296 A  
HETATM   20  C   UNL     1     -10.267   6.679  70.295  1.00  0.00    -0.215 A  
HETATM   21  H   UNL     1      -9.084   7.207  67.346  1.00  0.00     0.000 HD 
HETATM   22  C   UNL     1      -9.586   6.207  69.171  1.00  0.00    -0.135 A  
ENDROOT
BRANCH   3  23
HETATM   23  O   UNL     1      -8.963  12.206  67.240  1.00  0.00    -0.171 OA 
BRANCH  23  24
HETATM   24  C   UNL     1      -7.664  12.545  67.454  1.00  0.00    -0.167 C  
HETATM   25  O   UNL     1      -6.746  11.756  67.261  1.00  0.00    -0.107 OA 
BRANCH  24  26
HETATM   26  C   UNL     1      -7.315  13.943  67.918  1.00  0.00    -0.157 A  
HETATM   27  C   UNL     1      -7.410  15.169  67.266  1.00  0.00    -0.216 A  
HETATM   28  C   UNL     1      -6.027  15.064  69.669  1.00  0.00    -0.116 A  
HETATM   29  C   UNL     1      -6.767  16.335  67.757  1.00  0.00    -0.142 A  
HETATM   30  C   UNL     1      -6.747  13.969  69.187  1.00  0.00    -0.112 A  
HETATM   31  C   UNL     1      -5.997  16.267  68.939  1.00  0.00    -0.129 A  
BRANCH  28  32
HETATM   32  O   UNL     1      -5.349  14.943  70.858  1.00  0.00    -0.131 OA 
HETATM   33  C   UNL     1      -5.511  13.679  71.515  1.00  0.00    -0.211 C  
ENDBRANCH  28  32
BRANCH  31  34
HETATM   34  O   UNL     1      -5.263  17.375  69.267  1.00  0.00    -0.156 OA 
HETATM   35  C   UNL     1      -5.903  18.473  69.904  1.00  0.00    -0.236 C  
ENDBRANCH  31  34
BRANCH  29  36
HETATM   36  O   UNL     1      -6.966  17.420  66.927  1.00  0.00    -0.160 OA 
HETATM   37  C   UNL     1      -8.163  18.184  67.060  1.00  0.00    -0.235 C  
ENDBRANCH  29  36
ENDBRANCH  24  26
ENDBRANCH  23  24
ENDBRANCH   3  23
BRANCH   5  38
HETATM   38  O   UNL     1     -11.091  14.757  65.658  1.00  0.00    -0.324 OA 
HETATM   39  C   UNL     1     -12.160  14.654  64.730  1.00  0.00    -0.421 C  
ENDBRANCH   5  38
BRANCH   7  40
HETATM   40  C   UNL     1      -9.919  11.715  64.133  1.00  0.00    -0.277 C  
HETATM   41  O   UNL     1     -10.103  11.760  62.922  1.00  0.00    -0.320 OA 
BRANCH  40  42
HETATM   42  O   UNL     1      -8.891  11.063  64.731  1.00  0.00    -0.144 OA 
HETATM   43  C   UNL     1      -8.411   9.898  64.062  1.00  0.00    -0.180 C  
ENDBRANCH  40  42
ENDBRANCH   7  40
BRANCH  15  44
HETATM   44  O   UNL     1      -8.895   2.735  70.287  1.00  0.00    -0.069 OA 
HETATM   45  C   UNL     1      -9.658   1.881  71.127  1.00  0.00    -0.137 C  
ENDBRANCH  15  44
TORSDOF 10
ENDMDL
MODEL       81
REMARK 921   NORMALIZED FREE ENERGY PREDICTED BY IDOCK:   -3.77 KCAL/MOL
REMARK 922        TOTAL FREE ENERGY PREDICTED BY IDOCK:   -8.73 KCAL/MOL
REMARK 923 INTER-LIGAND FREE ENERGY PREDICTED BY IDOCK:   -7.04 KCAL/MOL
REMARK 924 INTRA-LIGAND FREE ENERGY PREDICTED BY IDOCK:   -1.69 KCAL/MOL
REMARK 927      BINDING AFFINITY PREDICTED BY RF-SCORE:    0.00 PKD
ROOT
HETATM    1  C   UNL     1     -10.894   8.847  70.404  1.00  0.00    -0.269 C  
HETATM    2  C   UNL     1     -11.093   7.535  69.639  1.00  0.00    -0.099 C  
HETATM    3  C   UNL     1      -9.783   6.794  69.229  1.00  0.00    -0.151 C  
HETATM    4  C   UNL     1     -11.132  12.108  67.182  1.00  0.00    -0.345 C  
HETATM    5  C   UNL     1      -9.259   6.230  70.549  1.00  0.00    -0.158 C  
HETATM    6  C   UNL     1     -11.326  10.002  69.490  1.00  0.00    -0.169 C  
HETATM    7  C   UNL     1      -8.878   7.486  71.412  1.00  0.00    -0.138 C  
HETATM    8  C   UNL     1     -11.035  10.573  67.123  1.00  0.00    -0.228 C  
HETATM    9  C   UNL     1      -9.800  12.639  67.582  1.00  0.00    -0.210 A  
HETATM   10  C   UNL     1      -9.462   8.944  70.960  1.00  0.00    -0.318 C  
HETATM   11  C   UNL     1      -6.947  14.840  67.465  1.00  0.00    -0.198 A  
HETATM   12  C   UNL     1      -8.889  11.859  68.276  1.00  0.00    -0.174 A  
HETATM   13  N   UNL     1      -7.716  12.572  68.325  1.00  0.00    -0.134 NA 
HETATM   14  C   UNL     1      -8.642  10.031  70.140  1.00  0.00    -0.046 C  
HETATM   15  C   UNL     1      -7.396  15.980  66.779  1.00  0.00    -0.151 A  
HETATM   16  N   UNL     1     -10.459   9.965  68.335  1.00  0.00    -0.198 NA 
HETATM   17  C   UNL     1      -8.706  16.055  66.344  1.00  0.00    -0.362 A  
HETATM   18  C   UNL     1      -9.089  10.397  68.663  1.00  0.00    -0.157 C  
HETATM   19  C   UNL     1      -9.627  15.015  66.550  1.00  0.00    -0.299 A  
HETATM   20  C   UNL     1      -9.193  13.869  67.255  1.00  0.00    -0.235 A  
HETATM   21  H   UNL     1      -6.855  12.245  68.761  1.00  0.00     0.000 HD 
HETATM   22  C   UNL     1      -7.871  13.801  67.697  1.00  0.00    -0.178 A  
ENDROOT
BRANCH   3  23
HETATM   23  O   UNL     1      -8.690   7.594  68.650  1.00  0.00    -0.129 OA 
BRANCH  23  24
HETATM   24  C   UNL     1      -7.840   6.874  67.871  1.00  0.00    -0.113 C  
HETATM   25  O   UNL     1      -6.635   7.097  67.844  1.00  0.00    -0.049 OA 
BRANCH  24  26
HETATM   26  C   UNL     1      -8.372   5.737  67.025  1.00  0.00    -0.108 A  
HETATM   27  C   UNL     1      -8.653   4.413  67.350  1.00  0.00    -0.105 A  
HETATM   28  C   UNL     1      -8.663   5.136  64.671  1.00  0.00    -0.120 A  
HETATM   29  C   UNL     1      -8.872   3.424  66.356  1.00  0.00    -0.135 A  
HETATM   30  C   UNL     1      -8.538   6.085  65.689  1.00  0.00    -0.154 A  
HETATM   31  C   UNL     1      -8.800   3.773  64.990  1.00  0.00    -0.122 A  
BRANCH  28  32
HETATM   32  O   UNL     1      -8.643   5.558  63.364  1.00  0.00    -0.077 OA 
HETATM   33  C   UNL     1      -7.337   5.650  62.781  1.00  0.00    -0.049 C  
ENDBRANCH  28  32
BRANCH  31  34
HETATM   34  O   UNL     1      -8.847   2.748  64.084  1.00  0.00    -0.096 OA 
HETATM   35  C   UNL     1      -7.645   2.083  63.718  1.00  0.00    -0.059 C  
ENDBRANCH  31  34
BRANCH  29  36
HETATM   36  O   UNL     1      -9.091   2.179  66.912  1.00  0.00    -0.131 OA 
HETATM   37  C   UNL     1      -9.242   2.067  68.325  1.00  0.00    -0.186 C  
ENDBRANCH  29  36
ENDBRANCH  24  26
ENDBRANCH  23  24
ENDBRANCH   3  23
BRANCH   5  38
HETATM   38  O   UNL     1     -10.305   5.450  71.166  1.00  0.00    -0.219 OA 
HETATM   39  C   UNL     1      -9.916   4.522  72.167  1.00  0.00    -0.183 C  
ENDBRANCH   5  38
BRANCH   7  40
HETATM   40  C   UNL     1      -7.381   7.488  71.664  1.00  0.00    -0.075 C  
HETATM   41  O   UNL     1      -6.561   6.760  71.119  1.00  0.00    -0.051 OA 
BRANCH  40  42
HETATM   42  O   UNL     1      -7.086   8.388  72.635  1.00  0.00    -0.097 OA 
HETATM   43  C   UNL     1      -6.682   7.846  73.892  1.00  0.00    -0.105 C  
ENDBRANCH  40  42
ENDBRANCH   7  40
BRANCH  15  44
HETATM   44  O   UNL     1      -6.645  17.085  66.477  1.00  0.00    -0.214 OA 
HETATM   45  C   UNL     1      -7.343  18.242  66.038  1.00  0.00    -0.246 C  
ENDBRANCH  15  44
TORSDOF 10
ENDMDL
MODEL       82
REMARK 921   NORMALIZED FREE ENERGY PREDICTED BY IDOCK:   -3.76 KCAL/MOL
REMARK 922        TOTAL FREE ENERGY PREDICTED BY IDOCK:   -8.72 KCAL/MOL
REMARK 923 INTER-LIGAND FREE ENERGY PREDICTED BY IDOCK:   -6.47 KCAL/MOL
REMARK 924 INTRA-LIGAND FREE ENERGY PREDICTED BY IDOCK:   -2.25 KCAL/MOL
REMARK 927      BINDING AFFINITY PREDICTED BY RF-SCORE:    0.00 PKD
ROOT
HETATM    1  C   UNL     1     -10.565   8.405  71.619  1.00  0.00    -0.327 C  
HETATM    2  C   UNL     1     -11.290   7.288  70.861  1.00  0.00    -0.308 C  
HETATM    3  C   UNL     1     -10.613   6.835  69.530  1.00  0.00    -0.232 C  
HETATM    4  C   UNL     1     -12.679  12.257  70.293  1.00  0.00     0.108 C  
HETATM    5  C   UNL     1      -9.384   6.056  69.996  1.00  0.00    -0.153 C  
HETATM    6  C   UNL     1     -11.427   9.672  71.538  1.00  0.00    -0.369 C  
HETATM    7  C   UNL     1      -8.462   7.120  70.693  1.00  0.00    -0.138 C  
HETATM    8  C   UNL     1     -12.729  10.802  69.794  1.00  0.00     0.061 C  
HETATM    9  C   UNL     1     -11.384  12.849  69.857  1.00  0.00    -0.032 A  
HETATM   10  C   UNL     1      -9.118   8.556  71.120  1.00  0.00    -0.238 C  
HETATM   11  C   UNL     1      -9.192  15.368  68.495  1.00  0.00    -0.198 A  
HETATM   12  C   UNL     1     -10.287  12.055  69.568  1.00  0.00     0.524 A  
HETATM   13  N   UNL     1      -9.332  12.883  69.029  1.00  0.00    -0.254 NA 
HETATM   14  C   UNL     1      -8.978   9.897  70.280  1.00  0.00    -0.094 C  
HETATM   15  C   UNL     1      -9.918  16.566  68.584  1.00  0.00    -0.248 A  
HETATM   16  N   UNL     1     -11.534  10.012  70.137  1.00  0.00    -0.270 NA 
HETATM   17  C   UNL     1     -11.185  16.570  69.137  1.00  0.00    -0.221 A  
HETATM   18  C   UNL     1     -10.264  10.530  69.600  1.00  0.00    -0.168 C  
HETATM   19  C   UNL     1     -11.800  15.401  69.612  1.00  0.00    -0.368 A  
HETATM   20  C   UNL     1     -11.075  14.190  69.545  1.00  0.00    -0.222 A  
HETATM   21  H   UNL     1      -8.416  12.579  68.702  1.00  0.00     0.000 HD 
HETATM   22  C   UNL     1      -9.793  14.193  68.992  1.00  0.00    -0.025 A  
ENDROOT
BRANCH   3  23
HETATM   23  O   UNL     1     -10.126   7.880  68.614  1.00  0.00    -0.186 OA 
BRANCH  23  24
HETATM   24  C   UNL     1     -10.633   7.781  67.356  1.00  0.00    -0.275 C  
HETATM   25  O   UNL     1     -11.468   6.936  67.056  1.00  0.00    -0.154 OA 
BRANCH  24  26
HETATM   26  C   UNL     1     -10.186   8.752  66.285  1.00  0.00    -0.157 A  
HETATM   27  C   UNL     1     -10.707   9.982  65.894  1.00  0.00     0.140 A  
HETATM   28  C   UNL     1      -8.764   8.815  64.294  1.00  0.00    -0.004 A  
HETATM   29  C   UNL     1     -10.327  10.611  64.681  1.00  0.00    -0.283 A  
HETATM   30  C   UNL     1      -9.111   8.281  65.537  1.00  0.00    -0.065 A  
HETATM   31  C   UNL     1      -9.395   9.981  63.825  1.00  0.00    -0.257 A  
BRANCH  28  32
HETATM   32  O   UNL     1      -7.805   8.180  63.543  1.00  0.00    -0.139 OA 
HETATM   33  C   UNL     1      -6.455   8.529  63.872  1.00  0.00    -0.072 C  
ENDBRANCH  28  32
BRANCH  31  34
HETATM   34  O   UNL     1      -9.200  10.549  62.595  1.00  0.00    -0.248 OA 
HETATM   35  C   UNL     1      -8.127  11.463  62.410  1.00  0.00     0.142 C  
ENDBRANCH  31  34
BRANCH  29  36
HETATM   36  O   UNL     1     -11.003  11.798  64.484  1.00  0.00    -0.301 OA 
HETATM   37  C   UNL     1     -11.171  12.691  65.583  1.00  0.00    -0.309 C  
ENDBRANCH  29  36
ENDBRANCH  24  26
ENDBRANCH  23  24
ENDBRANCH   3  23
BRANCH   5  38
HETATM   38  O   UNL     1      -9.809   5.028  70.916  1.00  0.00    -0.179 OA 
HETATM   39  C   UNL     1      -9.578   3.681  70.534  1.00  0.00    -0.186 C  
ENDBRANCH   5  38
BRANCH   7  40
HETATM   40  C   UNL     1      -7.169   7.257  69.910  1.00  0.00    -0.081 C  
HETATM   41  O   UNL     1      -6.286   8.079  70.123  1.00  0.00    -0.032 OA 
BRANCH  40  42
HETATM   42  O   UNL     1      -7.159   6.362  68.890  1.00  0.00    -0.076 OA 
HETATM   43  C   UNL     1      -5.992   6.358  68.071  1.00  0.00    -0.020 C  
ENDBRANCH  40  42
ENDBRANCH   7  40
BRANCH  15  44
HETATM   44  O   UNL     1      -9.490  17.799  68.166  1.00  0.00    -0.265 OA 
HETATM   45  C   UNL     1      -8.097  18.063  68.244  1.00  0.00    -0.291 C  
ENDBRANCH  15  44
TORSDOF 10
ENDMDL
MODEL       83
REMARK 921   NORMALIZED FREE ENERGY PREDICTED BY IDOCK:   -3.76 KCAL/MOL
REMARK 922        TOTAL FREE ENERGY PREDICTED BY IDOCK:   -8.72 KCAL/MOL
REMARK 923 INTER-LIGAND FREE ENERGY PREDICTED BY IDOCK:   -7.75 KCAL/MOL
REMARK 924 INTRA-LIGAND FREE ENERGY PREDICTED BY IDOCK:   -0.97 KCAL/MOL
REMARK 927      BINDING AFFINITY PREDICTED BY RF-SCORE:    0.00 PKD
ROOT
HETATM    1  C   UNL     1     -12.168  16.284  68.706  1.00  0.00     0.552 C  
HETATM    2  C   UNL     1     -11.173  17.301  69.274  1.00  0.00     0.615 C  
HETATM    3  C   UNL     1      -9.677  17.049  68.909  1.00  0.00    -0.259 C  
HETATM    4  C   UNL     1     -12.791  13.260  72.102  1.00  0.00    -0.291 C  
HETATM    5  C   UNL     1      -9.596  17.428  67.431  1.00  0.00    -0.257 C  
HETATM    6  C   UNL     1     -12.723  15.457  69.873  1.00  0.00    -0.077 C  
HETATM    7  C   UNL     1     -10.482  16.367  66.685  1.00  0.00    -0.274 C  
HETATM    8  C   UNL     1     -11.789  14.408  71.883  1.00  0.00     0.059 C  
HETATM    9  C   UNL     1     -12.405  12.134  71.207  1.00  0.00    -0.176 A  
HETATM   10  C   UNL     1     -11.530  15.472  67.566  1.00  0.00    -0.184 C  
HETATM   11  C   UNL     1     -11.765   8.705  70.295  1.00  0.00     0.076 A  
HETATM   12  C   UNL     1     -11.655  12.346  70.062  1.00  0.00    -0.138 A  
HETATM   13  N   UNL     1     -11.322  11.105  69.575  1.00  0.00    -0.265 NA 
HETATM   14  C   UNL     1     -11.256  13.985  68.055  1.00  0.00    -0.302 C  
HETATM   15  C   UNL     1     -12.426   7.942  71.270  1.00  0.00    -0.264 A  
HETATM   16  N   UNL     1     -11.599  14.772  70.469  1.00  0.00    -0.280 NA 
HETATM   17  C   UNL     1     -13.142   8.568  72.274  1.00  0.00    -0.372 A  
HETATM   18  C   UNL     1     -11.096  13.690  69.605  1.00  0.00    -0.008 C  
HETATM   19  C   UNL     1     -13.229   9.965  72.373  1.00  0.00    -0.315 A  
HETATM   20  C   UNL     1     -12.583  10.747  71.389  1.00  0.00    -0.516 A  
HETATM   21  H   UNL     1     -10.755  10.940  68.744  1.00  0.00     0.000 HD 
HETATM   22  C   UNL     1     -11.867  10.109  70.374  1.00  0.00    -0.288 A  
ENDROOT
BRANCH   3  23
HETATM   23  O   UNL     1      -9.163  15.673  69.019  1.00  0.00    -0.206 OA 
BRANCH  23  24
HETATM   24  C   UNL     1      -7.851  15.608  69.371  1.00  0.00    -0.222 C  
HETATM   25  O   UNL     1      -7.358  14.596  69.856  1.00  0.00    -0.097 OA 
BRANCH  24  26
HETATM   26  C   UNL     1      -6.948  16.800  69.141  1.00  0.00    -0.231 A  
HETATM   27  C   UNL     1      -6.670  17.901  69.945  1.00  0.00     0.269 A  
HETATM   28  C   UNL     1      -5.796  17.946  67.312  1.00  0.00    -0.133 A  
HETATM   29  C   UNL     1      -6.021  19.058  69.440  1.00  0.00    -0.254 A  
HETATM   30  C   UNL     1      -6.361  16.802  67.880  1.00  0.00    -0.151 A  
HETATM   31  C   UNL     1      -5.645  19.115  68.080  1.00  0.00    -0.192 A  
BRANCH  28  32
HETATM   32  O   UNL     1      -5.398  17.908  65.998  1.00  0.00    -0.164 OA 
HETATM   33  C   UNL     1      -6.367  18.397  65.062  1.00  0.00     0.005 C  
ENDBRANCH  28  32
BRANCH  31  34
HETATM   34  O   UNL     1      -5.184  20.316  67.613  1.00  0.00    -0.175 OA 
HETATM   35  C   UNL     1      -6.109  21.277  67.121  1.00  0.00    -0.343 C  
ENDBRANCH  31  34
BRANCH  29  36
HETATM   36  O   UNL     1      -5.889  20.035  70.407  1.00  0.00    -0.289 OA 
HETATM   37  C   UNL     1      -5.398  19.673  71.696  1.00  0.00    -0.405 C  
ENDBRANCH  29  36
ENDBRANCH  24  26
ENDBRANCH  23  24
ENDBRANCH   3  23
BRANCH   5  38
HETATM   38  O   UNL     1     -10.110  18.768  67.269  1.00  0.00    -0.322 OA 
HETATM   39  C   UNL     1      -9.201  19.759  66.815  1.00  0.00    -0.367 C  
ENDBRANCH   5  38
BRANCH   7  40
HETATM   40  C   UNL     1      -9.606  15.538  65.764  1.00  0.00    -0.332 C  
HETATM   41  O   UNL     1      -8.441  15.225  65.974  1.00  0.00     0.041 OA 
BRANCH  40  42
HETATM   42  O   UNL     1     -10.294  15.235  64.634  1.00  0.00    -0.226 OA 
HETATM   43  C   UNL     1     -11.020  14.007  64.651  1.00  0.00    -0.392 C  
ENDBRANCH  40  42
ENDBRANCH   7  40
BRANCH  15  44
HETATM   44  O   UNL     1     -12.446   6.573  71.344  1.00  0.00    -0.298 OA 
HETATM   45  C   UNL     1     -11.516   5.958  72.223  1.00  0.00    -0.297 C  
ENDBRANCH  15  44
TORSDOF 10
ENDMDL
MODEL       84
REMARK 921   NORMALIZED FREE ENERGY PREDICTED BY IDOCK:   -3.75 KCAL/MOL
REMARK 922        TOTAL FREE ENERGY PREDICTED BY IDOCK:   -8.71 KCAL/MOL
REMARK 923 INTER-LIGAND FREE ENERGY PREDICTED BY IDOCK:   -6.03 KCAL/MOL
REMARK 924 INTRA-LIGAND FREE ENERGY PREDICTED BY IDOCK:   -2.67 KCAL/MOL
REMARK 927      BINDING AFFINITY PREDICTED BY RF-SCORE:    0.00 PKD
ROOT
HETATM    1  C   UNL     1      -7.817  12.701  68.375  1.00  0.00    -0.136 C  
HETATM    2  C   UNL     1      -7.766  12.888  66.855  1.00  0.00     0.156 C  
HETATM    3  C   UNL     1      -9.058  12.473  66.086  1.00  0.00    -0.005 C  
HETATM    4  C   UNL     1      -5.848   8.619  69.101  1.00  0.00    -0.039 C  
HETATM    5  C   UNL     1     -10.056  13.576  66.435  1.00  0.00    -0.294 C  
HETATM    6  C   UNL     1      -6.861  11.559  68.747  1.00  0.00    -0.084 C  
HETATM    7  C   UNL     1     -10.317  13.425  67.976  1.00  0.00    -0.242 C  
HETATM    8  C   UNL     1      -6.325   9.348  67.833  1.00  0.00    -0.054 C  
HETATM    9  C   UNL     1      -7.051   8.139  69.837  1.00  0.00    -0.059 A  
HETATM   10  C   UNL     1      -9.268  12.532  68.857  1.00  0.00     0.287 C  
HETATM   11  C   UNL     1      -9.077   5.810  71.700  1.00  0.00    -0.152 A  
HETATM   12  C   UNL     1      -8.289   8.735  69.664  1.00  0.00    -0.126 A  
HETATM   13  N   UNL     1      -9.200   7.952  70.332  1.00  0.00    -0.158 NA 
HETATM   14  C   UNL     1      -9.514  11.025  69.297  1.00  0.00     0.020 C  
HETATM   15  C   UNL     1      -8.173   4.856  72.192  1.00  0.00    -0.115 A  
HETATM   16  N   UNL     1      -7.353  10.373  68.085  1.00  0.00    -0.087 NA 
HETATM   17  C   UNL     1      -6.821   4.980  71.927  1.00  0.00    -0.053 A  
HETATM   18  C   UNL     1      -8.596   9.877  68.700  1.00  0.00    -0.119 C  
HETATM   19  C   UNL     1      -6.301   6.033  71.159  1.00  0.00    -0.044 A  
HETATM   20  C   UNL     1      -7.198   7.011  70.671  1.00  0.00    -0.068 A  
HETATM   21  H   UNL     1     -10.203   8.131  70.370  1.00  0.00     0.000 HD 
HETATM   22  C   UNL     1      -8.560   6.884  70.947  1.00  0.00    -0.136 A  
ENDROOT
BRANCH   3  23
HETATM   23  O   UNL     1      -9.698  11.197  66.451  1.00  0.00    -0.194 OA 
BRANCH  23  24
HETATM   24  C   UNL     1      -9.819  10.331  65.410  1.00  0.00    -0.296 C  
HETATM   25  O   UNL     1     -10.268  10.679  64.324  1.00  0.00    -0.351 OA 
BRANCH  24  26
HETATM   26  C   UNL     1      -9.367   8.895  65.567  1.00  0.00    -0.214 A  
HETATM   27  C   UNL     1      -9.751   7.913  66.476  1.00  0.00    -0.279 A  
HETATM   28  C   UNL     1      -7.540   7.424  64.872  1.00  0.00    -0.105 A  
HETATM   29  C   UNL     1      -9.009   6.716  66.649  1.00  0.00    -0.142 A  
HETATM   30  C   UNL     1      -8.352   8.545  64.683  1.00  0.00    -0.156 A  
HETATM   31  C   UNL     1      -7.838   6.499  65.889  1.00  0.00    -0.106 A  
BRANCH  28  32
HETATM   32  O   UNL     1      -6.450   7.248  64.054  1.00  0.00    -0.043 OA 
HETATM   33  C   UNL     1      -5.543   8.357  64.015  1.00  0.00    -0.061 C  
ENDBRANCH  28  32
BRANCH  31  34
HETATM   34  O   UNL     1      -7.074   5.413  66.222  1.00  0.00    -0.069 OA 
HETATM   35  C   UNL     1      -5.988   5.574  67.125  1.00  0.00    -0.018 C  
ENDBRANCH  31  34
BRANCH  29  36
HETATM   36  O   UNL     1      -9.553   5.912  67.631  1.00  0.00    -0.110 OA 
HETATM   37  C   UNL     1     -10.914   6.107  68.010  1.00  0.00    -0.305 C  
ENDBRANCH  29  36
ENDBRANCH  24  26
ENDBRANCH  23  24
ENDBRANCH   3  23
BRANCH   5  38
HETATM   38  O   UNL     1      -9.464  14.853  66.111  1.00  0.00    -0.284 OA 
HETATM   39  C   UNL     1     -10.341  15.881  65.676  1.00  0.00    -0.390 C  
ENDBRANCH   5  38
BRANCH   7  40
HETATM   40  C   UNL     1     -11.769  13.051  68.207  1.00  0.00    -0.353 C  
HETATM   41  O   UNL     1     -12.318  12.028  67.813  1.00  0.00    -0.340 OA 
BRANCH  40  42
HETATM   42  O   UNL     1     -12.395  14.051  68.875  1.00  0.00    -0.299 OA 
HETATM   43  C   UNL     1     -12.639  13.824  70.263  1.00  0.00    -0.222 C  
ENDBRANCH  40  42
ENDBRANCH   7  40
BRANCH  15  44
HETATM   44  O   UNL     1      -8.492   3.758  72.948  1.00  0.00    -0.092 OA 
HETATM   45  C   UNL     1      -9.406   3.952  74.018  1.00  0.00    -0.095 C  
ENDBRANCH  15  44
TORSDOF 10
ENDMDL
MODEL       85
REMARK 921   NORMALIZED FREE ENERGY PREDICTED BY IDOCK:   -3.74 KCAL/MOL
REMARK 922        TOTAL FREE ENERGY PREDICTED BY IDOCK:   -8.69 KCAL/MOL
REMARK 923 INTER-LIGAND FREE ENERGY PREDICTED BY IDOCK:   -6.65 KCAL/MOL
REMARK 924 INTRA-LIGAND FREE ENERGY PREDICTED BY IDOCK:   -2.04 KCAL/MOL
REMARK 927      BINDING AFFINITY PREDICTED BY RF-SCORE:    0.00 PKD
ROOT
HETATM    1  C   UNL     1      -7.685   7.470  64.994  1.00  0.00    -0.116 C  
HETATM    2  C   UNL     1      -8.776   8.234  64.237  1.00  0.00     0.211 C  
HETATM    3  C   UNL     1      -9.273   9.544  64.923  1.00  0.00    -0.223 C  
HETATM    4  C   UNL     1      -9.959   4.278  67.384  1.00  0.00    -0.120 C  
HETATM    5  C   UNL     1      -8.112  10.518  64.728  1.00  0.00    -0.078 C  
HETATM    6  C   UNL     1      -8.295   6.163  65.519  1.00  0.00    -0.147 C  
HETATM    7  C   UNL     1      -6.929   9.924  65.573  1.00  0.00    -0.110 C  
HETATM    8  C   UNL     1     -10.407   5.513  66.582  1.00  0.00    -0.269 C  
HETATM    9  C   UNL     1      -9.344   4.753  68.655  1.00  0.00    -0.187 A  
HETATM   10  C   UNL     1      -7.026   8.365  66.057  1.00  0.00    -0.065 C  
HETATM   11  C   UNL     1      -8.690   4.789  72.200  1.00  0.00    -0.131 A  
HETATM   12  C   UNL     1      -8.816   6.029  68.770  1.00  0.00    -0.116 A  
HETATM   13  N   UNL     1      -8.503   6.207  70.095  1.00  0.00    -0.131 NA 
HETATM   14  C   UNL     1      -7.478   7.897  67.506  1.00  0.00    -0.093 C  
HETATM   15  C   UNL     1      -9.086   3.521  72.655  1.00  0.00    -0.099 A  
HETATM   16  N   UNL     1      -9.358   6.535  66.424  1.00  0.00    -0.160 NA 
HETATM   17  C   UNL     1      -9.575   2.586  71.761  1.00  0.00    -0.213 A  
HETATM   18  C   UNL     1      -8.836   7.097  67.681  1.00  0.00    -0.119 C  
HETATM   19  C   UNL     1      -9.710   2.857  70.390  1.00  0.00    -0.062 A  
HETATM   20  C   UNL     1      -9.299   4.123  69.916  1.00  0.00    -0.235 A  
HETATM   21  H   UNL     1      -8.109   7.060  70.490  1.00  0.00     0.000 HD 
HETATM   22  C   UNL     1      -8.799   5.061  70.821  1.00  0.00    -0.131 A  
ENDROOT
BRANCH   3  23
HETATM   23  O   UNL     1      -9.549   9.503  66.370  1.00  0.00    -0.180 OA 
BRANCH  23  24
HETATM   24  C   UNL     1     -10.475  10.412  66.775  1.00  0.00    -0.225 C  
HETATM   25  O   UNL     1     -11.055  11.146  65.982  1.00  0.00    -0.182 OA 
BRANCH  24  26
HETATM   26  C   UNL     1     -10.837  10.518  68.240  1.00  0.00    -0.293 A  
HETATM   27  C   UNL     1     -11.007   9.535  69.211  1.00  0.00    -0.167 A  
HETATM   28  C   UNL     1     -11.792  12.126  69.818  1.00  0.00    -0.327 A  
HETATM   29  C   UNL     1     -11.626   9.807  70.458  1.00  0.00    -0.292 A  
HETATM   30  C   UNL     1     -11.102  11.823  68.642  1.00  0.00    -0.289 A  
HETATM   31  C   UNL     1     -12.099  11.108  70.739  1.00  0.00    -0.357 A  
BRANCH  28  32
HETATM   32  O   UNL     1     -12.168  13.427  70.051  1.00  0.00    -0.327 OA 
HETATM   33  C   UNL     1     -11.727  14.367  69.063  1.00  0.00    -0.310 C  
ENDBRANCH  28  32
BRANCH  31  34
HETATM   34  O   UNL     1     -12.838  11.268  71.880  1.00  0.00    -0.401 OA 
HETATM   35  C   UNL     1     -14.156  10.738  71.937  1.00  0.00     0.752 C  
ENDBRANCH  31  34
BRANCH  29  36
HETATM   36  O   UNL     1     -11.722   8.674  71.241  1.00  0.00    -0.271 OA 
HETATM   37  C   UNL     1     -10.737   8.440  72.245  1.00  0.00    -0.347 C  
ENDBRANCH  29  36
ENDBRANCH  24  26
ENDBRANCH  23  24
ENDBRANCH   3  23
BRANCH   5  38
HETATM   38  O   UNL     1      -7.792  10.578  63.321  1.00  0.00    -0.131 OA 
HETATM   39  C   UNL     1      -8.733  11.212  62.469  1.00  0.00    -0.252 C  
ENDBRANCH   5  38
BRANCH   7  40
HETATM   40  C   UNL     1      -6.582  10.884  66.697  1.00  0.00    -0.120 C  
HETATM   41  O   UNL     1      -7.301  11.781  67.120  1.00  0.00    -0.132 OA 
BRANCH  40  42
HETATM   42  O   UNL     1      -5.322  10.635  67.133  1.00  0.00    -0.040 OA 
HETATM   43  C   UNL     1      -5.165  10.478  68.543  1.00  0.00    -0.037 C  
ENDBRANCH  40  42
ENDBRANCH   7  40
BRANCH  15  44
HETATM   44  O   UNL     1      -9.039   3.080  73.951  1.00  0.00    -0.081 OA 
HETATM   45  C   UNL     1      -7.771   2.687  74.456  1.00  0.00    -0.051 C  
ENDBRANCH  15  44
TORSDOF 10
ENDMDL
MODEL       86
REMARK 921   NORMALIZED FREE ENERGY PREDICTED BY IDOCK:   -3.72 KCAL/MOL
REMARK 922        TOTAL FREE ENERGY PREDICTED BY IDOCK:   -8.65 KCAL/MOL
REMARK 923 INTER-LIGAND FREE ENERGY PREDICTED BY IDOCK:   -7.14 KCAL/MOL
REMARK 924 INTRA-LIGAND FREE ENERGY PREDICTED BY IDOCK:   -1.51 KCAL/MOL
REMARK 927      BINDING AFFINITY PREDICTED BY RF-SCORE:    0.00 PKD
ROOT
HETATM    1  C   UNL     1      -6.658  12.079  67.201  1.00  0.00    -0.143 C  
HETATM    2  C   UNL     1      -7.308  13.279  66.506  1.00  0.00     1.498 C  
HETATM    3  C   UNL     1      -7.871  14.380  67.459  1.00  0.00    -0.190 C  
HETATM    4  C   UNL     1      -9.983   8.922  67.403  1.00  0.00    -0.267 C  
HETATM    5  C   UNL     1      -6.617  15.062  68.003  1.00  0.00    -0.145 C  
HETATM    6  C   UNL     1      -7.558  10.856  66.982  1.00  0.00    -0.122 C  
HETATM    7  C   UNL     1      -5.894  13.969  68.868  1.00  0.00    -0.083 C  
HETATM    8  C   UNL     1      -9.970  10.417  67.038  1.00  0.00    -0.206 C  
HETATM    9  C   UNL     1      -9.821   8.807  68.879  1.00  0.00    -0.183 A  
HETATM   10  C   UNL     1      -6.333  12.406  68.669  1.00  0.00    -0.073 C  
HETATM   11  C   UNL     1     -10.495   7.552  72.192  1.00  0.00    -0.255 A  
HETATM   12  C   UNL     1      -9.232   9.816  69.623  1.00  0.00    -0.223 A  
HETATM   13  N   UNL     1      -9.402   9.482  70.944  1.00  0.00    -0.273 NA 
HETATM   14  C   UNL     1      -7.328  11.619  69.626  1.00  0.00     0.302 C  
HETATM   15  C   UNL     1     -11.168   6.336  71.989  1.00  0.00    -0.281 A  
HETATM   16  N   UNL     1      -8.828  11.158  67.600  1.00  0.00    -0.135 NA 
HETATM   17  C   UNL     1     -11.402   5.879  70.705  1.00  0.00    -0.206 A  
HETATM   18  C   UNL     1      -8.737  11.149  69.071  1.00  0.00    -0.017 C  
HETATM   19  C   UNL     1     -11.000   6.597  69.568  1.00  0.00    -0.367 A  
HETATM   20  C   UNL     1     -10.306   7.814  69.756  1.00  0.00    -0.221 A  
HETATM   21  H   UNL     1      -9.086  10.046  71.732  1.00  0.00     0.000 HD 
HETATM   22  C   UNL     1     -10.067   8.268  71.055  1.00  0.00    -0.191 A  
ENDROOT
BRANCH   3  23
HETATM   23  O   UNL     1      -8.654  13.944  68.628  1.00  0.00    -0.155 OA 
BRANCH  23  24
HETATM   24  C   UNL     1      -9.827  14.615  68.779  1.00  0.00    -0.227 C  
HETATM   25  O   UNL     1     -10.722  14.203  69.508  1.00  0.00    -0.153 OA 
BRANCH  24  26
HETATM   26  C   UNL     1     -10.044  15.926  68.056  1.00  0.00    -0.230 A  
HETATM   27  C   UNL     1     -10.482  16.192  66.762  1.00  0.00    -0.294 A  
HETATM   28  C   UNL     1      -9.443  18.290  68.251  1.00  0.00    -0.308 A  
HETATM   29  C   UNL     1     -10.348  17.475  66.170  1.00  0.00    -0.329 A  
HETATM   30  C   UNL     1      -9.675  17.033  68.814  1.00  0.00    -0.273 A  
HETATM   31  C   UNL     1      -9.748  18.525  66.898  1.00  0.00    -0.322 A  
BRANCH  28  32
HETATM   32  O   UNL     1      -8.911  19.283  69.038  1.00  0.00    -0.338 OA 
HETATM   33  C   UNL     1      -7.489  19.220  69.204  1.00  0.00    -0.289 C  
ENDBRANCH  28  32
BRANCH  31  34
HETATM   34  O   UNL     1      -9.490  19.684  66.217  1.00  0.00    -0.368 OA 
HETATM   35  C   UNL     1      -8.167  19.951  65.768  1.00  0.00    -0.102 C  
ENDBRANCH  31  34
BRANCH  29  36
HETATM   36  O   UNL     1     -10.813  17.490  64.870  1.00  0.00    -0.832 OA 
HETATM   37  C   UNL     1     -11.419  16.315  64.336  1.00  0.00    -0.111 C  
ENDBRANCH  29  36
ENDBRANCH  24  26
ENDBRANCH  23  24
ENDBRANCH   3  23
BRANCH   5  38
HETATM   38  O   UNL     1      -5.804  15.491  66.889  1.00  0.00    -0.169 OA 
HETATM   39  C   UNL     1      -5.716  16.888  66.652  1.00  0.00    -0.092 C  
ENDBRANCH   5  38
BRANCH   7  40
HETATM   40  C   UNL     1      -5.873  14.408  70.320  1.00  0.00    -0.146 C  
HETATM   41  O   UNL     1      -5.807  13.666  71.293  1.00  0.00    -0.218 OA 
BRANCH  40  42
HETATM   42  O   UNL     1      -5.997  15.757  70.388  1.00  0.00    -0.136 OA 
HETATM   43  C   UNL     1      -5.395  16.387  71.519  1.00  0.00     0.213 C  
ENDBRANCH  40  42
ENDBRANCH   7  40
BRANCH  15  44
HETATM   44  O   UNL     1     -11.643   5.506  72.969  1.00  0.00    -0.274 OA 
HETATM   45  C   UNL     1     -10.928   4.300  73.200  1.00  0.00    -0.211 C  
ENDBRANCH  15  44
TORSDOF 10
ENDMDL
MODEL       87
REMARK 921   NORMALIZED FREE ENERGY PREDICTED BY IDOCK:   -3.66 KCAL/MOL
REMARK 922        TOTAL FREE ENERGY PREDICTED BY IDOCK:   -8.55 KCAL/MOL
REMARK 923 INTER-LIGAND FREE ENERGY PREDICTED BY IDOCK:   -6.88 KCAL/MOL
REMARK 924 INTRA-LIGAND FREE ENERGY PREDICTED BY IDOCK:   -1.67 KCAL/MOL
REMARK 927      BINDING AFFINITY PREDICTED BY RF-SCORE:    0.00 PKD
ROOT
HETATM    1  C   UNL     1      -8.262  14.385  66.941  1.00  0.00    -0.048 C  
HETATM    2  C   UNL     1      -9.444  14.353  65.967  1.00  0.00    -0.239 C  
HETATM    3  C   UNL     1     -10.849  14.195  66.626  1.00  0.00    -0.299 C  
HETATM    4  C   UNL     1      -6.728  10.060  67.035  1.00  0.00    -0.078 C  
HETATM    5  C   UNL     1     -11.101  15.557  67.271  1.00  0.00    -0.271 C  
HETATM    6  C   UNL     1      -7.457  13.092  66.756  1.00  0.00     0.549 C  
HETATM    7  C   UNL     1     -10.024  15.681  68.407  1.00  0.00    -0.210 C  
HETATM    8  C   UNL     1      -7.992  10.718  66.454  1.00  0.00    -0.151 C  
HETATM    9  C   UNL     1      -6.874  10.012  68.516  1.00  0.00    -0.054 A  
HETATM   10  C   UNL     1      -8.742  14.666  68.375  1.00  0.00    -0.175 C  
HETATM   11  C   UNL     1      -6.699   8.557  71.811  1.00  0.00    -0.082 A  
HETATM   12  C   UNL     1      -7.715  10.884  69.189  1.00  0.00    -0.127 A  
HETATM   13  N   UNL     1      -7.758  10.461  70.495  1.00  0.00    -0.357 NA 
HETATM   14  C   UNL     1      -8.614  13.347  69.251  1.00  0.00     0.765 C  
HETATM   15  C   UNL     1      -5.818   7.472  71.681  1.00  0.00    -0.036 A  
HETATM   16  N   UNL     1      -8.344  12.000  67.088  1.00  0.00    -0.175 NA 
HETATM   17  C   UNL     1      -5.225   7.202  70.462  1.00  0.00    -0.023 A  
HETATM   18  C   UNL     1      -8.611  11.931  68.536  1.00  0.00    -0.110 C  
HETATM   19  C   UNL     1      -5.479   7.973  69.317  1.00  0.00    -0.030 A  
HETATM   20  C   UNL     1      -6.350   9.080  69.436  1.00  0.00    -0.044 A  
HETATM   21  H   UNL     1      -8.311  10.899  71.231  1.00  0.00     0.000 HD 
HETATM   22  C   UNL     1      -6.941   9.351  70.671  1.00  0.00    -0.115 A  
ENDROOT
BRANCH   3  23
HETATM   23  O   UNL     1     -11.002  13.190  67.692  1.00  0.00    -0.251 OA 
BRANCH  23  24
HETATM   24  C   UNL     1     -11.586  12.036  67.273  1.00  0.00    -0.313 C  
HETATM   25  O   UNL     1     -12.098  11.932  66.164  1.00  0.00    -0.519 OA 
BRANCH  24  26
HETATM   26  C   UNL     1     -11.592  10.822  68.177  1.00  0.00    -0.276 A  
HETATM   27  C   UNL     1     -12.063  10.656  69.476  1.00  0.00    -0.285 A  
HETATM   28  C   UNL     1     -10.522   8.631  68.371  1.00  0.00    -0.176 A  
HETATM   29  C   UNL     1     -11.722   9.525  70.262  1.00  0.00    -0.117 A  
HETATM   30  C   UNL     1     -10.956   9.721  67.613  1.00  0.00    -0.226 A  
HETATM   31  C   UNL     1     -10.873   8.530  69.729  1.00  0.00    -0.175 A  
BRANCH  28  32
HETATM   32  O   UNL     1      -9.748   7.670  67.768  1.00  0.00    -0.141 OA 
HETATM   33  C   UNL     1     -10.446   6.828  66.842  1.00  0.00    -0.280 C  
ENDBRANCH  28  32
BRANCH  31  34
HETATM   34  O   UNL     1     -10.442   7.556  70.589  1.00  0.00    -0.212 OA 
HETATM   35  C   UNL     1     -11.194   6.357  70.721  1.00  0.00    -0.327 C  
ENDBRANCH  31  34
BRANCH  29  36
HETATM   36  O   UNL     1     -12.269   9.596  71.528  1.00  0.00    -0.347 OA 
HETATM   37  C   UNL     1     -13.054  10.733  71.881  1.00  0.00    -0.451 C  
ENDBRANCH  29  36
ENDBRANCH  24  26
ENDBRANCH  23  24
ENDBRANCH   3  23
BRANCH   5  38
HETATM   38  O   UNL     1     -10.943  16.581  66.265  1.00  0.00    -0.104 OA 
HETATM   39  C   UNL     1     -10.323  17.793  66.667  1.00  0.00    -0.345 C  
ENDBRANCH   5  38
BRANCH   7  40
HETATM   40  C   UNL     1     -10.717  15.733  69.756  1.00  0.00    -0.316 C  
HETATM   41  O   UNL     1     -10.669  16.664  70.551  1.00  0.00    -0.056 OA 
BRANCH  40  42
HETATM   42  O   UNL     1     -11.363  14.562  69.981  1.00  0.00    -0.259 OA 
HETATM   43  C   UNL     1     -12.477  14.619  70.869  1.00  0.00    -0.336 C  
ENDBRANCH  40  42
ENDBRANCH   7  40
BRANCH  15  44
HETATM   44  O   UNL     1      -5.457   6.604  72.679  1.00  0.00    -0.036 OA 
HETATM   45  C   UNL     1      -5.395   5.225  72.347  1.00  0.00    -0.016 C  
ENDBRANCH  15  44
TORSDOF 10
ENDMDL
MODEL       88
REMARK 921   NORMALIZED FREE ENERGY PREDICTED BY IDOCK:   -3.65 KCAL/MOL
REMARK 922        TOTAL FREE ENERGY PREDICTED BY IDOCK:   -8.55 KCAL/MOL
REMARK 923 INTER-LIGAND FREE ENERGY PREDICTED BY IDOCK:   -7.62 KCAL/MOL
REMARK 924 INTRA-LIGAND FREE ENERGY PREDICTED BY IDOCK:   -0.93 KCAL/MOL
REMARK 927      BINDING AFFINITY PREDICTED BY RF-SCORE:    0.00 PKD
ROOT
HETATM    1  C   UNL     1     -10.805   5.792  69.244  1.00  0.00    -0.374 C  
HETATM    2  C   UNL     1      -9.483   5.065  68.973  1.00  0.00    -0.194 C  
HETATM    3  C   UNL     1      -8.325   5.391  69.967  1.00  0.00    -0.107 C  
HETATM    4  C   UNL     1     -10.689   9.462  66.490  1.00  0.00    -0.012 C  
HETATM    5  C   UNL     1      -8.739   4.674  71.251  1.00  0.00    -0.118 C  
HETATM    6  C   UNL     1     -11.029   6.810  68.118  1.00  0.00    -0.201 C  
HETATM    7  C   UNL     1     -10.039   5.411  71.734  1.00  0.00    -0.251 C  
HETATM    8  C   UNL     1      -9.634   8.419  66.901  1.00  0.00    -0.202 C  
HETATM    9  C   UNL     1     -10.912  10.372  67.648  1.00  0.00    -0.374 A  
HETATM   10  C   UNL     1     -10.830   6.368  70.670  1.00  0.00    -0.331 C  
HETATM   11  C   UNL     1     -11.383  13.524  69.334  1.00  0.00    -0.293 A  
HETATM   12  C   UNL     1     -10.629   9.974  68.945  1.00  0.00    -0.218 A  
HETATM   13  N   UNL     1     -10.768  11.088  69.737  1.00  0.00    -0.452 NA 
HETATM   14  C   UNL     1     -10.701   7.950  70.611  1.00  0.00    -0.230 C  
HETATM   15  C   UNL     1     -11.763  14.422  68.324  1.00  0.00    -0.341 A  
HETATM   16  N   UNL     1      -9.928   7.744  68.177  1.00  0.00    -0.171 NA 
HETATM   17  C   UNL     1     -11.897  13.982  67.020  1.00  0.00    -0.458 A  
HETATM   18  C   UNL     1     -10.026   8.632  69.348  1.00  0.00    -0.197 C  
HETATM   19  C   UNL     1     -11.653  12.651  66.648  1.00  0.00    -0.443 A  
HETATM   20  C   UNL     1     -11.287  11.732  67.657  1.00  0.00    -0.370 A  
HETATM   21  H   UNL     1     -10.608  11.109  70.744  1.00  0.00     0.000 HD 
HETATM   22  C   UNL     1     -11.159  12.180  68.973  1.00  0.00    -0.237 A  
ENDROOT
BRANCH   3  23
HETATM   23  O   UNL     1      -8.101   6.801  70.326  1.00  0.00    -0.116 OA 
BRANCH  23  24
HETATM   24  C   UNL     1      -6.993   7.341  69.752  1.00  0.00    -0.057 C  
HETATM   25  O   UNL     1      -6.497   8.388  70.152  1.00  0.00    -0.037 OA 
BRANCH  24  26
HETATM   26  C   UNL     1      -6.319   6.629  68.599  1.00  0.00    -0.031 A  
HETATM   27  C   UNL     1      -6.194   6.980  67.258  1.00  0.00    -0.041 A  
HETATM   28  C   UNL     1      -5.466   4.412  68.013  1.00  0.00    -0.016 A  
HETATM   29  C   UNL     1      -5.777   6.050  66.271  1.00  0.00    -0.016 A  
HETATM   30  C   UNL     1      -5.801   5.388  68.954  1.00  0.00    -0.019 A  
HETATM   31  C   UNL     1      -5.481   4.719  66.640  1.00  0.00    -0.013 A  
BRANCH  28  32
HETATM   32  O   UNL     1      -5.131   3.153  68.451  1.00  0.00    -0.010 OA 
HETATM   33  C   UNL     1      -6.092   2.544  69.321  1.00  0.00    -0.024 C  
ENDBRANCH  28  32
BRANCH  31  34
HETATM   34  O   UNL     1      -5.254   3.830  65.625  1.00  0.00    -0.008 OA 
HETATM   35  C   UNL     1      -6.354   3.330  64.875  1.00  0.00    -0.024 C  
ENDBRANCH  31  34
BRANCH  29  36
HETATM   36  O   UNL     1      -5.769   6.611  65.009  1.00  0.00    -0.029 OA 
HETATM   37  C   UNL     1      -5.785   8.031  64.881  1.00  0.00    -0.044 C  
ENDBRANCH  29  36
ENDBRANCH  24  26
ENDBRANCH  23  24
ENDBRANCH   3  23
BRANCH   5  38
HETATM   38  O   UNL     1      -8.990   3.285  70.944  1.00  0.00    -0.082 OA 
HETATM   39  C   UNL     1      -8.831   2.350  72.000  1.00  0.00    -0.073 C  
ENDBRANCH   5  38
BRANCH   7  40
HETATM   40  C   UNL     1      -9.770   6.085  73.067  1.00  0.00    -0.158 C  
HETATM   41  O   UNL     1     -10.574   6.207  73.983  1.00  0.00    -0.272 OA 
BRANCH  40  42
HETATM   42  O   UNL     1      -8.511   6.589  73.075  1.00  0.00    -0.119 OA 
HETATM   43  C   UNL     1      -8.331   7.820  73.773  1.00  0.00    -0.220 C  
ENDBRANCH  40  42
ENDBRANCH   7  40
BRANCH  15  44
HETATM   44  O   UNL     1     -12.033  15.755  68.492  1.00  0.00    -0.314 OA 
HETATM   45  C   UNL     1     -10.965  16.582  68.930  1.00  0.00    -0.325 C  
ENDBRANCH  15  44
TORSDOF 10
ENDMDL
MODEL       89
REMARK 921   NORMALIZED FREE ENERGY PREDICTED BY IDOCK:   -3.63 KCAL/MOL
REMARK 922        TOTAL FREE ENERGY PREDICTED BY IDOCK:   -8.51 KCAL/MOL
REMARK 923 INTER-LIGAND FREE ENERGY PREDICTED BY IDOCK:   -6.54 KCAL/MOL
REMARK 924 INTRA-LIGAND FREE ENERGY PREDICTED BY IDOCK:   -1.97 KCAL/MOL
REMARK 927      BINDING AFFINITY PREDICTED BY RF-SCORE:    0.00 PKD
ROOT
HETATM    1  C   UNL     1      -6.711   6.778  67.809  1.00  0.00    -0.068 C  
HETATM    2  C   UNL     1      -7.112   5.813  68.930  1.00  0.00    -0.073 C  
HETATM    3  C   UNL     1      -8.543   5.205  68.808  1.00  0.00    -0.086 C  
HETATM    4  C   UNL     1      -7.642  10.947  69.489  1.00  0.00    -0.057 C  
HETATM    5  C   UNL     1      -8.415   4.205  67.660  1.00  0.00    -0.098 C  
HETATM    6  C   UNL     1      -6.630   8.191  68.403  1.00  0.00    -0.059 C  
HETATM    7  C   UNL     1      -8.129   5.077  66.385  1.00  0.00    -0.108 C  
HETATM    8  C   UNL     1      -7.977   9.521  69.962  1.00  0.00    -0.156 C  
HETATM    9  C   UNL     1      -8.504  11.257  68.316  1.00  0.00    -0.152 A  
HETATM   10  C   UNL     1      -7.643   6.624  66.595  1.00  0.00    -0.094 C  
HETATM   11  C   UNL     1     -10.683  13.253  66.248  1.00  0.00    -0.293 A  
HETATM   12  C   UNL     1      -9.049  10.252  67.533  1.00  0.00    -0.137 A  
HETATM   13  N   UNL     1      -9.925  10.860  66.666  1.00  0.00    -0.201 NA 
HETATM   14  C   UNL     1      -8.596   7.891  66.487  1.00  0.00    -0.149 C  
HETATM   15  C   UNL     1     -10.476  14.574  66.674  1.00  0.00    -0.274 A  
HETATM   16  N   UNL     1      -7.953   8.515  68.887  1.00  0.00    -0.116 NA 
HETATM   17  C   UNL     1      -9.562  14.845  67.676  1.00  0.00    -0.200 A  
HETATM   18  C   UNL     1      -8.897   8.755  67.782  1.00  0.00    -0.136 C  
HETATM   19  C   UNL     1      -8.824  13.834  68.311  1.00  0.00    -0.185 A  
HETATM   20  C   UNL     1      -9.008  12.501  67.881  1.00  0.00    -0.188 A  
HETATM   21  H   UNL     1     -10.491  10.370  65.974  1.00  0.00     0.000 HD 
HETATM   22  C   UNL     1      -9.928  12.234  66.865  1.00  0.00    -0.213 A  
ENDROOT
BRANCH   3  23
HETATM   23  O   UNL     1      -9.650   6.111  68.456  1.00  0.00    -0.119 OA 
BRANCH  23  24
HETATM   24  C   UNL     1     -10.617   6.186  69.408  1.00  0.00    -0.286 C  
HETATM   25  O   UNL     1     -11.786   6.429  69.130  1.00  0.00    -0.067 OA 
BRANCH  24  26
HETATM   26  C   UNL     1     -10.268   5.936  70.859  1.00  0.00    -0.269 A  
HETATM   27  C   UNL     1      -9.783   6.796  71.841  1.00  0.00    -0.160 A  
HETATM   28  C   UNL     1      -9.808   4.074  72.378  1.00  0.00    -0.159 A  
HETATM   29  C   UNL     1      -9.244   6.317  73.063  1.00  0.00    -0.132 A  
HETATM   30  C   UNL     1     -10.403   4.602  71.230  1.00  0.00    -0.148 A  
HETATM   31  C   UNL     1      -9.183   4.927  73.307  1.00  0.00    -0.117 A  
BRANCH  28  32
HETATM   32  O   UNL     1      -9.840   2.715  72.578  1.00  0.00    -0.125 OA 
HETATM   33  C   UNL     1      -8.927   1.966  71.766  1.00  0.00    -0.074 C  
ENDBRANCH  28  32
BRANCH  31  34
HETATM   34  O   UNL     1      -8.499   4.521  74.420  1.00  0.00    -0.099 OA 
HETATM   35  C   UNL     1      -7.107   4.244  74.322  1.00  0.00    -0.070 C  
ENDBRANCH  31  34
BRANCH  29  36
HETATM   36  O   UNL     1      -8.788   7.347  73.861  1.00  0.00    -0.185 OA 
HETATM   37  C   UNL     1      -7.632   8.077  73.457  1.00  0.00    -0.154 C  
ENDBRANCH  29  36
ENDBRANCH  24  26
ENDBRANCH  23  24
ENDBRANCH   3  23
BRANCH   5  38
HETATM   38  O   UNL     1      -7.325   3.304  67.951  1.00  0.00    -0.053 OA 
HETATM   39  C   UNL     1      -7.580   1.915  67.812  1.00  0.00    -0.055 C  
ENDBRANCH   5  38
BRANCH   7  40
HETATM   40  C   UNL     1      -9.281   4.934  65.408  1.00  0.00    -0.154 C  
HETATM   41  O   UNL     1     -10.424   4.594  65.692  1.00  0.00    -0.272 OA 
BRANCH  40  42
HETATM   42  O   UNL     1      -8.844   5.188  64.149  1.00  0.00    -0.110 OA 
HETATM   43  C   UNL     1      -7.918   4.249  63.605  1.00  0.00    -0.089 C  
ENDBRANCH  40  42
ENDBRANCH   7  40
BRANCH  15  44
HETATM   44  O   UNL     1     -11.109  15.687  66.183  1.00  0.00    -0.257 OA 
HETATM   45  C   UNL     1     -11.394  15.709  64.792  1.00  0.00    -0.343 C  
ENDBRANCH  15  44
TORSDOF 10
ENDMDL
MODEL       90
REMARK 921   NORMALIZED FREE ENERGY PREDICTED BY IDOCK:   -3.61 KCAL/MOL
REMARK 922        TOTAL FREE ENERGY PREDICTED BY IDOCK:   -8.48 KCAL/MOL
REMARK 923 INTER-LIGAND FREE ENERGY PREDICTED BY IDOCK:   -6.52 KCAL/MOL
REMARK 924 INTRA-LIGAND FREE ENERGY PREDICTED BY IDOCK:   -1.96 KCAL/MOL
REMARK 927      BINDING AFFINITY PREDICTED BY RF-SCORE:    0.00 PKD
ROOT
HETATM    1  C   UNL     1     -12.508  15.421  68.271  1.00  0.00     0.638 C  
HETATM    2  C   UNL     1     -11.396  16.416  68.621  1.00  0.00    -0.289 C  
HETATM    3  C   UNL     1      -9.963  16.006  68.159  1.00  0.00    -0.228 C  
HETATM    4  C   UNL     1     -13.003  12.868  72.052  1.00  0.00    -0.385 C  
HETATM    5  C   UNL     1     -10.000  16.205  66.645  1.00  0.00    -0.260 C  
HETATM    6  C   UNL     1     -13.002  14.781  69.574  1.00  0.00     0.512 C  
HETATM    7  C   UNL     1     -11.024  15.138  66.114  1.00  0.00    -0.331 C  
HETATM    8  C   UNL     1     -11.952  13.900  71.608  1.00  0.00     0.263 C  
HETATM    9  C   UNL     1     -12.782  11.619  71.271  1.00  0.00    -0.444 A  
HETATM   10  C   UNL     1     -12.039  14.436  67.186  1.00  0.00    -0.367 C  
HETATM   11  C   UNL     1     -12.466   8.068  70.732  1.00  0.00     0.090 A  
HETATM   12  C   UNL     1     -12.133  11.638  70.047  1.00  0.00    -0.319 A  
HETATM   13  N   UNL     1     -11.934  10.327  69.688  1.00  0.00    -0.481 NA 
HETATM   14  C   UNL     1     -11.821  12.998  67.827  1.00  0.00    -0.395 C  
HETATM   15  C   UNL     1     -13.080   7.476  71.847  1.00  0.00    -0.252 A  
HETATM   16  N   UNL     1     -11.875  14.082  70.148  1.00  0.00    -0.303 NA 
HETATM   17  C   UNL     1     -13.652   8.268  72.826  1.00  0.00     0.124 A  
HETATM   18  C   UNL     1     -11.532  12.872  69.382  1.00  0.00    -0.260 C  
HETATM   19  C   UNL     1     -13.634   9.671  72.761  1.00  0.00     0.002 A  
HETATM   20  C   UNL     1     -13.035  10.280  71.635  1.00  0.00    -0.570 A  
HETATM   21  H   UNL     1     -11.462  10.023  68.836  1.00  0.00     0.000 HD 
HETATM   22  C   UNL     1     -12.466   9.476  70.647  1.00  0.00    -0.039 A  
ENDROOT
BRANCH   3  23
HETATM   23  O   UNL     1      -9.535  14.616  68.391  1.00  0.00    -0.196 OA 
BRANCH  23  24
HETATM   24  C   UNL     1      -8.188  14.473  68.512  1.00  0.00    -0.154 C  
HETATM   25  O   UNL     1      -7.471  15.385  68.909  1.00  0.00    -0.129 OA 
BRANCH  24  26
HETATM   26  C   UNL     1      -7.537  13.149  68.177  1.00  0.00    -0.141 A  
HETATM   27  C   UNL     1      -6.486  12.841  67.318  1.00  0.00    -0.073 A  
HETATM   28  C   UNL     1      -7.974  10.749  68.369  1.00  0.00    -0.124 A  
HETATM   29  C   UNL     1      -6.205  11.509  66.918  1.00  0.00    -0.143 A  
HETATM   30  C   UNL     1      -8.155  12.067  68.796  1.00  0.00     0.007 A  
HETATM   31  C   UNL     1      -7.010  10.449  67.390  1.00  0.00    -0.085 A  
BRANCH  28  32
HETATM   32  O   UNL     1      -8.755   9.761  68.918  1.00  0.00    -0.125 OA 
HETATM   33  C   UNL     1      -8.515   9.506  70.307  1.00  0.00    -0.207 C  
ENDBRANCH  28  32
BRANCH  31  34
HETATM   34  O   UNL     1      -6.800   9.216  66.836  1.00  0.00    -0.078 OA 
HETATM   35  C   UNL     1      -7.796   8.649  65.994  1.00  0.00    -0.102 C  
ENDBRANCH  31  34
BRANCH  29  36
HETATM   36  O   UNL     1      -5.146  11.452  66.034  1.00  0.00    -0.248 OA 
HETATM   37  C   UNL     1      -5.339  10.837  64.761  1.00  0.00    -0.090 C  
ENDBRANCH  29  36
ENDBRANCH  24  26
ENDBRANCH  23  24
ENDBRANCH   3  23
BRANCH   5  38
HETATM   38  O   UNL     1     -10.435  17.553  66.366  1.00  0.00    -0.334 OA 
HETATM   39  C   UNL     1      -9.432  18.555  66.293  1.00  0.00    -0.250 C  
ENDBRANCH   5  38
BRANCH   7  40
HETATM   40  C   UNL     1     -10.299  14.141  65.228  1.00  0.00    -0.388 C  
HETATM   41  O   UNL     1      -9.220  13.616  65.475  1.00  0.00     0.234 OA 
BRANCH  40  42
HETATM   42  O   UNL     1     -11.001  13.957  64.083  1.00  0.00    -0.282 OA 
HETATM   43  C   UNL     1     -11.856  12.815  64.048  1.00  0.00    -0.435 C  
ENDBRANCH  40  42
ENDBRANCH   7  40
BRANCH  15  44
HETATM   44  O   UNL     1     -13.186   6.132  72.089  1.00  0.00     0.066 OA 
HETATM   45  C   UNL     1     -12.060   5.486  72.665  1.00  0.00     0.052 C  
ENDBRANCH  15  44
TORSDOF 10
ENDMDL
MODEL       91
REMARK 921   NORMALIZED FREE ENERGY PREDICTED BY IDOCK:   -3.58 KCAL/MOL
REMARK 922        TOTAL FREE ENERGY PREDICTED BY IDOCK:   -8.43 KCAL/MOL
REMARK 923 INTER-LIGAND FREE ENERGY PREDICTED BY IDOCK:   -7.66 KCAL/MOL
REMARK 924 INTRA-LIGAND FREE ENERGY PREDICTED BY IDOCK:   -0.78 KCAL/MOL
REMARK 927      BINDING AFFINITY PREDICTED BY RF-SCORE:    0.00 PKD
ROOT
HETATM    1  C   UNL     1      -7.936  16.395  66.142  1.00  0.00    -0.130 C  
HETATM    2  C   UNL     1      -8.936  17.547  66.289  1.00  0.00    -0.220 C  
HETATM    3  C   UNL     1      -9.228  17.995  67.754  1.00  0.00    -0.262 C  
HETATM    4  C   UNL     1     -10.548  12.635  65.811  1.00  0.00    -0.296 C  
HETATM    5  C   UNL     1      -7.952  18.725  68.170  1.00  0.00    -0.290 C  
HETATM    6  C   UNL     1      -8.702  15.159  65.653  1.00  0.00     1.077 C  
HETATM    7  C   UNL     1      -6.835  17.621  68.195  1.00  0.00    -0.207 C  
HETATM    8  C   UNL     1     -10.849  14.099  66.183  1.00  0.00    -0.296 C  
HETATM    9  C   UNL     1      -9.835  12.006  66.957  1.00  0.00    -0.205 A  
HETATM   10  C   UNL     1      -7.128  16.203  67.437  1.00  0.00    -0.209 C  
HETATM   11  C   UNL     1      -9.071   9.435  69.367  1.00  0.00    -0.162 A  
HETATM   12  C   UNL     1      -9.134  12.767  67.878  1.00  0.00    -0.204 A  
HETATM   13  N   UNL     1      -8.759  11.915  68.888  1.00  0.00    -0.369 NA 
HETATM   14  C   UNL     1      -7.594  14.870  68.166  1.00  0.00    -0.115 C  
HETATM   15  C   UNL     1      -9.622   8.261  68.830  1.00  0.00    -0.153 A  
HETATM   16  N   UNL     1      -9.676  14.842  66.673  1.00  0.00    -0.249 NA 
HETATM   17  C   UNL     1     -10.262   8.291  67.605  1.00  0.00    -0.294 A  
HETATM   18  C   UNL     1      -9.042  14.290  67.882  1.00  0.00    -0.190 C  
HETATM   19  C   UNL     1     -10.402   9.474  66.861  1.00  0.00    -0.307 A  
HETATM   20  C   UNL     1      -9.836  10.661  67.380  1.00  0.00    -0.198 A  
HETATM   21  H   UNL     1      -8.240  12.193  69.720  1.00  0.00     0.000 HD 
HETATM   22  C   UNL     1      -9.186  10.622  68.614  1.00  0.00    -0.181 A  
ENDROOT
BRANCH   3  23
HETATM   23  O   UNL     1      -9.461  16.947  68.763  1.00  0.00    -0.254 OA 
BRANCH  23  24
HETATM   24  C   UNL     1     -10.299  17.330  69.763  1.00  0.00     0.167 C  
HETATM   25  O   UNL     1     -10.379  18.495  70.134  1.00  0.00     0.741 OA 
BRANCH  24  26
HETATM   26  C   UNL     1     -11.189  16.306  70.433  1.00  0.00    -0.336 A  
HETATM   27  C   UNL     1     -11.552  16.149  71.768  1.00  0.00    -0.503 A  
HETATM   28  C   UNL     1     -12.180  14.114  69.990  1.00  0.00    -0.357 A  
HETATM   29  C   UNL     1     -12.163  14.961  72.248  1.00  0.00    -0.335 A  
HETATM   30  C   UNL     1     -11.658  15.334  69.556  1.00  0.00    -0.339 A  
HETATM   31  C   UNL     1     -12.413  13.892  71.360  1.00  0.00    -0.340 A  
BRANCH  28  32
HETATM   32  O   UNL     1     -12.455  13.140  69.061  1.00  0.00    -0.016 OA 
HETATM   33  C   UNL     1     -12.261  11.797  69.521  1.00  0.00    -0.169 C  
ENDBRANCH  28  32
BRANCH  31  34
HETATM   34  O   UNL     1     -12.842  12.715  71.911  1.00  0.00    -0.284 OA 
HETATM   35  C   UNL     1     -14.126  12.655  72.519  1.00  0.00     0.231 C  
ENDBRANCH  31  34
BRANCH  29  36
HETATM   36  O   UNL     1     -12.394  15.016  73.608  1.00  0.00    -0.488 OA 
HETATM   37  C   UNL     1     -12.472  16.289  74.247  1.00  0.00    -0.506 C  
ENDBRANCH  29  36
ENDBRANCH  24  26
ENDBRANCH  23  24
ENDBRANCH   3  23
BRANCH   5  38
HETATM   38  O   UNL     1      -7.670  19.754  67.197  1.00  0.00    -0.248 OA 
HETATM   39  C   UNL     1      -6.305  20.046  66.941  1.00  0.00    -0.188 C  
ENDBRANCH   5  38
BRANCH   7  40
HETATM   40  C   UNL     1      -6.325  17.452  69.615  1.00  0.00    -0.201 C  
HETATM   41  O   UNL     1      -6.399  16.430  70.286  1.00  0.00    -0.054 OA 
BRANCH  40  42
HETATM   42  O   UNL     1      -5.819  18.630  70.059  1.00  0.00    -0.249 OA 
HETATM   43  C   UNL     1      -5.484  18.686  71.445  1.00  0.00    -0.143 C  
ENDBRANCH  40  42
ENDBRANCH   7  40
BRANCH  15  44
HETATM   44  O   UNL     1      -9.595   7.020  69.412  1.00  0.00    -0.155 OA 
HETATM   45  C   UNL     1      -9.566   6.970  70.831  1.00  0.00    -0.167 C  
ENDBRANCH  15  44
TORSDOF 10
ENDMDL
MODEL       92
REMARK 921   NORMALIZED FREE ENERGY PREDICTED BY IDOCK:   -3.57 KCAL/MOL
REMARK 922        TOTAL FREE ENERGY PREDICTED BY IDOCK:   -8.41 KCAL/MOL
REMARK 923 INTER-LIGAND FREE ENERGY PREDICTED BY IDOCK:   -7.28 KCAL/MOL
REMARK 924 INTRA-LIGAND FREE ENERGY PREDICTED BY IDOCK:   -1.13 KCAL/MOL
REMARK 927      BINDING AFFINITY PREDICTED BY RF-SCORE:    0.00 PKD
ROOT
HETATM    1  C   UNL     1     -10.294   6.005  72.058  1.00  0.00    -0.241 C  
HETATM    2  C   UNL     1     -10.708   4.936  71.041  1.00  0.00     0.020 C  
HETATM    3  C   UNL     1     -10.198   5.166  69.584  1.00  0.00    -0.267 C  
HETATM    4  C   UNL     1     -13.870   8.878  72.229  1.00  0.00    -0.536 C  
HETATM    5  C   UNL     1      -8.705   4.856  69.670  1.00  0.00    -0.086 C  
HETATM    6  C   UNL     1     -11.550   6.789  72.462  1.00  0.00    -0.197 C  
HETATM    7  C   UNL     1      -8.104   5.975  70.596  1.00  0.00    -0.116 C  
HETATM    8  C   UNL     1     -13.495   7.717  71.291  1.00  0.00    -0.219 C  
HETATM    9  C   UNL     1     -12.990  10.035  71.903  1.00  0.00    -0.547 A  
HETATM   10  C   UNL     1      -9.130   6.854  71.517  1.00  0.00    -0.144 C  
HETATM   11  C   UNL     1     -12.170  13.486  71.255  1.00  0.00    -0.209 A  
HETATM   12  C   UNL     1     -11.764   9.859  71.283  1.00  0.00    -0.392 A  
HETATM   13  N   UNL     1     -11.300  11.112  70.965  1.00  0.00     0.069 NA 
HETATM   14  C   UNL     1      -9.654   8.308  71.148  1.00  0.00    -0.206 C  
HETATM   15  C   UNL     1     -13.243  14.219  71.787  1.00  0.00    -0.367 A  
HETATM   16  N   UNL     1     -12.053   7.416  71.261  1.00  0.00    -0.315 NA 
HETATM   17  C   UNL     1     -14.288  13.565  72.413  1.00  0.00    -0.310 A  
HETATM   18  C   UNL     1     -11.190   8.525  70.818  1.00  0.00    -0.257 C  
HETATM   19  C   UNL     1     -14.333  12.167  72.533  1.00  0.00     0.968 A  
HETATM   20  C   UNL     1     -13.251  11.417  72.018  1.00  0.00    -0.432 A  
HETATM   21  H   UNL     1     -10.422  11.303  70.483  1.00  0.00     0.000 HD 
HETATM   22  C   UNL     1     -12.196  12.083  71.393  1.00  0.00     0.217 A  
ENDROOT
BRANCH   3  23
HETATM   23  O   UNL     1     -10.315   6.521  69.019  1.00  0.00    -0.169 OA 
BRANCH  23  24
HETATM   24  C   UNL     1     -10.425   6.539  67.664  1.00  0.00    -0.230 C  
HETATM   25  O   UNL     1     -11.103   5.719  67.056  1.00  0.00    -0.210 OA 
BRANCH  24  26
HETATM   26  C   UNL     1      -9.719   7.612  66.864  1.00  0.00    -0.277 A  
HETATM   27  C   UNL     1      -9.926   8.988  66.803  1.00  0.00    -0.332 A  
HETATM   28  C   UNL     1      -8.234   7.832  64.933  1.00  0.00    -0.107 A  
HETATM   29  C   UNL     1      -9.356   9.790  65.781  1.00  0.00    -0.221 A  
HETATM   30  C   UNL     1      -8.750   7.103  66.007  1.00  0.00    -0.162 A  
HETATM   31  C   UNL     1      -8.558   9.192  64.781  1.00  0.00    -0.184 A  
BRANCH  28  32
HETATM   32  O   UNL     1      -7.415   7.196  64.031  1.00  0.00    -0.084 OA 
HETATM   33  C   UNL     1      -7.259   5.788  64.249  1.00  0.00    -0.055 C  
ENDBRANCH  28  32
BRANCH  31  34
HETATM   34  O   UNL     1      -8.182   9.984  63.730  1.00  0.00    -0.146 OA 
HETATM   35  C   UNL     1      -8.085   9.419  62.429  1.00  0.00    -0.130 C  
ENDBRANCH  31  34
BRANCH  29  36
HETATM   36  O   UNL     1      -9.731  11.114  65.899  1.00  0.00    -0.211 OA 
HETATM   37  C   UNL     1     -11.116  11.434  66.023  1.00  0.00    -0.173 C  
ENDBRANCH  29  36
ENDBRANCH  24  26
ENDBRANCH  23  24
ENDBRANCH   3  23
BRANCH   5  38
HETATM   38  O   UNL     1      -8.538   3.540  70.240  1.00  0.00    -0.055 OA 
HETATM   39  C   UNL     1      -8.438   2.452  69.334  1.00  0.00    -0.055 C  
ENDBRANCH   5  38
BRANCH   7  40
HETATM   40  C   UNL     1      -7.135   6.824  69.796  1.00  0.00    -0.068 C  
HETATM   41  O   UNL     1      -7.439   7.644  68.938  1.00  0.00    -0.091 OA 
BRANCH  40  42
HETATM   42  O   UNL     1      -5.861   6.500  70.133  1.00  0.00    -0.018 OA 
HETATM   43  C   UNL     1      -5.688   5.881  71.407  1.00  0.00    -0.022 C  
ENDBRANCH  40  42
ENDBRANCH   7  40
BRANCH  15  44
HETATM   44  O   UNL     1     -13.380  15.583  71.757  1.00  0.00    -0.437 OA 
HETATM   45  C   UNL     1     -12.774  16.318  72.810  1.00  0.00    -0.278 C  
ENDBRANCH  15  44
TORSDOF 10
ENDMDL
MODEL       93
REMARK 921   NORMALIZED FREE ENERGY PREDICTED BY IDOCK:   -3.52 KCAL/MOL
REMARK 922        TOTAL FREE ENERGY PREDICTED BY IDOCK:   -8.33 KCAL/MOL
REMARK 923 INTER-LIGAND FREE ENERGY PREDICTED BY IDOCK:   -7.64 KCAL/MOL
REMARK 924 INTRA-LIGAND FREE ENERGY PREDICTED BY IDOCK:   -0.69 KCAL/MOL
REMARK 927      BINDING AFFINITY PREDICTED BY RF-SCORE:    0.00 PKD
ROOT
HETATM    1  C   UNL     1      -5.572  15.466  69.158  1.00  0.00    -0.099 C  
HETATM    2  C   UNL     1      -5.218  16.149  67.833  1.00  0.00    -0.135 C  
HETATM    3  C   UNL     1      -6.436  16.575  66.955  1.00  0.00    -0.155 C  
HETATM    4  C   UNL     1      -5.327  10.975  68.243  1.00  0.00    -0.039 C  
HETATM    5  C   UNL     1      -7.017  17.776  67.701  1.00  0.00    -0.181 C  
HETATM    6  C   UNL     1      -5.157  13.992  69.060  1.00  0.00    -0.075 C  
HETATM    7  C   UNL     1      -7.554  17.197  69.059  1.00  0.00    -0.187 C  
HETATM    8  C   UNL     1      -5.307  12.234  67.357  1.00  0.00    -0.116 C  
HETATM    9  C   UNL     1      -6.721  10.773  68.725  1.00  0.00    -0.060 A  
HETATM   10  C   UNL     1      -7.045  15.715  69.527  1.00  0.00    -0.195 C  
HETATM   11  C   UNL     1      -9.711   8.919  69.515  1.00  0.00    -0.173 A  
HETATM   12  C   UNL     1      -7.623  11.823  68.791  1.00  0.00    -0.104 A  
HETATM   13  N   UNL     1      -8.845  11.274  69.093  1.00  0.00    -0.382 NA 
HETATM   14  C   UNL     1      -7.877  14.375  69.340  1.00  0.00     0.104 C  
HETATM   15  C   UNL     1      -9.295   7.581  69.601  1.00  0.00    -0.153 A  
HETATM   16  N   UNL     1      -5.928  13.414  67.984  1.00  0.00    -0.115 NA 
HETATM   17  C   UNL     1      -7.965   7.255  69.414  1.00  0.00    -0.125 A  
HETATM   18  C   UNL     1      -7.346  13.257  68.349  1.00  0.00    -0.112 C  
HETATM   19  C   UNL     1      -6.989   8.221  69.122  1.00  0.00    -0.063 A  
HETATM   20  C   UNL     1      -7.390   9.575  69.050  1.00  0.00    -0.072 A  
HETATM   21  H   UNL     1      -9.711  11.803  69.192  1.00  0.00     0.000 HD 
HETATM   22  C   UNL     1      -8.733   9.899  69.246  1.00  0.00    -0.169 A  
ENDROOT
BRANCH   3  23
HETATM   23  O   UNL     1      -7.537  15.611  66.788  1.00  0.00    -0.204 OA 
BRANCH  23  24
HETATM   24  C   UNL     1      -8.604  16.114  66.113  1.00  0.00    -0.296 C  
HETATM   25  O   UNL     1      -8.576  17.218  65.581  1.00  0.00    -0.476 OA 
BRANCH  24  26
HETATM   26  C   UNL     1      -9.868  15.292  65.980  1.00  0.00    -0.357 A  
HETATM   27  C   UNL     1     -10.874  15.011  66.899  1.00  0.00    -0.315 A  
HETATM   28  C   UNL     1     -10.851  13.600  64.511  1.00  0.00    -0.406 A  
HETATM   29  C   UNL     1     -11.832  13.988  66.680  1.00  0.00    -0.419 A  
HETATM   30  C   UNL     1      -9.985  14.672  64.740  1.00  0.00     0.074 A  
HETATM   31  C   UNL     1     -11.775  13.214  65.499  1.00  0.00    -0.357 A  
BRANCH  28  32
HETATM   32  O   UNL     1     -10.778  12.931  63.313  1.00  0.00    -0.116 OA 
HETATM   33  C   UNL     1      -9.954  11.759  63.328  1.00  0.00    -0.410 C  
ENDBRANCH  28  32
BRANCH  31  34
HETATM   34  O   UNL     1     -12.613  12.135  65.423  1.00  0.00    -0.480 OA 
HETATM   35  C   UNL     1     -13.274  11.849  64.198  1.00  0.00     0.386 C  
ENDBRANCH  31  34
BRANCH  29  36
HETATM   36  O   UNL     1     -12.704  13.864  67.743  1.00  0.00     0.286 OA 
HETATM   37  C   UNL     1     -12.197  13.975  69.071  1.00  0.00    -0.245 C  
ENDBRANCH  29  36
ENDBRANCH  24  26
ENDBRANCH  23  24
ENDBRANCH   3  23
BRANCH   5  38
HETATM   38  O   UNL     1      -5.966  18.745  67.906  1.00  0.00    -0.191 OA 
HETATM   39  C   UNL     1      -6.147  19.683  68.955  1.00  0.00    -0.266 C  
ENDBRANCH   5  38
BRANCH   7  40
HETATM   40  C   UNL     1      -9.061  17.362  69.116  1.00  0.00     0.039 C  
HETATM   41  O   UNL     1      -9.852  16.561  69.599  1.00  0.00    -0.147 OA 
BRANCH  40  42
HETATM   42  O   UNL     1      -9.415  18.516  68.496  1.00  0.00    -0.321 OA 
HETATM   43  C   UNL     1     -10.707  18.531  67.889  1.00  0.00    -0.298 C  
ENDBRANCH  40  42
ENDBRANCH   7  40
BRANCH  15  44
HETATM   44  O   UNL     1     -10.100   6.503  69.865  1.00  0.00    -0.169 OA 
HETATM   45  C   UNL     1     -11.347   6.764  70.492  1.00  0.00    -0.343 C  
ENDBRANCH  15  44
TORSDOF 10
ENDMDL
MODEL       94
REMARK 921   NORMALIZED FREE ENERGY PREDICTED BY IDOCK:   -3.43 KCAL/MOL
REMARK 922        TOTAL FREE ENERGY PREDICTED BY IDOCK:   -8.19 KCAL/MOL
REMARK 923 INTER-LIGAND FREE ENERGY PREDICTED BY IDOCK:   -6.79 KCAL/MOL
REMARK 924 INTRA-LIGAND FREE ENERGY PREDICTED BY IDOCK:   -1.40 KCAL/MOL
REMARK 927      BINDING AFFINITY PREDICTED BY RF-SCORE:    0.00 PKD
ROOT
HETATM    1  C   UNL     1     -12.002  12.409  69.445  1.00  0.00    -0.319 C  
HETATM    2  C   UNL     1     -10.958  13.480  69.779  1.00  0.00     0.150 C  
HETATM    3  C   UNL     1     -10.124  14.001  68.568  1.00  0.00    -0.236 C  
HETATM    4  C   UNL     1      -9.900   8.430  70.347  1.00  0.00    -0.194 C  
HETATM    5  C   UNL     1     -11.117  14.862  67.788  1.00  0.00    -0.309 C  
HETATM    6  C   UNL     1     -11.537  11.083  70.061  1.00  0.00    -0.344 C  
HETATM    7  C   UNL     1     -12.203  13.860  67.257  1.00  0.00    -0.324 C  
HETATM    8  C   UNL     1      -9.406   9.885  70.248  1.00  0.00    -0.087 C  
HETATM    9  C   UNL     1     -10.173   7.942  68.967  1.00  0.00    -0.216 A  
HETATM   10  C   UNL     1     -12.286  12.374  67.934  1.00  0.00     0.163 C  
HETATM   11  C   UNL     1     -10.132   5.613  66.215  1.00  0.00    -0.160 A  
HETATM   12  C   UNL     1     -10.444   8.819  67.930  1.00  0.00    -0.216 A  
HETATM   13  N   UNL     1     -10.466   8.072  66.777  1.00  0.00    -0.416 NA 
HETATM   14  C   UNL     1     -11.656  11.059  67.302  1.00  0.00    -0.021 C  
HETATM   15  C   UNL     1      -9.881   4.363  66.802  1.00  0.00    -0.218 A  
HETATM   16  N   UNL     1     -10.274  10.756  69.438  1.00  0.00    -0.198 NA 
HETATM   17  C   UNL     1      -9.736   4.257  68.173  1.00  0.00    -0.165 A  
HETATM   18  C   UNL     1     -10.447  10.341  68.035  1.00  0.00    -0.196 C  
HETATM   19  C   UNL     1      -9.817   5.370  69.024  1.00  0.00    -0.231 A  
HETATM   20  C   UNL     1     -10.088   6.633  68.449  1.00  0.00    -0.163 A  
HETATM   21  H   UNL     1     -10.627   8.448  65.843  1.00  0.00     0.000 HD 
HETATM   22  C   UNL     1     -10.240   6.733  67.065  1.00  0.00    -0.237 A  
ENDROOT
BRANCH   3  23
HETATM   23  O   UNL     1      -9.592  13.008  67.619  1.00  0.00    -0.195 OA 
BRANCH  23  24
HETATM   24  C   UNL     1      -8.291  13.215  67.285  1.00  0.00    -0.179 C  
HETATM   25  O   UNL     1      -7.917  13.254  66.118  1.00  0.00     1.102 OA 
BRANCH  24  26
HETATM   26  C   UNL     1      -7.259  13.434  68.370  1.00  0.00    -0.110 A  
HETATM   27  C   UNL     1      -6.681  12.545  69.271  1.00  0.00    -0.060 A  
HETATM   28  C   UNL     1      -6.253  15.259  69.652  1.00  0.00    -0.147 A  
HETATM   29  C   UNL     1      -5.948  12.988  70.402  1.00  0.00    -0.111 A  
HETATM   30  C   UNL     1      -6.893  14.769  68.511  1.00  0.00    -0.107 A  
HETATM   31  C   UNL     1      -5.795  14.371  70.642  1.00  0.00    -0.185 A  
BRANCH  28  32
HETATM   32  O   UNL     1      -6.087  16.616  69.788  1.00  0.00    -0.213 OA 
HETATM   33  C   UNL     1      -6.029  17.342  68.554  1.00  0.00    -0.156 C  
ENDBRANCH  28  32
BRANCH  31  34
HETATM   34  O   UNL     1      -5.231  14.736  71.834  1.00  0.00    -0.144 OA 
HETATM   35  C   UNL     1      -5.647  14.091  73.031  1.00  0.00    -0.034 C  
ENDBRANCH  31  34
BRANCH  29  36
HETATM   36  O   UNL     1      -5.506  11.931  71.173  1.00  0.00    -0.298 OA 
HETATM   37  C   UNL     1      -5.577  10.609  70.643  1.00  0.00    -0.105 C  
ENDBRANCH  29  36
ENDBRANCH  24  26
ENDBRANCH  23  24
ENDBRANCH   3  23
BRANCH   5  38
HETATM   38  O   UNL     1     -11.682  15.843  68.685  1.00  0.00    -0.387 OA 
HETATM   39  C   UNL     1     -11.127  17.149  68.648  1.00  0.00    -0.057 C  
ENDBRANCH   5  38
BRANCH   7  40
HETATM   40  C   UNL     1     -12.163  13.830  65.740  1.00  0.00    -0.462 C  
HETATM   41  O   UNL     1     -12.941  13.224  65.014  1.00  0.00    -0.726 OA 
BRANCH  40  42
HETATM   42  O   UNL     1     -11.091  14.537  65.301  1.00  0.00    -0.318 OA 
HETATM   43  C   UNL     1     -10.316  13.926  64.271  1.00  0.00     0.189 C  
ENDBRANCH  40  42
ENDBRANCH   7  40
BRANCH  15  44
HETATM   44  O   UNL     1      -9.758   3.171  66.136  1.00  0.00    -0.023 OA 
HETATM   45  C   UNL     1      -8.873   3.136  65.026  1.00  0.00    -0.126 C  
ENDBRANCH  15  44
TORSDOF 10
ENDMDL
MODEL       95
REMARK 921   NORMALIZED FREE ENERGY PREDICTED BY IDOCK:   -3.34 KCAL/MOL
REMARK 922        TOTAL FREE ENERGY PREDICTED BY IDOCK:   -8.05 KCAL/MOL
REMARK 923 INTER-LIGAND FREE ENERGY PREDICTED BY IDOCK:   -6.35 KCAL/MOL
REMARK 924 INTRA-LIGAND FREE ENERGY PREDICTED BY IDOCK:   -1.70 KCAL/MOL
REMARK 927      BINDING AFFINITY PREDICTED BY RF-SCORE:    0.00 PKD
ROOT
HETATM    1  C   UNL     1     -10.416   6.033  66.737  1.00  0.00    -0.329 C  
HETATM    2  C   UNL     1      -9.048   5.435  66.390  1.00  0.00    -0.141 C  
HETATM    3  C   UNL     1      -8.003   5.439  67.548  1.00  0.00    -0.101 C  
HETATM    4  C   UNL     1     -10.175  10.380  65.286  1.00  0.00    -0.332 C  
HETATM    5  C   UNL     1      -8.510   4.355  68.497  1.00  0.00    -0.092 C  
HETATM    6  C   UNL     1     -10.569   7.350  65.966  1.00  0.00     1.487 C  
HETATM    7  C   UNL     1      -9.876   4.896  69.050  1.00  0.00    -0.250 C  
HETATM    8  C   UNL     1      -9.126   9.267  65.457  1.00  0.00    -0.221 C  
HETATM    9  C   UNL     1     -10.541  10.881  66.640  1.00  0.00    -0.305 A  
HETATM   10  C   UNL     1     -10.598   6.134  68.261  1.00  0.00    -0.324 C  
HETATM   11  C   UNL     1     -11.287  13.346  69.164  1.00  0.00    -0.333 A  
HETATM   12  C   UNL     1     -10.368  10.100  67.771  1.00  0.00    -0.210 A  
HETATM   13  N   UNL     1     -10.623  10.909  68.851  1.00  0.00    -0.198 NA 
HETATM   14  C   UNL     1     -10.522   7.656  68.710  1.00  0.00    -0.208 C  
HETATM   15  C   UNL     1     -11.602  14.512  68.449  1.00  0.00    -0.326 A  
HETATM   16  N   UNL     1      -9.515   8.226  66.424  1.00  0.00    -0.213 NA 
HETATM   17  C   UNL     1     -11.596  14.501  67.067  1.00  0.00    -0.402 A  
HETATM   18  C   UNL     1      -9.756   8.702  67.797  1.00  0.00    -0.165 C  
HETATM   19  C   UNL     1     -11.268  13.354  66.327  1.00  0.00    -0.322 A  
HETATM   20  C   UNL     1     -10.965  12.168  67.032  1.00  0.00    -0.319 A  
HETATM   21  H   UNL     1     -10.560  10.615  69.825  1.00  0.00     0.000 HD 
HETATM   22  C   UNL     1     -10.979  12.183  68.428  1.00  0.00    -0.235 A  
ENDROOT
BRANCH   3  23
HETATM   23  O   UNL     1      -7.866   6.668  68.349  1.00  0.00    -0.103 OA 
BRANCH  23  24
HETATM   24  C   UNL     1      -6.732   7.369  68.083  1.00  0.00    -0.055 C  
HETATM   25  O   UNL     1      -5.853   6.929  67.349  1.00  0.00    -0.019 OA 
BRANCH  24  26
HETATM   26  C   UNL     1      -6.539   8.747  68.678  1.00  0.00    -0.055 A  
HETATM   27  C   UNL     1      -6.179   9.953  68.084  1.00  0.00    -0.054 A  
HETATM   28  C   UNL     1      -6.216   9.815  70.855  1.00  0.00    -0.084 A  
HETATM   29  C   UNL     1      -5.768  11.076  68.849  1.00  0.00    -0.039 A  
HETATM   30  C   UNL     1      -6.691   8.769  70.060  1.00  0.00    -0.039 A  
HETATM   31  C   UNL     1      -5.711  10.984  70.257  1.00  0.00    -0.115 A  
BRANCH  28  32
HETATM   32  O   UNL     1      -6.247   9.677  72.222  1.00  0.00    -0.289 OA 
HETATM   33  C   UNL     1      -6.698   8.399  72.687  1.00  0.00    -0.088 C  
ENDBRANCH  28  32
BRANCH  31  34
HETATM   34  O   UNL     1      -5.146  12.036  70.926  1.00  0.00    -0.112 OA 
HETATM   35  C   UNL     1      -5.879  13.245  71.073  1.00  0.00    -0.051 C  
ENDBRANCH  31  34
BRANCH  29  36
HETATM   36  O   UNL     1      -5.420  12.144  68.046  1.00  0.00    -0.051 OA 
HETATM   37  C   UNL     1      -6.355  13.204  67.857  1.00  0.00    -0.139 C  
ENDBRANCH  29  36
ENDBRANCH  24  26
ENDBRANCH  23  24
ENDBRANCH   3  23
BRANCH   5  38
HETATM   38  O   UNL     1      -8.679   3.130  67.751  1.00  0.00    -0.093 OA 
HETATM   39  C   UNL     1      -9.201   2.012  68.452  1.00  0.00    -0.182 C  
ENDBRANCH   5  38
BRANCH   7  40
HETATM   40  C   UNL     1      -9.760   5.122  70.547  1.00  0.00    -0.193 C  
HETATM   41  O   UNL     1      -9.136   6.026  71.089  1.00  0.00    -0.145 OA 
BRANCH  40  42
HETATM   42  O   UNL     1     -10.411   4.131  71.207  1.00  0.00    -0.065 OA 
HETATM   43  C   UNL     1      -9.603   3.288  72.026  1.00  0.00    -0.145 C  
ENDBRANCH  40  42
ENDBRANCH   7  40
BRANCH  15  44
HETATM   44  O   UNL     1     -11.936  15.724  68.994  1.00  0.00    -0.385 OA 
HETATM   45  C   UNL     1     -10.869  16.601  69.326  1.00  0.00    -0.310 C  
ENDBRANCH  15  44
TORSDOF 10
ENDMDL
MODEL       96
REMARK 921   NORMALIZED FREE ENERGY PREDICTED BY IDOCK:   -3.30 KCAL/MOL
REMARK 922        TOTAL FREE ENERGY PREDICTED BY IDOCK:   -7.99 KCAL/MOL
REMARK 923 INTER-LIGAND FREE ENERGY PREDICTED BY IDOCK:   -8.94 KCAL/MOL
REMARK 924 INTRA-LIGAND FREE ENERGY PREDICTED BY IDOCK:    0.95 KCAL/MOL
REMARK 927      BINDING AFFINITY PREDICTED BY RF-SCORE:    0.00 PKD
ROOT
HETATM    1  C   UNL     1     -12.486  13.348  66.906  1.00  0.00    -0.114 C  
HETATM    2  C   UNL     1     -11.770  14.700  66.991  1.00  0.00    -0.379 C  
HETATM    3  C   UNL     1     -10.270  14.691  66.561  1.00  0.00    -0.278 C  
HETATM    4  C   UNL     1     -12.218  11.632  71.154  1.00  0.00    -0.249 C  
HETATM    5  C   UNL     1     -10.330  14.542  65.041  1.00  0.00    -0.413 C  
HETATM    6  C   UNL     1     -12.777  12.872  68.335  1.00  0.00     1.293 C  
HETATM    7  C   UNL     1     -10.934  13.114  64.791  1.00  0.00    -0.355 C  
HETATM    8  C   UNL     1     -11.550  12.832  70.458  1.00  0.00     0.334 C  
HETATM    9  C   UNL     1     -11.579  10.388  70.641  1.00  0.00    -0.440 A  
HETATM   10  C   UNL     1     -11.692  12.363  66.030  1.00  0.00    -0.469 C  
HETATM   11  C   UNL     1     -10.105   7.104  70.839  1.00  0.00    -0.200 A  
HETATM   12  C   UNL     1     -10.940  10.358  69.412  1.00  0.00    -0.251 A  
HETATM   13  N   UNL     1     -10.313   9.138  69.325  1.00  0.00    -0.211 NA 
HETATM   14  C   UNL     1     -11.032  11.244  66.946  1.00  0.00    -0.348 C  
HETATM   15  C   UNL     1     -10.520   6.594  72.080  1.00  0.00    -0.204 A  
HETATM   16  N   UNL     1     -11.499  12.716  68.990  1.00  0.00    -0.284 NA 
HETATM   17  C   UNL     1     -11.345   7.345  72.896  1.00  0.00    -0.322 A  
HETATM   18  C   UNL     1     -10.759  11.550  68.478  1.00  0.00    -0.209 C  
HETATM   19  C   UNL     1     -11.786   8.630  72.541  1.00  0.00    -0.342 A  
HETATM   20  C   UNL     1     -11.390   9.149  71.287  1.00  0.00    -0.406 A  
HETATM   21  H   UNL     1      -9.746   8.831  68.535  1.00  0.00     0.000 HD 
HETATM   22  C   UNL     1     -10.562   8.383  70.463  1.00  0.00    -0.216 A  
ENDROOT
BRANCH   3  23
HETATM   23  O   UNL     1      -9.417  13.598  67.058  1.00  0.00    -0.234 OA 
BRANCH  23  24
HETATM   24  C   UNL     1      -8.097  13.918  67.111  1.00  0.00    -0.083 C  
HETATM   25  O   UNL     1      -7.218  13.094  66.885  1.00  0.00     0.143 OA 
BRANCH  24  26
HETATM   26  C   UNL     1      -7.677  15.337  67.430  1.00  0.00    -0.225 A  
HETATM   27  C   UNL     1      -6.960  15.855  68.504  1.00  0.00    -0.122 A  
HETATM   28  C   UNL     1      -8.211  17.635  66.783  1.00  0.00    -0.243 A  
HETATM   29  C   UNL     1      -6.912  17.247  68.777  1.00  0.00    -0.230 A  
HETATM   30  C   UNL     1      -8.157  16.266  66.513  1.00  0.00    -0.337 A  
HETATM   31  C   UNL     1      -7.613  18.150  67.948  1.00  0.00    -0.233 A  
BRANCH  28  32
HETATM   32  O   UNL     1      -8.861  18.462  65.899  1.00  0.00    -0.491 OA 
HETATM   33  C   UNL     1     -10.280  18.541  66.081  1.00  0.00    -0.398 C  
ENDBRANCH  28  32
BRANCH  31  34
HETATM   34  O   UNL     1      -7.672  19.453  68.359  1.00  0.00    -0.303 OA 
HETATM   35  C   UNL     1      -6.555  20.306  68.143  1.00  0.00    -0.301 C  
ENDBRANCH  31  34
BRANCH  29  36
HETATM   36  O   UNL     1      -6.177  17.522  69.913  1.00  0.00    -0.226 OA 
HETATM   37  C   UNL     1      -5.527  16.451  70.594  1.00  0.00    -0.106 C  
ENDBRANCH  29  36
ENDBRANCH  24  26
ENDBRANCH  23  24
ENDBRANCH   3  23
BRANCH   5  38
HETATM   38  O   UNL     1     -11.175  15.585  64.508  1.00  0.00    -0.393 OA 
HETATM   39  C   UNL     1     -12.387  15.182  63.888  1.00  0.00     0.187 C  
ENDBRANCH   5  38
BRANCH   7  40
HETATM   40  C   UNL     1      -9.900  12.244  64.100  1.00  0.00    -0.145 C  
HETATM   41  O   UNL     1      -9.566  12.324  62.924  1.00  0.00    -0.125 OA 
BRANCH  40  42
HETATM   42  O   UNL     1      -9.432  11.316  64.972  1.00  0.00    -0.222 OA 
HETATM   43  C   UNL     1      -9.365   9.976  64.486  1.00  0.00    -0.286 C  
ENDBRANCH  40  42
ENDBRANCH   7  40
BRANCH  15  44
HETATM   44  O   UNL     1     -10.186   5.372  72.600  1.00  0.00    -0.175 OA 
HETATM   45  C   UNL     1     -11.214   4.643  73.256  1.00  0.00    -0.325 C  
ENDBRANCH  15  44
TORSDOF 10
ENDMDL
MODEL       97
REMARK 921   NORMALIZED FREE ENERGY PREDICTED BY IDOCK:   -3.30 KCAL/MOL
REMARK 922        TOTAL FREE ENERGY PREDICTED BY IDOCK:   -7.98 KCAL/MOL
REMARK 923 INTER-LIGAND FREE ENERGY PREDICTED BY IDOCK:   -6.38 KCAL/MOL
REMARK 924 INTRA-LIGAND FREE ENERGY PREDICTED BY IDOCK:   -1.60 KCAL/MOL
REMARK 927      BINDING AFFINITY PREDICTED BY RF-SCORE:    0.00 PKD
ROOT
HETATM    1  C   UNL     1      -5.414  10.200  66.929  1.00  0.00    -0.045 C  
HETATM    2  C   UNL     1      -6.152  11.381  66.291  1.00  0.00    -0.028 C  
HETATM    3  C   UNL     1      -7.116  12.159  67.239  1.00  0.00    -0.144 C  
HETATM    4  C   UNL     1      -7.961   6.535  65.857  1.00  0.00    -0.115 C  
HETATM    5  C   UNL     1      -6.173  12.929  68.162  1.00  0.00    -0.093 C  
HETATM    6  C   UNL     1      -5.970   8.906  66.320  1.00  0.00    -0.059 C  
HETATM    7  C   UNL     1      -5.424  11.830  68.997  1.00  0.00    -0.050 C  
HETATM    8  C   UNL     1      -8.193   8.052  65.737  1.00  0.00    -0.132 C  
HETATM    9  C   UNL     1      -8.079   6.163  67.294  1.00  0.00    -0.106 A  
HETATM   10  C   UNL     1      -5.469  10.285  68.464  1.00  0.00    -0.038 C  
HETATM   11  C   UNL     1      -9.124   4.186  70.123  1.00  0.00    -0.181 A  
HETATM   12  C   UNL     1      -7.881   7.094  68.301  1.00  0.00    -0.122 A  
HETATM   13  N   UNL     1      -8.240   6.484  69.478  1.00  0.00    -0.124 NA 
HETATM   14  C   UNL     1      -6.446   9.165  69.028  1.00  0.00    -0.047 C  
HETATM   15  C   UNL     1      -9.467   2.936  69.585  1.00  0.00    -0.094 A  
HETATM   16  N   UNL     1      -7.374   8.856  66.659  1.00  0.00    -0.085 NA 
HETATM   17  C   UNL     1      -9.334   2.705  68.228  1.00  0.00    -0.258 A  
HETATM   18  C   UNL     1      -7.581   8.575  68.091  1.00  0.00    -0.098 C  
HETATM   19  C   UNL     1      -8.874   3.691  67.341  1.00  0.00    -0.144 A  
HETATM   20  C   UNL     1      -8.508   4.949  67.871  1.00  0.00    -0.103 A  
HETATM   21  H   UNL     1      -8.216   6.929  70.395  1.00  0.00     0.000 HD 
HETATM   22  C   UNL     1      -8.638   5.175  69.242  1.00  0.00    -0.096 A  
ENDROOT
BRANCH   3  23
HETATM   23  O   UNL     1      -8.008  11.373  68.110  1.00  0.00    -0.119 OA 
BRANCH  23  24
HETATM   24  C   UNL     1      -9.326  11.513  67.809  1.00  0.00    -0.168 C  
HETATM   25  O   UNL     1      -9.703  11.930  66.719  1.00  0.00    -0.197 OA 
BRANCH  24  26
HETATM   26  C   UNL     1     -10.378  11.120  68.823  1.00  0.00    -0.222 A  
HETATM   27  C   UNL     1     -11.381  11.869  69.432  1.00  0.00    -0.327 A  
HETATM   28  C   UNL     1     -10.862   9.328  70.417  1.00  0.00    -0.254 A  
HETATM   29  C   UNL     1     -12.087  11.400  70.570  1.00  0.00    -0.394 A  
HETATM   30  C   UNL     1     -10.258   9.802  69.250  1.00  0.00    -0.216 A  
HETATM   31  C   UNL     1     -11.770  10.139  71.122  1.00  0.00    -0.366 A  
BRANCH  28  32
HETATM   32  O   UNL     1     -10.550   8.066  70.861  1.00  0.00    -0.209 OA 
HETATM   33  C   UNL     1      -9.717   8.028  72.027  1.00  0.00    -0.203 C  
ENDBRANCH  28  32
BRANCH  31  34
HETATM   34  O   UNL     1     -12.359   9.817  72.314  1.00  0.00    -0.248 OA 
HETATM   35  C   UNL     1     -13.599   9.122  72.316  1.00  0.00    -0.489 C  
ENDBRANCH  31  34
BRANCH  29  36
HETATM   36  O   UNL     1     -13.004  12.327  71.024  1.00  0.00    -0.209 OA 
HETATM   37  C   UNL     1     -12.550  13.628  71.391  1.00  0.00    -0.328 C  
ENDBRANCH  29  36
ENDBRANCH  24  26
ENDBRANCH  23  24
ENDBRANCH   3  23
BRANCH   5  38
HETATM   38  O   UNL     1      -5.263  13.703  67.350  1.00  0.00    -0.336 OA 
HETATM   39  C   UNL     1      -5.341  15.115  67.457  1.00  0.00     0.125 C  
ENDBRANCH   5  38
BRANCH   7  40
HETATM   40  C   UNL     1      -5.790  11.974  70.462  1.00  0.00    -0.122 C  
HETATM   41  O   UNL     1      -6.465  11.185  71.113  1.00  0.00     0.041 OA 
BRANCH  40  42
HETATM   42  O   UNL     1      -5.302  13.146  70.940  1.00  0.00    -0.141 OA 
HETATM   43  C   UNL     1      -6.270  14.096  71.380  1.00  0.00     0.178 C  
ENDBRANCH  40  42
ENDBRANCH   7  40
BRANCH  15  44
HETATM   44  O   UNL     1      -9.942   1.860  70.287  1.00  0.00     0.087 OA 
HETATM   45  C   UNL     1      -9.290   1.545  71.510  1.00  0.00    -0.099 C  
ENDBRANCH  15  44
TORSDOF 10
ENDMDL
MODEL       98
REMARK 921   NORMALIZED FREE ENERGY PREDICTED BY IDOCK:   -3.28 KCAL/MOL
REMARK 922        TOTAL FREE ENERGY PREDICTED BY IDOCK:   -7.95 KCAL/MOL
REMARK 923 INTER-LIGAND FREE ENERGY PREDICTED BY IDOCK:   -6.68 KCAL/MOL
REMARK 924 INTRA-LIGAND FREE ENERGY PREDICTED BY IDOCK:   -1.27 KCAL/MOL
REMARK 927      BINDING AFFINITY PREDICTED BY RF-SCORE:    0.00 PKD
ROOT
HETATM    1  C   UNL     1      -5.832  11.659  66.950  1.00  0.00    -0.143 C  
HETATM    2  C   UNL     1      -7.047  12.584  66.835  1.00  0.00     0.159 C  
HETATM    3  C   UNL     1      -7.888  12.749  68.139  1.00  0.00    -0.146 C  
HETATM    4  C   UNL     1      -7.326   7.598  65.418  1.00  0.00    -0.071 C  
HETATM    5  C   UNL     1      -7.004  13.617  69.033  1.00  0.00    -0.098 C  
HETATM    6  C   UNL     1      -6.114  10.397  66.124  1.00  0.00    -0.096 C  
HETATM    7  C   UNL     1      -5.747  12.732  69.353  1.00  0.00    -0.090 C  
HETATM    8  C   UNL     1      -8.037   8.914  65.782  1.00  0.00    -0.107 C  
HETATM    9  C   UNL     1      -6.906   6.936  66.684  1.00  0.00    -0.064 A  
HETATM   10  C   UNL     1      -5.467  11.415  68.425  1.00  0.00    -0.042 C  
HETATM   11  C   UNL     1      -6.435   4.201  68.987  1.00  0.00    -0.040 A  
HETATM   12  C   UNL     1      -6.723   7.658  67.852  1.00  0.00    -0.067 A  
HETATM   13  N   UNL     1      -6.523   6.741  68.855  1.00  0.00    -0.035 NA 
HETATM   14  C   UNL     1      -5.847   9.927  68.832  1.00  0.00    -0.034 C  
HETATM   15  C   UNL     1      -6.517   3.044  68.196  1.00  0.00    -0.036 A  
HETATM   16  N   UNL     1      -7.274   9.767  66.710  1.00  0.00    -0.090 NA 
HETATM   17  C   UNL     1      -6.715   3.148  66.832  1.00  0.00    -0.045 A  
HETATM   18  C   UNL     1      -6.965   9.155  68.015  1.00  0.00    -0.077 C  
HETATM   19  C   UNL     1      -6.855   4.387  66.187  1.00  0.00    -0.058 A  
HETATM   20  C   UNL     1      -6.757   5.562  66.967  1.00  0.00    -0.062 A  
HETATM   21  H   UNL     1      -6.374   6.975  69.836  1.00  0.00     0.000 HD 
HETATM   22  C   UNL     1      -6.551   5.450  68.343  1.00  0.00    -0.049 A  
ENDROOT
BRANCH   3  23
HETATM   23  O   UNL     1      -8.206  11.536  68.912  1.00  0.00    -0.116 OA 
BRANCH  23  24
HETATM   24  C   UNL     1      -9.516  11.179  68.851  1.00  0.00    -0.124 C  
HETATM   25  O   UNL     1     -10.022  10.420  69.670  1.00  0.00    -0.229 OA 
BRANCH  24  26
HETATM   26  C   UNL     1     -10.403  11.745  67.763  1.00  0.00    -0.211 A  
HETATM   27  C   UNL     1     -10.622  11.323  66.455  1.00  0.00    -0.316 A  
HETATM   28  C   UNL     1     -11.609  13.802  67.216  1.00  0.00    -0.361 A  
HETATM   29  C   UNL     1     -11.267  12.147  65.496  1.00  0.00    -0.334 A  
HETATM   30  C   UNL     1     -11.044  12.920  68.140  1.00  0.00    -0.282 A  
HETATM   31  C   UNL     1     -11.701  13.441  65.859  1.00  0.00    -0.356 A  
BRANCH  28  32
HETATM   32  O   UNL     1     -12.065  15.022  67.654  1.00  0.00    -0.202 OA 
HETATM   33  C   UNL     1     -11.038  15.982  67.932  1.00  0.00    -0.307 C  
ENDBRANCH  28  32
BRANCH  31  34
HETATM   34  O   UNL     1     -12.156  14.248  64.853  1.00  0.00    -0.395 OA 
HETATM   35  C   UNL     1     -11.343  15.321  64.396  1.00  0.00    -0.215 C  
ENDBRANCH  31  34
BRANCH  29  36
HETATM   36  O   UNL     1     -11.336  11.537  64.259  1.00  0.00    -0.323 OA 
HETATM   37  C   UNL     1     -10.188  11.555  63.413  1.00  0.00    -0.420 C  
ENDBRANCH  29  36
ENDBRANCH  24  26
ENDBRANCH  23  24
ENDBRANCH   3  23
BRANCH   5  38
HETATM   38  O   UNL     1      -6.648  14.815  68.308  1.00  0.00    -0.097 OA 
HETATM   39  C   UNL     1      -7.414  15.981  68.569  1.00  0.00    -0.156 C  
ENDBRANCH   5  38
BRANCH   7  40
HETATM   40  C   UNL     1      -5.702  12.441  70.842  1.00  0.00    -0.038 C  
HETATM   41  O   UNL     1      -5.495  11.346  71.352  1.00  0.00    -0.338 OA 
BRANCH  40  42
HETATM   42  O   UNL     1      -5.984  13.572  71.535  1.00  0.00    -0.318 OA 
HETATM   43  C   UNL     1      -5.128  13.862  72.638  1.00  0.00    -0.204 C  
ENDBRANCH  40  42
ENDBRANCH   7  40
BRANCH  15  44
HETATM   44  O   UNL     1      -6.416   1.753  68.646  1.00  0.00    -0.028 OA 
HETATM   45  C   UNL     1      -5.635   1.532  69.811  1.00  0.00    -0.017 C  
ENDBRANCH  15  44
TORSDOF 10
ENDMDL
MODEL       99
REMARK 921   NORMALIZED FREE ENERGY PREDICTED BY IDOCK:   -3.27 KCAL/MOL
REMARK 922        TOTAL FREE ENERGY PREDICTED BY IDOCK:   -7.94 KCAL/MOL
REMARK 923 INTER-LIGAND FREE ENERGY PREDICTED BY IDOCK:   -6.80 KCAL/MOL
REMARK 924 INTRA-LIGAND FREE ENERGY PREDICTED BY IDOCK:   -1.13 KCAL/MOL
REMARK 927      BINDING AFFINITY PREDICTED BY RF-SCORE:    0.00 PKD
ROOT
HETATM    1  C   UNL     1     -11.334  10.124  68.143  1.00  0.00    -0.171 C  
HETATM    2  C   UNL     1     -10.842   8.980  67.250  1.00  0.00    -0.100 C  
HETATM    3  C   UNL     1      -9.399   8.468  67.553  1.00  0.00    -0.144 C  
HETATM    4  C   UNL     1     -10.455  13.929  65.731  1.00  0.00    -0.313 C  
HETATM    5  C   UNL     1      -9.556   7.703  68.867  1.00  0.00    -0.150 C  
HETATM    6  C   UNL     1     -11.431  11.391  67.283  1.00  0.00    -0.224 C  
HETATM    7  C   UNL     1      -9.939   8.790  69.934  1.00  0.00    -0.193 C  
HETATM    8  C   UNL     1     -10.048  12.454  65.560  1.00  0.00    -0.267 C  
HETATM    9  C   UNL     1      -9.668  14.496  66.861  1.00  0.00    -0.257 A  
HETATM   10  C   UNL     1     -10.465  10.246  69.406  1.00  0.00    -0.259 C  
HETATM   11  C   UNL     1      -7.672  16.943  68.601  1.00  0.00    -0.235 A  
HETATM   12  C   UNL     1      -9.132  13.684  67.848  1.00  0.00    -0.198 A  
HETATM   13  N   UNL     1      -8.326  14.484  68.621  1.00  0.00    -0.162 NA 
HETATM   14  C   UNL     1      -9.562  11.550  69.310  1.00  0.00     0.301 C  
HETATM   15  C   UNL     1      -7.899  18.148  67.918  1.00  0.00    -0.244 A  
HETATM   16  N   UNL     1     -10.095  11.673  66.807  1.00  0.00    -0.210 NA 
HETATM   17  C   UNL     1      -8.766  18.182  66.841  1.00  0.00    -0.267 A  
HETATM   18  C   UNL     1      -9.221  12.162  67.888  1.00  0.00    -0.188 C  
HETATM   19  C   UNL     1      -9.436  17.037  66.381  1.00  0.00    -0.294 A  
HETATM   20  C   UNL     1      -9.230  15.820  67.070  1.00  0.00    -0.233 A  
HETATM   21  H   UNL     1      -7.781  14.161  69.420  1.00  0.00     0.000 HD 
HETATM   22  C   UNL     1      -8.358  15.793  68.160  1.00  0.00    -0.160 A  
ENDROOT
BRANCH   3  23
HETATM   23  O   UNL     1      -8.344   9.472  67.774  1.00  0.00    -0.117 OA 
BRANCH  23  24
HETATM   24  C   UNL     1      -7.093   9.017  67.501  1.00  0.00    -0.076 C  
HETATM   25  O   UNL     1      -6.127   9.313  68.195  1.00  0.00    -0.051 OA 
BRANCH  24  26
HETATM   26  C   UNL     1      -6.867   8.092  66.325  1.00  0.00    -0.058 A  
HETATM   27  C   UNL     1      -6.708   6.710  66.270  1.00  0.00    -0.049 A  
HETATM   28  C   UNL     1      -6.175   8.183  63.980  1.00  0.00    -0.066 A  
HETATM   29  C   UNL     1      -6.220   6.054  65.110  1.00  0.00    -0.037 A  
HETATM   30  C   UNL     1      -6.736   8.769  65.117  1.00  0.00    -0.064 A  
HETATM   31  C   UNL     1      -5.873   6.810  63.969  1.00  0.00    -0.031 A  
BRANCH  28  32
HETATM   32  O   UNL     1      -5.920   8.972  62.884  1.00  0.00    -0.089 OA 
HETATM   33  C   UNL     1      -5.814  10.374  63.163  1.00  0.00    -0.144 C  
ENDBRANCH  28  32
BRANCH  31  34
HETATM   34  O   UNL     1      -5.248   6.144  62.949  1.00  0.00    -0.017 OA 
HETATM   35  C   UNL     1      -5.827   4.952  62.435  1.00  0.00    -0.014 C  
ENDBRANCH  31  34
BRANCH  29  36
HETATM   36  O   UNL     1      -6.106   4.691  65.301  1.00  0.00    -0.025 OA 
HETATM   37  C   UNL     1      -5.197   4.203  66.286  1.00  0.00    -0.009 C  
ENDBRANCH  29  36
ENDBRANCH  24  26
ENDBRANCH  23  24
ENDBRANCH   3  23
BRANCH   5  38
HETATM   38  O   UNL     1     -10.598   6.716  68.705  1.00  0.00    -0.199 OA 
HETATM   39  C   UNL     1     -10.453   5.500  69.422  1.00  0.00    -0.290 C  
ENDBRANCH   5  38
BRANCH   7  40
HETATM   40  C   UNL     1      -8.837   8.888  70.972  1.00  0.00    -0.230 C  
HETATM   41  O   UNL     1      -7.927   9.708  70.977  1.00  0.00    -0.301 OA 
BRANCH  40  42
HETATM   42  O   UNL     1      -8.975   7.886  71.877  1.00  0.00    -0.121 OA 
HETATM   43  C   UNL     1      -8.565   8.183  73.210  1.00  0.00    -0.242 C  
ENDBRANCH  40  42
ENDBRANCH   7  40
BRANCH  15  44
HETATM   44  O   UNL     1      -7.332  19.360  68.213  1.00  0.00    -0.284 OA 
HETATM   45  C   UNL     1      -6.515  19.429  69.372  1.00  0.00    -0.322 C  
ENDBRANCH  15  44
TORSDOF 10
ENDMDL
MODEL      100
REMARK 921   NORMALIZED FREE ENERGY PREDICTED BY IDOCK:   -3.26 KCAL/MOL
REMARK 922        TOTAL FREE ENERGY PREDICTED BY IDOCK:   -7.93 KCAL/MOL
REMARK 923 INTER-LIGAND FREE ENERGY PREDICTED BY IDOCK:   -6.12 KCAL/MOL
REMARK 924 INTRA-LIGAND FREE ENERGY PREDICTED BY IDOCK:   -1.80 KCAL/MOL
REMARK 927      BINDING AFFINITY PREDICTED BY RF-SCORE:    0.00 PKD
ROOT
HETATM    1  C   UNL     1      -8.089  14.877  67.906  1.00  0.00    -0.148 C  
HETATM    2  C   UNL     1      -8.401  15.025  66.413  1.00  0.00     0.154 C  
HETATM    3  C   UNL     1      -9.794  14.486  65.964  1.00  0.00    -0.318 C  
HETATM    4  C   UNL     1      -5.666  10.990  68.197  1.00  0.00    -0.046 C  
HETATM    5  C   UNL     1     -10.777  15.514  66.523  1.00  0.00    -0.304 C  
HETATM    6  C   UNL     1      -6.980  13.828  68.059  1.00  0.00    -0.137 C  
HETATM    7  C   UNL     1     -10.666  15.385  68.084  1.00  0.00    -0.271 C  
HETATM    8  C   UNL     1      -6.480  11.642  67.065  1.00  0.00    -0.148 C  
HETATM    9  C   UNL     1      -6.624  10.435  69.193  1.00  0.00    -0.054 A  
HETATM   10  C   UNL     1      -9.372  14.605  68.709  1.00  0.00    -0.191 C  
HETATM   11  C   UNL     1      -7.968   8.002  71.490  1.00  0.00    -0.117 A  
HETATM   12  C   UNL     1      -7.916  10.924  69.303  1.00  0.00    -0.070 A  
HETATM   13  N   UNL     1      -8.580  10.089  70.168  1.00  0.00    -0.349 NA 
HETATM   14  C   UNL     1      -9.383  13.096  69.206  1.00  0.00     0.837 C  
HETATM   15  C   UNL     1      -6.897   7.139  71.770  1.00  0.00    -0.059 A  
HETATM   16  N   UNL     1      -7.506  12.587  67.537  1.00  0.00    -0.140 NA 
HETATM   17  C   UNL     1      -5.657   7.364  71.202  1.00  0.00    -0.031 A  
HETATM   18  C   UNL     1      -8.530  12.010  68.426  1.00  0.00    -0.147 C  
HETATM   19  C   UNL     1      -5.417   8.434  70.326  1.00  0.00    -0.022 A  
HETATM   20  C   UNL     1      -6.481   9.322  70.048  1.00  0.00    -0.049 A  
HETATM   21  H   UNL     1      -9.560  10.186  70.434  1.00  0.00     0.000 HD 
HETATM   22  C   UNL     1      -7.729   9.093  70.630  1.00  0.00    -0.138 A  
ENDROOT
BRANCH   3  23
HETATM   23  O   UNL     1     -10.223  13.173  66.477  1.00  0.00    -0.266 OA 
BRANCH  23  24
HETATM   24  C   UNL     1     -10.598  12.303  65.502  1.00  0.00    -0.269 C  
HETATM   25  O   UNL     1     -11.670  12.407  64.916  1.00  0.00    -0.340 OA 
BRANCH  24  26
HETATM   26  C   UNL     1      -9.668  11.182  65.092  1.00  0.00    -0.296 A  
HETATM   27  C   UNL     1      -8.807  11.064  64.005  1.00  0.00     0.023 A  
HETATM   28  C   UNL     1      -9.284   8.810  65.550  1.00  0.00    -0.137 A  
HETATM   29  C   UNL     1      -8.231   9.822  63.631  1.00  0.00    -0.158 A  
HETATM   30  C   UNL     1      -9.757  10.070  65.923  1.00  0.00    -0.309 A  
HETATM   31  C   UNL     1      -8.534   8.657  64.369  1.00  0.00    -0.095 A  
BRANCH  28  32
HETATM   32  O   UNL     1      -9.569   7.730  66.350  1.00  0.00    -0.203 OA 
HETATM   33  C   UNL     1     -10.385   8.025  67.491  1.00  0.00    -0.261 C  
ENDBRANCH  28  32
BRANCH  31  34
HETATM   34  O   UNL     1      -8.090   7.467  63.861  1.00  0.00    -0.114 OA 
HETATM   35  C   UNL     1      -7.134   6.709  64.590  1.00  0.00    -0.057 C  
ENDBRANCH  31  34
BRANCH  29  36
HETATM   36  O   UNL     1      -7.446   9.940  62.501  1.00  0.00    -0.112 OA 
HETATM   37  C   UNL     1      -6.156  10.536  62.612  1.00  0.00    -0.140 C  
ENDBRANCH  29  36
ENDBRANCH  24  26
ENDBRANCH  23  24
ENDBRANCH   3  23
BRANCH   5  38
HETATM   38  O   UNL     1     -10.385  16.825  66.061  1.00  0.00    -0.336 OA 
HETATM   39  C   UNL     1      -9.856  17.719  67.028  1.00  0.00    -0.309 C  
ENDBRANCH   5  38
BRANCH   7  40
HETATM   40  C   UNL     1     -11.991  14.901  68.645  1.00  0.00    -0.241 C  
HETATM   41  O   UNL     1     -12.661  13.976  68.203  1.00  0.00     0.073 OA 
BRANCH  40  42
HETATM   42  O   UNL     1     -12.357  15.688  69.687  1.00  0.00    -0.314 OA 
HETATM   43  C   UNL     1     -12.530  15.029  70.941  1.00  0.00    -0.345 C  
ENDBRANCH  40  42
ENDBRANCH   7  40
BRANCH  15  44
HETATM   44  O   UNL     1      -6.942   6.040  72.589  1.00  0.00    -0.076 OA 
HETATM   45  C   UNL     1      -7.675   6.163  73.799  1.00  0.00    -0.094 C  
ENDBRANCH  15  44
TORSDOF 10
ENDMDL
MODEL      101
REMARK 921   NORMALIZED FREE ENERGY PREDICTED BY IDOCK:   -3.06 KCAL/MOL
REMARK 922        TOTAL FREE ENERGY PREDICTED BY IDOCK:   -7.61 KCAL/MOL
REMARK 923 INTER-LIGAND FREE ENERGY PREDICTED BY IDOCK:   -6.02 KCAL/MOL
REMARK 924 INTRA-LIGAND FREE ENERGY PREDICTED BY IDOCK:   -1.60 KCAL/MOL
REMARK 927      BINDING AFFINITY PREDICTED BY RF-SCORE:    0.00 PKD
ROOT
HETATM    1  C   UNL     1      -7.743  12.782  66.417  1.00  0.00     0.931 C  
HETATM    2  C   UNL     1      -9.050  12.942  65.635  1.00  0.00     0.456 C  
HETATM    3  C   UNL     1     -10.276  13.422  66.472  1.00  0.00    -0.282 C  
HETATM    4  C   UNL     1      -7.590   8.326  67.510  1.00  0.00    -0.098 C  
HETATM    5  C   UNL     1      -9.973  14.894  66.746  1.00  0.00    -0.246 C  
HETATM    6  C   UNL     1      -7.417  11.284  66.500  1.00  0.00    -0.105 C  
HETATM    7  C   UNL     1      -8.703  14.889  67.670  1.00  0.00    -0.181 C  
HETATM    8  C   UNL     1      -8.689   9.231  66.923  1.00  0.00    -0.127 C  
HETATM    9  C   UNL     1      -7.443   8.658  68.954  1.00  0.00    -0.090 A  
HETATM   10  C   UNL     1      -7.818  13.518  67.766  1.00  0.00    -0.167 C  
HETATM   11  C   UNL     1      -7.055   7.992  72.476  1.00  0.00    -0.104 A  
HETATM   12  C   UNL     1      -7.831   9.889  69.456  1.00  0.00    -0.140 A  
HETATM   13  N   UNL     1      -7.736   9.804  70.824  1.00  0.00    -0.366 NA 
HETATM   14  C   UNL     1      -7.918  12.460  68.948  1.00  0.00     0.150 C  
HETATM   15  C   UNL     1      -6.584   6.671  72.546  1.00  0.00    -0.063 A  
HETATM   16  N   UNL     1      -8.505  10.662  67.220  1.00  0.00    -0.126 NA 
HETATM   17  C   UNL     1      -6.357   5.954  71.386  1.00  0.00    -0.044 A  
HETATM   18  C   UNL     1      -8.483  11.009  68.651  1.00  0.00    -0.157 C  
HETATM   19  C   UNL     1      -6.593   6.494  70.111  1.00  0.00    -0.045 A  
HETATM   20  C   UNL     1      -7.049   7.829  70.025  1.00  0.00    -0.054 A  
HETATM   21  H   UNL     1      -7.972  10.555  71.471  1.00  0.00     0.000 HD 
HETATM   22  C   UNL     1      -7.271   8.550  71.200  1.00  0.00    -0.076 A  
ENDROOT
BRANCH   3  23
HETATM   23  O   UNL     1     -10.506  12.789  67.783  1.00  0.00    -0.216 OA 
BRANCH  23  24
HETATM   24  C   UNL     1     -11.589  11.969  67.810  1.00  0.00    -0.330 C  
HETATM   25  O   UNL     1     -12.318  11.821  66.835  1.00  0.00    -0.108 OA 
BRANCH  24  26
HETATM   26  C   UNL     1     -11.909  11.182  69.062  1.00  0.00    -0.418 A  
HETATM   27  C   UNL     1     -12.579  11.552  70.225  1.00  0.00    -0.193 A  
HETATM   28  C   UNL     1     -11.226   9.130  70.206  1.00  0.00    -0.218 A  
HETATM   29  C   UNL     1     -12.530  10.766  71.405  1.00  0.00    -0.373 A  
HETATM   30  C   UNL     1     -11.376   9.897  69.049  1.00  0.00    -0.073 A  
HETATM   31  C   UNL     1     -11.777   9.571  71.423  1.00  0.00    -0.393 A  
BRANCH  28  32
HETATM   32  O   UNL     1     -10.531   7.947  70.133  1.00  0.00    -0.221 OA 
HETATM   33  C   UNL     1     -11.156   6.929  69.341  1.00  0.00    -0.206 C  
ENDBRANCH  28  32
BRANCH  31  34
HETATM   34  O   UNL     1     -11.626   8.950  72.633  1.00  0.00    -0.161 OA 
HETATM   35  C   UNL     1     -12.181   7.656  72.829  1.00  0.00     0.087 C  
ENDBRANCH  31  34
BRANCH  29  36
HETATM   36  O   UNL     1     -13.233  11.350  72.440  1.00  0.00    -0.251 OA 
HETATM   37  C   UNL     1     -13.588  12.728  72.346  1.00  0.00    -0.407 C  
ENDBRANCH  29  36
ENDBRANCH  24  26
ENDBRANCH  23  24
ENDBRANCH   3  23
BRANCH   5  38
HETATM   38  O   UNL     1      -9.721  15.555  65.487  1.00  0.00    -0.325 OA 
HETATM   39  C   UNL     1     -10.846  16.055  64.781  1.00  0.00    -0.294 C  
ENDBRANCH   5  38
BRANCH   7  40
HETATM   40  C   UNL     1      -9.063  15.470  69.024  1.00  0.00    -0.236 C  
HETATM   41  O   UNL     1     -10.037  15.162  69.701  1.00  0.00    -0.232 OA 
BRANCH  40  42
HETATM   42  O   UNL     1      -8.169  16.434  69.358  1.00  0.00    -0.181 OA 
HETATM   43  C   UNL     1      -6.822  16.003  69.545  1.00  0.00    -0.193 C  
ENDBRANCH  40  42
ENDBRANCH   7  40
BRANCH  15  44
HETATM   44  O   UNL     1      -6.308   5.974  73.693  1.00  0.00    -0.063 OA 
HETATM   45  C   UNL     1      -7.265   5.014  74.114  1.00  0.00    -0.082 C  
ENDBRANCH  15  44
TORSDOF 10
ENDMDL
MODEL      102
REMARK 921   NORMALIZED FREE ENERGY PREDICTED BY IDOCK:   -3.06 KCAL/MOL
REMARK 922        TOTAL FREE ENERGY PREDICTED BY IDOCK:   -7.61 KCAL/MOL
REMARK 923 INTER-LIGAND FREE ENERGY PREDICTED BY IDOCK:   -5.11 KCAL/MOL
REMARK 924 INTRA-LIGAND FREE ENERGY PREDICTED BY IDOCK:   -2.51 KCAL/MOL
REMARK 927      BINDING AFFINITY PREDICTED BY RF-SCORE:    0.00 PKD
ROOT
HETATM    1  C   UNL     1      -6.544   6.498  65.082  1.00  0.00    -0.039 C  
HETATM    2  C   UNL     1      -5.372   5.799  65.778  1.00  0.00    -0.009 C  
HETATM    3  C   UNL     1      -5.758   4.889  66.985  1.00  0.00    -0.014 C  
HETATM    4  C   UNL     1      -6.708  10.664  67.002  1.00  0.00    -0.086 C  
HETATM    5  C   UNL     1      -6.411   3.674  66.328  1.00  0.00    -0.037 C  
HETATM    6  C   UNL     1      -6.446   8.000  65.377  1.00  0.00    -0.048 C  
HETATM    7  C   UNL     1      -7.728   4.220  65.668  1.00  0.00    -0.090 C  
HETATM    8  C   UNL     1      -5.939   9.374  67.344  1.00  0.00    -0.049 C  
HETATM    9  C   UNL     1      -8.134  10.463  67.379  1.00  0.00    -0.107 A  
HETATM   10  C   UNL     1      -7.880   5.835  65.460  1.00  0.00    -0.102 C  
HETATM   11  C   UNL     1     -11.333  11.333  68.798  1.00  0.00    -0.335 A  
HETATM   12  C   UNL     1      -8.685   9.196  67.480  1.00  0.00    -0.119 A  
HETATM   13  N   UNL     1      -9.940   9.353  68.015  1.00  0.00    -0.168 NA 
HETATM   14  C   UNL     1      -8.700   6.796  66.423  1.00  0.00    -0.142 C  
HETATM   15  C   UNL     1     -11.313  12.733  68.905  1.00  0.00    -0.296 A  
HETATM   16  N   UNL     1      -6.560   8.150  66.810  1.00  0.00    -0.056 NA 
HETATM   17  C   UNL     1     -10.210  13.446  68.474  1.00  0.00    -0.224 A  
HETATM   18  C   UNL     1      -7.931   7.885  67.282  1.00  0.00    -0.118 C  
HETATM   19  C   UNL     1      -9.076  12.819  67.934  1.00  0.00    -0.204 A  
HETATM   20  C   UNL     1      -9.088  11.412  67.804  1.00  0.00    -0.158 A  
HETATM   21  H   UNL     1     -10.584   8.590  68.222  1.00  0.00     0.000 HD 
HETATM   22  C   UNL     1     -10.208  10.698  68.234  1.00  0.00    -0.166 A  
ENDROOT
BRANCH   3  23
HETATM   23  O   UNL     1      -6.730   5.413  67.961  1.00  0.00    -0.051 OA 
BRANCH  23  24
HETATM   24  C   UNL     1      -6.247   5.478  69.230  1.00  0.00    -0.029 C  
HETATM   25  O   UNL     1      -5.127   5.073  69.521  1.00  0.00     0.000 OA 
BRANCH  24  26
HETATM   26  C   UNL     1      -7.091   6.089  70.327  1.00  0.00    -0.074 A  
HETATM   27  C   UNL     1      -7.943   5.500  71.257  1.00  0.00    -0.111 A  
HETATM   28  C   UNL     1      -7.984   8.263  71.008  1.00  0.00    -0.101 A  
HETATM   29  C   UNL     1      -8.868   6.260  72.019  1.00  0.00    -0.138 A  
HETATM   30  C   UNL     1      -7.036   7.479  70.345  1.00  0.00    -0.059 A  
HETATM   31  C   UNL     1      -8.946   7.658  71.838  1.00  0.00    -0.120 A  
BRANCH  28  32
HETATM   32  O   UNL     1      -7.961   9.625  70.830  1.00  0.00    -0.288 OA 
HETATM   33  C   UNL     1      -6.655  10.184  70.642  1.00  0.00    -0.064 C  
ENDBRANCH  28  32
BRANCH  31  34
HETATM   34  O   UNL     1      -9.970   8.310  72.470  1.00  0.00    -0.266 OA 
HETATM   35  C   UNL     1     -11.183   8.549  71.769  1.00  0.00    -0.309 C  
ENDBRANCH  31  34
BRANCH  29  36
HETATM   36  O   UNL     1      -9.634   5.459  72.843  1.00  0.00    -0.144 OA 
HETATM   37  C   UNL     1     -10.170   4.243  72.325  1.00  0.00    -0.175 C  
ENDBRANCH  29  36
ENDBRANCH  24  26
ENDBRANCH  23  24
ENDBRANCH   3  23
BRANCH   5  38
HETATM   38  O   UNL     1      -5.501   3.135  65.346  1.00  0.00    -0.009 OA 
HETATM   39  C   UNL     1      -5.950   2.022  64.589  1.00  0.00    -0.017 C  
ENDBRANCH   5  38
BRANCH   7  40
HETATM   40  C   UNL     1      -8.930   3.584  66.341  1.00  0.00    -0.145 C  
HETATM   41  O   UNL     1      -9.277   3.757  67.503  1.00  0.00    -0.152 OA 
BRANCH  40  42
HETATM   42  O   UNL     1      -9.542   2.740  65.473  1.00  0.00    -0.045 OA 
HETATM   43  C   UNL     1     -10.636   3.282  64.735  1.00  0.00     0.335 C  
ENDBRANCH  40  42
ENDBRANCH   7  40
BRANCH  15  44
HETATM   44  O   UNL     1     -12.317  13.516  69.412  1.00  0.00    -0.262 OA 
HETATM   45  C   UNL     1     -11.954  14.487  70.382  1.00  0.00    -0.318 C  
ENDBRANCH  15  44
TORSDOF 10
ENDMDL
MODEL      103
REMARK 921   NORMALIZED FREE ENERGY PREDICTED BY IDOCK:   -3.03 KCAL/MOL
REMARK 922        TOTAL FREE ENERGY PREDICTED BY IDOCK:   -7.56 KCAL/MOL
REMARK 923 INTER-LIGAND FREE ENERGY PREDICTED BY IDOCK:   -6.53 KCAL/MOL
REMARK 924 INTRA-LIGAND FREE ENERGY PREDICTED BY IDOCK:   -1.03 KCAL/MOL
REMARK 927      BINDING AFFINITY PREDICTED BY RF-SCORE:    0.00 PKD
ROOT
HETATM    1  C   UNL     1      -5.337  10.259  66.668  1.00  0.00    -0.042 C  
HETATM    2  C   UNL     1      -5.292   9.324  67.881  1.00  0.00    -0.034 C  
HETATM    3  C   UNL     1      -6.644   8.635  68.244  1.00  0.00    -0.061 C  
HETATM    4  C   UNL     1      -5.943  14.441  68.460  1.00  0.00    -0.093 C  
HETATM    5  C   UNL     1      -6.828   7.595  67.140  1.00  0.00    -0.068 C  
HETATM    6  C   UNL     1      -5.160  11.699  67.170  1.00  0.00    -0.088 C  
HETATM    7  C   UNL     1      -7.025   8.425  65.821  1.00  0.00    -0.067 C  
HETATM    8  C   UNL     1      -6.015  13.021  69.050  1.00  0.00    -0.084 C  
HETATM    9  C   UNL     1      -7.156  14.654  67.622  1.00  0.00    -0.203 A  
HETATM   10  C   UNL     1      -6.598  10.003  65.825  1.00  0.00    -0.101 C  
HETATM   11  C   UNL     1     -10.008  16.439  66.326  1.00  0.00    -0.341 A  
HETATM   12  C   UNL     1      -7.858  13.588  67.083  1.00  0.00    -0.007 A  
HETATM   13  N   UNL     1      -9.003  14.110  66.532  1.00  0.00    -0.457 NA 
HETATM   14  C   UNL     1      -7.615  11.212  66.002  1.00  0.00     0.023 C  
HETATM   15  C   UNL     1      -9.761  17.787  66.631  1.00  0.00    -0.313 A  
HETATM   16  N   UNL     1      -6.274  11.972  68.049  1.00  0.00    -0.053 NA 
HETATM   17  C   UNL     1      -8.592  18.149  67.275  1.00  0.00    -0.240 A  
HETATM   18  C   UNL     1      -7.538  12.114  67.304  1.00  0.00    -0.156 C  
HETATM   19  C   UNL     1      -7.625  17.208  67.661  1.00  0.00    -0.180 A  
HETATM   20  C   UNL     1      -7.852  15.849  67.345  1.00  0.00    -0.195 A  
HETATM   21  H   UNL     1      -9.730  13.562  66.072  1.00  0.00     0.000 HD 
HETATM   22  C   UNL     1      -9.031  15.490  66.688  1.00  0.00    -0.287 A  
ENDROOT
BRANCH   3  23
HETATM   23  O   UNL     1      -7.861   9.465  68.248  1.00  0.00    -0.090 OA 
BRANCH  23  24
HETATM   24  C   UNL     1      -8.595   9.350  69.387  1.00  0.00    -0.148 C  
HETATM   25  O   UNL     1      -9.195  10.302  69.873  1.00  0.00    -0.150 OA 
BRANCH  24  26
HETATM   26  C   UNL     1      -8.713   8.008  70.076  1.00  0.00    -0.135 A  
HETATM   27  C   UNL     1      -9.309   6.820  69.663  1.00  0.00    -0.144 A  
HETATM   28  C   UNL     1      -8.493   7.026  72.306  1.00  0.00    -0.110 A  
HETATM   29  C   UNL     1      -9.569   5.754  70.563  1.00  0.00    -0.173 A  
HETATM   30  C   UNL     1      -8.185   8.009  71.363  1.00  0.00    -0.127 A  
HETATM   31  C   UNL     1      -9.226   5.887  71.927  1.00  0.00    -0.147 A  
BRANCH  28  32
HETATM   32  O   UNL     1      -8.073   7.196  73.604  1.00  0.00    -0.111 OA 
HETATM   33  C   UNL     1      -7.108   8.238  73.792  1.00  0.00    -0.127 C  
ENDBRANCH  28  32
BRANCH  31  34
HETATM   34  O   UNL     1      -9.656   4.903  72.774  1.00  0.00    -0.137 OA 
HETATM   35  C   UNL     1     -11.031   4.840  73.131  1.00  0.00    -0.300 C  
ENDBRANCH  31  34
BRANCH  29  36
HETATM   36  O   UNL     1     -10.202   4.698  69.939  1.00  0.00    -0.237 OA 
HETATM   37  C   UNL     1      -9.670   3.383  70.091  1.00  0.00    -0.055 C  
ENDBRANCH  29  36
ENDBRANCH  24  26
ENDBRANCH  23  24
ENDBRANCH   3  23
BRANCH   5  38
HETATM   38  O   UNL     1      -5.647   6.766  67.084  1.00  0.00    -0.012 OA 
HETATM   39  C   UNL     1      -5.833   5.365  67.207  1.00  0.00    -0.018 C  
ENDBRANCH   5  38
BRANCH   7  40
HETATM   40  C   UNL     1      -8.419   8.179  65.274  1.00  0.00    -0.139 C  
HETATM   41  O   UNL     1      -9.316   9.009  65.198  1.00  0.00    -0.176 OA 
BRANCH  40  42
HETATM   42  O   UNL     1      -8.547   6.873  64.928  1.00  0.00    -0.005 OA 
HETATM   43  C   UNL     1      -7.833   6.458  63.765  1.00  0.00    -0.111 C  
ENDBRANCH  40  42
ENDBRANCH   7  40
BRANCH  15  44
HETATM   44  O   UNL     1     -10.588  18.842  66.345  1.00  0.00    -0.408 OA 
HETATM   45  C   UNL     1     -10.320  20.072  67.003  1.00  0.00    -0.421 C  
ENDBRANCH  15  44
TORSDOF 10
ENDMDL
MODEL      104
REMARK 921   NORMALIZED FREE ENERGY PREDICTED BY IDOCK:   -3.01 KCAL/MOL
REMARK 922        TOTAL FREE ENERGY PREDICTED BY IDOCK:   -7.53 KCAL/MOL
REMARK 923 INTER-LIGAND FREE ENERGY PREDICTED BY IDOCK:   -6.64 KCAL/MOL
REMARK 924 INTRA-LIGAND FREE ENERGY PREDICTED BY IDOCK:   -0.89 KCAL/MOL
REMARK 927      BINDING AFFINITY PREDICTED BY RF-SCORE:    0.00 PKD
ROOT
HETATM    1  C   UNL     1     -10.255   8.934  66.533  1.00  0.00    -0.319 C  
HETATM    2  C   UNL     1     -10.593  10.428  66.573  1.00  0.00    -0.220 C  
HETATM    3  C   UNL     1      -9.365  11.392  66.561  1.00  0.00    -0.189 C  
HETATM    4  C   UNL     1     -10.328   7.619  70.930  1.00  0.00    -0.204 C  
HETATM    5  C   UNL     1      -8.845  11.297  65.127  1.00  0.00     0.029 C  
HETATM    6  C   UNL     1     -10.619   8.327  67.894  1.00  0.00    -0.147 C  
HETATM    7  C   UNL     1      -8.328   9.822  64.973  1.00  0.00    -0.149 C  
HETATM    8  C   UNL     1     -10.364   8.994  70.240  1.00  0.00    -0.209 C  
HETATM    9  C   UNL     1      -8.942   7.085  70.821  1.00  0.00    -0.150 A  
HETATM   10  C   UNL     1      -8.802   8.713  66.078  1.00  0.00    -0.213 C  
HETATM   11  C   UNL     1      -5.918   5.483  71.955  1.00  0.00    -0.030 A  
HETATM   12  C   UNL     1      -8.078   7.515  69.827  1.00  0.00    -0.126 A  
HETATM   13  N   UNL     1      -6.847   6.977  70.117  1.00  0.00    -0.059 NA 
HETATM   14  C   UNL     1      -7.922   8.235  67.311  1.00  0.00    -0.105 C  
HETATM   15  C   UNL     1      -6.292   4.778  73.110  1.00  0.00    -0.046 A  
HETATM   16  N   UNL     1      -9.800   8.995  68.880  1.00  0.00    -0.171 NA 
HETATM   17  C   UNL     1      -7.606   4.801  73.541  1.00  0.00    -0.087 A  
HETATM   18  C   UNL     1      -8.388   8.585  68.786  1.00  0.00    -0.122 C  
HETATM   19  C   UNL     1      -8.603   5.525  72.869  1.00  0.00    -0.119 A  
HETATM   20  C   UNL     1      -8.245   6.225  71.695  1.00  0.00    -0.118 A  
HETATM   21  H   UNL     1      -6.002   7.131  69.568  1.00  0.00     0.000 HD 
HETATM   22  C   UNL     1      -6.919   6.193  71.261  1.00  0.00    -0.072 A  
ENDROOT
BRANCH   3  23
HETATM   23  O   UNL     1      -8.229  11.072  67.443  1.00  0.00    -0.119 OA 
BRANCH  23  24
HETATM   24  C   UNL     1      -7.886  12.088  68.278  1.00  0.00    -0.145 C  
HETATM   25  O   UNL     1      -6.800  12.123  68.846  1.00  0.00    -0.090 OA 
BRANCH  24  26
HETATM   26  C   UNL     1      -8.846  13.235  68.507  1.00  0.00    -0.055 A  
HETATM   27  C   UNL     1      -8.650  14.612  68.454  1.00  0.00    -0.169 A  
HETATM   28  C   UNL     1     -11.039  13.667  69.501  1.00  0.00    -0.072 A  
HETATM   29  C   UNL     1      -9.598  15.528  68.979  1.00  0.00    -0.238 A  
HETATM   30  C   UNL     1     -10.113  12.814  68.896  1.00  0.00     0.051 A  
HETATM   31  C   UNL     1     -10.780  15.047  69.584  1.00  0.00    -0.257 A  
BRANCH  28  32
HETATM   32  O   UNL     1     -12.196  13.134  70.015  1.00  0.00    -0.306 OA 
HETATM   33  C   UNL     1     -12.274  11.704  69.964  1.00  0.00    -0.263 C  
ENDBRANCH  28  32
BRANCH  31  34
HETATM   34  O   UNL     1     -11.568  15.965  70.223  1.00  0.00    -0.320 OA 
HETATM   35  C   UNL     1     -11.614  15.978  71.644  1.00  0.00    -0.459 C  
ENDBRANCH  31  34
BRANCH  29  36
HETATM   36  O   UNL     1      -9.172  16.836  68.853  1.00  0.00    -0.252 OA 
HETATM   37  C   UNL     1      -8.357  17.195  67.739  1.00  0.00    -0.202 C  
ENDBRANCH  29  36
ENDBRANCH  24  26
ENDBRANCH  23  24
ENDBRANCH   3  23
BRANCH   5  38
HETATM   38  O   UNL     1      -9.932  11.584  64.221  1.00  0.00    -0.244 OA 
HETATM   39  C   UNL     1      -9.866  11.006  62.927  1.00  0.00    -0.284 C  
ENDBRANCH   5  38
BRANCH   7  40
HETATM   40  C   UNL     1      -6.829   9.835  64.737  1.00  0.00    -0.122 C  
HETATM   41  O   UNL     1      -5.975  10.108  65.572  1.00  0.00    -0.078 OA 
BRANCH  40  42
HETATM   42  O   UNL     1      -6.572   9.551  63.436  1.00  0.00    -0.096 OA 
HETATM   43  C   UNL     1      -6.904   8.233  63.003  1.00  0.00    -0.086 C  
ENDBRANCH  40  42
ENDBRANCH   7  40
BRANCH  15  44
HETATM   44  O   UNL     1      -5.461   4.028  73.900  1.00  0.00    -0.003 OA 
HETATM   45  C   UNL     1      -6.012   2.862  74.497  1.00  0.00    -0.008 C  
ENDBRANCH  15  44
TORSDOF 10
ENDMDL
MODEL      105
REMARK 921   NORMALIZED FREE ENERGY PREDICTED BY IDOCK:   -2.98 KCAL/MOL
REMARK 922        TOTAL FREE ENERGY PREDICTED BY IDOCK:   -7.47 KCAL/MOL
REMARK 923 INTER-LIGAND FREE ENERGY PREDICTED BY IDOCK:   -6.70 KCAL/MOL
REMARK 924 INTRA-LIGAND FREE ENERGY PREDICTED BY IDOCK:   -0.77 KCAL/MOL
REMARK 927      BINDING AFFINITY PREDICTED BY RF-SCORE:    0.00 PKD
ROOT
HETATM    1  C   UNL     1     -11.306  10.023  66.624  1.00  0.00     0.763 C  
HETATM    2  C   UNL     1     -10.175   9.120  66.122  1.00  0.00    -0.189 C  
HETATM    3  C   UNL     1      -8.986   8.925  67.114  1.00  0.00    -0.127 C  
HETATM    4  C   UNL     1     -10.348  14.154  64.865  1.00  0.00    -0.435 C  
HETATM    5  C   UNL     1      -9.564   8.015  68.197  1.00  0.00    -0.153 C  
HETATM    6  C   UNL     1     -11.286  11.316  65.796  1.00  0.00     0.092 C  
HETATM    7  C   UNL     1     -10.675   8.871  68.905  1.00  0.00    -0.132 C  
HETATM    8  C   UNL     1      -9.556  12.837  64.957  1.00  0.00     0.183 C  
HETATM    9  C   UNL     1     -10.379  14.768  66.221  1.00  0.00    -0.305 A  
HETATM   10  C   UNL     1     -11.221  10.213  68.148  1.00  0.00    -0.245 C  
HETATM   11  C   UNL     1     -10.163  17.419  68.657  1.00  0.00    -0.361 A  
HETATM   12  C   UNL     1     -10.207  14.005  67.365  1.00  0.00    -0.248 A  
HETATM   13  N   UNL     1     -10.107  14.886  68.414  1.00  0.00    -0.220 NA 
HETATM   14  C   UNL     1     -10.744  11.692  68.478  1.00  0.00    -0.250 C  
HETATM   15  C   UNL     1     -10.322  18.602  67.919  1.00  0.00    -0.398 A  
HETATM   16  N   UNL     1     -10.007  11.943  66.037  1.00  0.00    -0.225 NA 
HETATM   17  C   UNL     1     -10.535  18.545  66.554  1.00  0.00    -0.435 A  
HETATM   18  C   UNL     1      -9.920  12.507  67.396  1.00  0.00    -0.207 C  
HETATM   19  C   UNL     1     -10.586  17.330  65.852  1.00  0.00    -0.206 A  
HETATM   20  C   UNL     1     -10.444  16.130  66.585  1.00  0.00    -0.300 A  
HETATM   21  H   UNL     1      -9.958  14.617  69.387  1.00  0.00     0.000 HD 
HETATM   22  C   UNL     1     -10.237  16.193  67.963  1.00  0.00    -0.252 A  
ENDROOT
BRANCH   3  23
HETATM   23  O   UNL     1      -8.460  10.116  67.802  1.00  0.00    -0.114 OA 
BRANCH  23  24
HETATM   24  C   UNL     1      -7.102  10.171  67.836  1.00  0.00    -0.085 C  
HETATM   25  O   UNL     1      -6.432  10.338  66.823  1.00  0.00    -0.068 OA 
BRANCH  24  26
HETATM   26  C   UNL     1      -6.375  10.052  69.158  1.00  0.00    -0.044 A  
HETATM   27  C   UNL     1      -6.047   8.934  69.920  1.00  0.00    -0.034 A  
HETATM   28  C   UNL     1      -5.712  11.441  71.060  1.00  0.00     0.046 A  
HETATM   29  C   UNL     1      -5.619   9.041  71.269  1.00  0.00    -0.047 A  
HETATM   30  C   UNL     1      -6.048  11.284  69.713  1.00  0.00    -0.112 A  
HETATM   31  C   UNL     1      -5.523  10.312  71.877  1.00  0.00     0.134 A  
BRANCH  28  32
HETATM   32  O   UNL     1      -5.577  12.711  71.567  1.00  0.00    -0.393 OA 
HETATM   33  C   UNL     1      -6.243  13.733  70.815  1.00  0.00     0.001 C  
ENDBRANCH  28  32
BRANCH  31  34
HETATM   34  O   UNL     1      -5.274  10.340  73.222  1.00  0.00    -0.323 OA 
HETATM   35  C   UNL     1      -5.550   9.187  74.007  1.00  0.00    -0.096 C  
ENDBRANCH  31  34
BRANCH  29  36
HETATM   36  O   UNL     1      -5.392   7.802  71.835  1.00  0.00    -0.035 OA 
HETATM   37  C   UNL     1      -6.505   6.968  72.149  1.00  0.00    -0.052 C  
ENDBRANCH  29  36
ENDBRANCH  24  26
ENDBRANCH  23  24
ENDBRANCH   3  23
BRANCH   5  38
HETATM   38  O   UNL     1     -10.112   6.837  67.567  1.00  0.00    -0.146 OA 
HETATM   39  C   UNL     1     -10.982   6.032  68.346  1.00  0.00    -0.251 C  
ENDBRANCH   5  38
BRANCH   7  40
HETATM   40  C   UNL     1     -10.279   9.112  70.350  1.00  0.00    -0.222 C  
HETATM   41  O   UNL     1      -9.136   9.261  70.766  1.00  0.00    -0.236 OA 
BRANCH  40  42
HETATM   42  O   UNL     1     -11.386   9.085  71.134  1.00  0.00    -0.264 OA 
HETATM   43  C   UNL     1     -11.227   8.497  72.424  1.00  0.00    -0.329 C  
ENDBRANCH  40  42
ENDBRANCH   7  40
BRANCH  15  44
HETATM   44  O   UNL     1     -10.293  19.876  68.424  1.00  0.00    -0.450 OA 
HETATM   45  C   UNL     1     -10.127  20.937  67.496  1.00  0.00     0.068 C  
ENDBRANCH  15  44
TORSDOF 10
ENDMDL
MODEL      106
REMARK 921   NORMALIZED FREE ENERGY PREDICTED BY IDOCK:   -2.93 KCAL/MOL
REMARK 922        TOTAL FREE ENERGY PREDICTED BY IDOCK:   -7.40 KCAL/MOL
REMARK 923 INTER-LIGAND FREE ENERGY PREDICTED BY IDOCK:   -5.72 KCAL/MOL
REMARK 924 INTRA-LIGAND FREE ENERGY PREDICTED BY IDOCK:   -1.68 KCAL/MOL
REMARK 927      BINDING AFFINITY PREDICTED BY RF-SCORE:    0.00 PKD
ROOT
HETATM    1  C   UNL     1     -11.777  10.880  68.888  1.00  0.00    -0.376 C  
HETATM    2  C   UNL     1     -11.166  12.072  69.632  1.00  0.00    -0.168 C  
HETATM    3  C   UNL     1     -10.586  13.201  68.723  1.00  0.00    -0.201 C  
HETATM    4  C   UNL     1      -8.405   7.771  68.725  1.00  0.00    -0.128 C  
HETATM    5  C   UNL     1     -11.831  13.881  68.153  1.00  0.00    -0.372 C  
HETATM    6  C   UNL     1     -10.868   9.664  69.110  1.00  0.00    -0.190 C  
HETATM    7  C   UNL     1     -12.510  12.799  67.240  1.00  0.00     0.552 C  
HETATM    8  C   UNL     1      -8.450   9.257  69.123  1.00  0.00    -0.133 C  
HETATM    9  C   UNL     1      -8.516   7.688  67.242  1.00  0.00    -0.121 A  
HETATM   10  C   UNL     1     -12.058  11.237  67.418  1.00  0.00     0.603 C  
HETATM   11  C   UNL     1      -7.717   6.519  63.926  1.00  0.00    -0.108 A  
HETATM   12  C   UNL     1      -9.095   8.706  66.503  1.00  0.00    -0.165 A  
HETATM   13  N   UNL     1      -8.876   8.406  65.180  1.00  0.00    -0.394 NA 
HETATM   14  C   UNL     1     -11.021  10.485  66.477  1.00  0.00    -0.054 C  
HETATM   15  C   UNL     1      -7.035   5.307  64.124  1.00  0.00    -0.048 A  
HETATM   16  N   UNL     1      -9.582   9.996  68.540  1.00  0.00    -0.148 NA 
HETATM   17  C   UNL     1      -6.838   4.823  65.404  1.00  0.00    -0.061 A  
HETATM   18  C   UNL     1      -9.625  10.020  67.068  1.00  0.00    -0.172 C  
HETATM   19  C   UNL     1      -7.287   5.510  66.543  1.00  0.00    -0.082 A  
HETATM   20  C   UNL     1      -7.990   6.722  66.359  1.00  0.00    -0.106 A  
HETATM   21  H   UNL     1      -9.174   8.984  64.395  1.00  0.00     0.000 HD 
HETATM   22  C   UNL     1      -8.192   7.203  65.064  1.00  0.00    -0.093 A  
ENDROOT
BRANCH   3  23
HETATM   23  O   UNL     1      -9.760  12.803  67.571  1.00  0.00    -0.194 OA 
BRANCH  23  24
HETATM   24  C   UNL     1      -8.782  13.697  67.266  1.00  0.00    -0.218 C  
HETATM   25  O   UNL     1      -8.821  14.382  66.250  1.00  0.00    -0.099 OA 
BRANCH  24  26
HETATM   26  C   UNL     1      -7.615  13.890  68.210  1.00  0.00    -0.130 A  
HETATM   27  C   UNL     1      -6.740  12.968  68.777  1.00  0.00    -0.100 A  
HETATM   28  C   UNL     1      -6.700  15.573  69.732  1.00  0.00    -0.157 A  
HETATM   29  C   UNL     1      -5.890  13.305  69.862  1.00  0.00    -0.130 A  
HETATM   30  C   UNL     1      -7.453  15.212  68.613  1.00  0.00    -0.124 A  
HETATM   31  C   UNL     1      -5.924  14.610  70.403  1.00  0.00    -0.165 A  
BRANCH  28  32
HETATM   32  O   UNL     1      -6.736  16.877  70.164  1.00  0.00     0.210 OA 
HETATM   33  C   UNL     1      -5.464  17.538  70.188  1.00  0.00    -0.243 C  
ENDBRANCH  28  32
BRANCH  31  34
HETATM   34  O   UNL     1      -5.213  14.825  71.552  1.00  0.00    -0.139 OA 
HETATM   35  C   UNL     1      -5.813  14.537  72.808  1.00  0.00     0.282 C  
ENDBRANCH  31  34
BRANCH  29  36
HETATM   36  O   UNL     1      -5.143  12.223  70.285  1.00  0.00    -0.079 OA 
HETATM   37  C   UNL     1      -5.802  10.985  70.544  1.00  0.00    -0.134 C  
ENDBRANCH  29  36
ENDBRANCH  24  26
ENDBRANCH  23  24
ENDBRANCH   3  23
BRANCH   5  38
HETATM   38  O   UNL     1     -12.685  14.274  69.249  1.00  0.00    -0.012 OA 
HETATM   39  C   UNL     1     -12.336  15.457  69.950  1.00  0.00    -0.293 C  
ENDBRANCH   5  38
BRANCH   7  40
HETATM   40  C   UNL     1     -12.489  13.271  65.798  1.00  0.00    -0.417 C  
HETATM   41  O   UNL     1     -12.044  14.341  65.401  1.00  0.00    -0.374 OA 
BRANCH  40  42
HETATM   42  O   UNL     1     -13.093  12.348  65.009  1.00  0.00    -0.678 OA 
HETATM   43  C   UNL     1     -12.556  12.197  63.696  1.00  0.00    -0.504 C  
ENDBRANCH  40  42
ENDBRANCH   7  40
BRANCH  15  44
HETATM   44  O   UNL     1      -6.518   4.505  63.141  1.00  0.00    -0.025 OA 
HETATM   45  C   UNL     1      -6.624   3.101  63.326  1.00  0.00    -0.027 C  
ENDBRANCH  15  44
TORSDOF 10
ENDMDL
MODEL      107
REMARK 921   NORMALIZED FREE ENERGY PREDICTED BY IDOCK:   -2.88 KCAL/MOL
REMARK 922        TOTAL FREE ENERGY PREDICTED BY IDOCK:   -7.32 KCAL/MOL
REMARK 923 INTER-LIGAND FREE ENERGY PREDICTED BY IDOCK:   -8.28 KCAL/MOL
REMARK 924 INTRA-LIGAND FREE ENERGY PREDICTED BY IDOCK:    0.96 KCAL/MOL
REMARK 927      BINDING AFFINITY PREDICTED BY RF-SCORE:    0.00 PKD
ROOT
HETATM    1  C   UNL     1      -9.325  13.428  65.283  1.00  0.00     0.513 C  
HETATM    2  C   UNL     1     -10.757  13.974  65.292  1.00  0.00    -0.367 C  
HETATM    3  C   UNL     1     -11.094  14.945  66.466  1.00  0.00    -0.341 C  
HETATM    4  C   UNL     1      -9.634   9.350  67.367  1.00  0.00    -0.184 C  
HETATM    5  C   UNL     1     -10.346  16.227  66.101  1.00  0.00    -0.341 C  
HETATM    6  C   UNL     1      -9.385  11.931  65.612  1.00  0.00    -0.115 C  
HETATM    7  C   UNL     1      -8.823  15.852  66.180  1.00  0.00    -0.363 C  
HETATM    8  C   UNL     1     -10.610  10.530  67.209  1.00  0.00    -0.264 C  
HETATM    9  C   UNL     1      -8.590   9.745  68.353  1.00  0.00    -0.119 A  
HETATM   10  C   UNL     1      -8.413  14.269  66.192  1.00  0.00     0.849 C  
HETATM   11  C   UNL     1      -6.376   9.331  71.168  1.00  0.00    -0.083 A  
HETATM   12  C   UNL     1      -8.298  11.076  68.603  1.00  0.00    -0.153 A  
HETATM   13  N   UNL     1      -7.440  11.096  69.675  1.00  0.00    -0.360 NA 
HETATM   14  C   UNL     1      -8.048  13.441  67.498  1.00  0.00    -0.183 C  
HETATM   15  C   UNL     1      -6.289   7.943  71.360  1.00  0.00    -0.035 A  
HETATM   16  N   UNL     1      -9.950  11.818  66.937  1.00  0.00    -0.197 NA 
HETATM   17  C   UNL     1      -6.969   7.083  70.518  1.00  0.00    -0.062 A  
HETATM   18  C   UNL     1      -9.007  12.272  67.975  1.00  0.00    -0.190 C  
HETATM   19  C   UNL     1      -7.771   7.544  69.463  1.00  0.00    -0.104 A  
HETATM   20  C   UNL     1      -7.854   8.939  69.246  1.00  0.00    -0.096 A  
HETATM   21  H   UNL     1      -7.061  11.941  70.101  1.00  0.00     0.000 HD 
HETATM   22  C   UNL     1      -7.161   9.802  70.096  1.00  0.00    -0.130 A  
ENDROOT
BRANCH   3  23
HETATM   23  O   UNL     1     -10.652  14.571  67.820  1.00  0.00    -0.247 OA 
BRANCH  23  24
HETATM   24  C   UNL     1     -11.380  15.149  68.811  1.00  0.00    -0.300 C  
HETATM   25  O   UNL     1     -11.447  16.366  68.944  1.00  0.00    -0.311 OA 
BRANCH  24  26
HETATM   26  C   UNL     1     -12.163  14.284  69.775  1.00  0.00    -0.390 A  
HETATM   27  C   UNL     1     -12.863  14.613  70.932  1.00  0.00    -0.427 A  
HETATM   28  C   UNL     1     -12.430  11.929  70.380  1.00  0.00    -0.170 A  
HETATM   29  C   UNL     1     -13.292  13.627  71.859  1.00  0.00    -0.425 A  
HETATM   30  C   UNL     1     -12.104  12.930  69.463  1.00  0.00    -0.274 A  
HETATM   31  C   UNL     1     -13.004  12.265  71.619  1.00  0.00    -0.311 A  
BRANCH  28  32
HETATM   32  O   UNL     1     -12.175  10.619  70.053  1.00  0.00    -0.304 OA 
HETATM   33  C   UNL     1     -11.080  10.024  70.761  1.00  0.00    -0.334 C  
ENDBRANCH  28  32
BRANCH  31  34
HETATM   34  O   UNL     1     -13.289  11.384  72.627  1.00  0.00     0.106 OA 
HETATM   35  C   UNL     1     -13.448  10.004  72.324  1.00  0.00    -0.246 C  
ENDBRANCH  31  34
BRANCH  29  36
HETATM   36  O   UNL     1     -13.927  14.189  72.949  1.00  0.00    -0.602 OA 
HETATM   37  C   UNL     1     -13.997  15.610  73.053  1.00  0.00    -0.253 C  
ENDBRANCH  29  36
ENDBRANCH  24  26
ENDBRANCH  23  24
ENDBRANCH   3  23
BRANCH   5  38
HETATM   38  O   UNL     1     -10.734  16.625  64.768  1.00  0.00    -0.721 OA 
HETATM   39  C   UNL     1     -11.975  16.137  64.282  1.00  0.00     0.237 C  
ENDBRANCH   5  38
BRANCH   7  40
HETATM   40  C   UNL     1      -8.164  16.653  67.288  1.00  0.00    -0.174 C  
HETATM   41  O   UNL     1      -7.003  16.539  67.661  1.00  0.00    -0.120 OA 
BRANCH  40  42
HETATM   42  O   UNL     1      -9.075  17.487  67.849  1.00  0.00    -0.251 OA 
HETATM   43  C   UNL     1      -8.549  18.627  68.526  1.00  0.00    -0.340 C  
ENDBRANCH  40  42
ENDBRANCH   7  40
BRANCH  15  44
HETATM   44  O   UNL     1      -5.567   7.309  72.337  1.00  0.00    -0.037 OA 
HETATM   45  C   UNL     1      -6.201   6.235  73.017  1.00  0.00    -0.055 C  
ENDBRANCH  15  44
TORSDOF 10
ENDMDL
MODEL      108
REMARK 921   NORMALIZED FREE ENERGY PREDICTED BY IDOCK:   -2.84 KCAL/MOL
REMARK 922        TOTAL FREE ENERGY PREDICTED BY IDOCK:   -7.27 KCAL/MOL
REMARK 923 INTER-LIGAND FREE ENERGY PREDICTED BY IDOCK:   -5.41 KCAL/MOL
REMARK 924 INTRA-LIGAND FREE ENERGY PREDICTED BY IDOCK:   -1.85 KCAL/MOL
REMARK 927      BINDING AFFINITY PREDICTED BY RF-SCORE:    0.00 PKD
ROOT
HETATM    1  C   UNL     1      -6.134  11.288  66.561  1.00  0.00    -0.139 C  
HETATM    2  C   UNL     1      -7.195  12.263  67.082  1.00  0.00    -0.100 C  
HETATM    3  C   UNL     1      -7.887  11.847  68.418  1.00  0.00    -0.141 C  
HETATM    4  C   UNL     1      -8.369   8.663  63.531  1.00  0.00    -0.117 C  
HETATM    5  C   UNL     1      -6.805  12.077  69.472  1.00  0.00     0.021 C  
HETATM    6  C   UNL     1      -6.679  10.627  65.289  1.00  0.00     0.017 C  
HETATM    7  C   UNL     1      -5.679  11.033  69.142  1.00  0.00    -0.040 C  
HETATM    8  C   UNL     1      -8.832   9.692  64.578  1.00  0.00    -0.223 C  
HETATM    9  C   UNL     1      -7.953   7.428  64.253  1.00  0.00    -0.097 A  
HETATM   10  C   UNL     1      -5.688  10.320  67.671  1.00  0.00    -0.045 C  
HETATM   11  C   UNL     1      -7.722   3.886  64.884  1.00  0.00    -0.081 A  
HETATM   12  C   UNL     1      -7.560   7.465  65.581  1.00  0.00    -0.092 A  
HETATM   13  N   UNL     1      -7.422   6.160  65.987  1.00  0.00    -0.080 NA 
HETATM   14  C   UNL     1      -6.261   8.867  67.376  1.00  0.00    -0.055 C  
HETATM   15  C   UNL     1      -8.050   3.278  63.662  1.00  0.00    -0.085 A  
HETATM   16  N   UNL     1      -7.870   9.904  65.673  1.00  0.00    -0.122 NA 
HETATM   17  C   UNL     1      -8.344   4.056  62.557  1.00  0.00    -0.077 A  
HETATM   18  C   UNL     1      -7.551   8.705  66.468  1.00  0.00    -0.088 C  
HETATM   19  C   UNL     1      -8.343   5.459  62.606  1.00  0.00    -0.112 A  
HETATM   20  C   UNL     1      -7.997   6.085  63.825  1.00  0.00    -0.112 A  
HETATM   21  H   UNL     1      -7.156   5.868  66.927  1.00  0.00     0.000 HD 
HETATM   22  C   UNL     1      -7.694   5.295  64.935  1.00  0.00    -0.087 A  
ENDROOT
BRANCH   3  23
HETATM   23  O   UNL     1      -8.324  10.448  68.562  1.00  0.00    -0.113 OA 
BRANCH  23  24
HETATM   24  C   UNL     1      -9.446  10.302  69.315  1.00  0.00    -0.215 C  
HETATM   25  O   UNL     1     -10.372  11.104  69.264  1.00  0.00    -0.203 OA 
BRANCH  24  26
HETATM   26  C   UNL     1      -9.590   9.105  70.230  1.00  0.00    -0.249 A  
HETATM   27  C   UNL     1      -8.640   8.400  70.964  1.00  0.00    -0.181 A  
HETATM   28  C   UNL     1     -11.190   7.328  70.747  1.00  0.00    -0.274 A  
HETATM   29  C   UNL     1      -8.920   7.132  71.536  1.00  0.00    -0.134 A  
HETATM   30  C   UNL     1     -10.888   8.608  70.277  1.00  0.00    -0.250 A  
HETATM   31  C   UNL     1     -10.194   6.548  71.361  1.00  0.00    -0.197 A  
BRANCH  28  32
HETATM   32  O   UNL     1     -12.468   6.849  70.595  1.00  0.00    -0.321 OA 
HETATM   33  C   UNL     1     -13.340   7.098  71.704  1.00  0.00    -0.331 C  
ENDBRANCH  28  32
BRANCH  31  34
HETATM   34  O   UNL     1     -10.348   5.256  71.785  1.00  0.00    -0.203 OA 
HETATM   35  C   UNL     1     -10.015   4.188  70.907  1.00  0.00    -0.136 C  
ENDBRANCH  31  34
BRANCH  29  36
HETATM   36  O   UNL     1      -7.818   6.606  72.181  1.00  0.00    -0.096 OA 
HETATM   37  C   UNL     1      -6.925   5.765  71.453  1.00  0.00    -0.071 C  
ENDBRANCH  29  36
ENDBRANCH  24  26
ENDBRANCH  23  24
ENDBRANCH   3  23
BRANCH   5  38
HETATM   38  O   UNL     1      -6.330  13.436  69.357  1.00  0.00    -0.103 OA 
HETATM   39  C   UNL     1      -5.901  14.074  70.550  1.00  0.00    -0.178 C  
ENDBRANCH   5  38
BRANCH   7  40
HETATM   40  C   UNL     1      -5.555  10.047  70.289  1.00  0.00    -0.051 C  
HETATM   41  O   UNL     1      -5.539   8.826  70.186  1.00  0.00    -0.027 OA 
BRANCH  40  42
HETATM   42  O   UNL     1      -5.520  10.721  71.466  1.00  0.00    -0.286 OA 
HETATM   43  C   UNL     1      -5.481   9.921  72.647  1.00  0.00     0.193 C  
ENDBRANCH  40  42
ENDBRANCH   7  40
BRANCH  15  44
HETATM   44  O   UNL     1      -8.114   1.930  63.425  1.00  0.00    -0.060 OA 
HETATM   45  C   UNL     1      -9.040   1.487  62.444  1.00  0.00    -0.071 C  
ENDBRANCH  15  44
TORSDOF 10
ENDMDL
MODEL      109
REMARK 921   NORMALIZED FREE ENERGY PREDICTED BY IDOCK:   -2.62 KCAL/MOL
REMARK 922        TOTAL FREE ENERGY PREDICTED BY IDOCK:   -6.91 KCAL/MOL
REMARK 923 INTER-LIGAND FREE ENERGY PREDICTED BY IDOCK:   -6.22 KCAL/MOL
REMARK 924 INTRA-LIGAND FREE ENERGY PREDICTED BY IDOCK:   -0.69 KCAL/MOL
REMARK 927      BINDING AFFINITY PREDICTED BY RF-SCORE:    0.00 PKD
ROOT
HETATM    1  C   UNL     1     -10.548   7.593  71.133  1.00  0.00    -0.235 C  
HETATM    2  C   UNL     1     -10.775   6.281  70.376  1.00  0.00    -0.329 C  
HETATM    3  C   UNL     1      -9.484   5.577  69.855  1.00  0.00    -0.157 C  
HETATM    4  C   UNL     1     -11.131  10.867  67.969  1.00  0.00    -0.351 C  
HETATM    5  C   UNL     1      -8.840   5.018  71.123  1.00  0.00    -0.129 C  
HETATM    6  C   UNL     1     -11.082   8.742  70.268  1.00  0.00    -0.222 C  
HETATM    7  C   UNL     1      -8.423   6.278  71.963  1.00  0.00    -0.123 C  
HETATM    8  C   UNL     1     -10.999   9.335  67.890  1.00  0.00    -0.011 C  
HETATM    9  C   UNL     1      -9.785  11.430  68.265  1.00  0.00    -0.202 A  
HETATM   10  C   UNL     1      -9.079   7.724  71.573  1.00  0.00    -0.158 C  
HETATM   11  C   UNL     1      -7.008  13.707  67.937  1.00  0.00    -0.155 A  
HETATM   12  C   UNL     1      -8.801  10.670  68.877  1.00  0.00    -0.157 A  
HETATM   13  N   UNL     1      -7.647  11.413  68.836  1.00  0.00    -0.174 NA 
HETATM   14  C   UNL     1      -8.356   8.837  70.698  1.00  0.00    -0.173 C  
HETATM   15  C   UNL     1      -7.540  14.838  67.299  1.00  0.00    -0.165 A  
HETATM   16  N   UNL     1     -10.311   8.735  69.045  1.00  0.00    -0.211 NA 
HETATM   17  C   UNL     1      -8.883  14.882  66.972  1.00  0.00    -0.255 A  
HETATM   18  C   UNL     1      -8.931   9.201  69.266  1.00  0.00    -0.145 C  
HETATM   19  C   UNL     1      -9.756  13.817  67.242  1.00  0.00    -0.242 A  
HETATM   20  C   UNL     1      -9.238  12.678  67.900  1.00  0.00    -0.201 A  
HETATM   21  H   UNL     1      -6.744  11.107  69.198  1.00  0.00     0.000 HD 
HETATM   22  C   UNL     1      -7.883  12.642  68.234  1.00  0.00    -0.144 A  
ENDROOT
BRANCH   3  23
HETATM   23  O   UNL     1      -8.463   6.410  69.196  1.00  0.00    -0.120 OA 
BRANCH  23  24
HETATM   24  C   UNL     1      -8.225   6.060  67.904  1.00  0.00    -0.112 C  
HETATM   25  O   UNL     1      -8.434   4.926  67.488  1.00  0.00    -0.105 OA 
BRANCH  24  26
HETATM   26  C   UNL     1      -7.713   7.094  66.925  1.00  0.00    -0.106 A  
HETATM   27  C   UNL     1      -7.711   7.109  65.533  1.00  0.00    -0.108 A  
HETATM   28  C   UNL     1      -6.236   9.044  66.867  1.00  0.00    -0.059 A  
HETATM   29  C   UNL     1      -6.929   8.032  64.791  1.00  0.00    -0.070 A  
HETATM   30  C   UNL     1      -7.087   8.170  67.547  1.00  0.00    -0.083 A  
HETATM   31  C   UNL     1      -6.116   8.967  65.467  1.00  0.00    -0.055 A  
BRANCH  28  32
HETATM   32  O   UNL     1      -5.520   9.969  67.587  1.00  0.00    -0.038 OA 
HETATM   33  C   UNL     1      -5.144   9.545  68.904  1.00  0.00    -0.037 C  
ENDBRANCH  28  32
BRANCH  31  34
HETATM   34  O   UNL     1      -5.258   9.711  64.703  1.00  0.00    -0.051 OA 
HETATM   35  C   UNL     1      -5.778  10.532  63.666  1.00  0.00    -0.107 C  
ENDBRANCH  31  34
BRANCH  29  36
HETATM   36  O   UNL     1      -7.054   7.832  63.430  1.00  0.00    -0.069 OA 
HETATM   37  C   UNL     1      -6.675   6.573  62.877  1.00  0.00    -0.042 C  
ENDBRANCH  29  36
ENDBRANCH  24  26
ENDBRANCH  23  24
ENDBRANCH   3  23
BRANCH   5  38
HETATM   38  O   UNL     1      -9.813   4.207  71.816  1.00  0.00    -0.166 OA 
HETATM   39  C   UNL     1      -9.713   2.801  71.659  1.00  0.00    -0.156 C  
ENDBRANCH   5  38
BRANCH   7  40
HETATM   40  C   UNL     1      -6.911   6.319  72.094  1.00  0.00    -0.074 C  
HETATM   41  O   UNL     1      -6.119   6.544  71.187  1.00  0.00    -0.037 OA 
BRANCH  40  42
HETATM   42  O   UNL     1      -6.557   6.009  73.366  1.00  0.00    -0.071 OA 
HETATM   43  C   UNL     1      -7.472   6.407  74.387  1.00  0.00    -0.099 C  
ENDBRANCH  40  42
ENDBRANCH   7  40
BRANCH  15  44
HETATM   44  O   UNL     1      -6.845  15.965  66.947  1.00  0.00    -0.238 OA 
HETATM   45  C   UNL     1      -7.552  16.964  66.225  1.00  0.00    -0.277 C  
ENDBRANCH  15  44
TORSDOF 10
ENDMDL
MODEL      110
REMARK 921   NORMALIZED FREE ENERGY PREDICTED BY IDOCK:   -2.55 KCAL/MOL
REMARK 922        TOTAL FREE ENERGY PREDICTED BY IDOCK:   -6.80 KCAL/MOL
REMARK 923 INTER-LIGAND FREE ENERGY PREDICTED BY IDOCK:   -6.45 KCAL/MOL
REMARK 924 INTRA-LIGAND FREE ENERGY PREDICTED BY IDOCK:   -0.35 KCAL/MOL
REMARK 927      BINDING AFFINITY PREDICTED BY RF-SCORE:    0.00 PKD
ROOT
HETATM    1  C   UNL     1      -5.569  10.285  67.226  1.00  0.00    -0.041 C  
HETATM    2  C   UNL     1      -6.371  11.479  66.700  1.00  0.00    -0.103 C  
HETATM    3  C   UNL     1      -7.166  12.278  67.779  1.00  0.00    -0.114 C  
HETATM    4  C   UNL     1      -8.318   6.669  66.567  1.00  0.00    -0.117 C  
HETATM    5  C   UNL     1      -6.080  13.031  68.545  1.00  0.00    -0.076 C  
HETATM    6  C   UNL     1      -6.235   9.001  66.713  1.00  0.00    -0.062 C  
HETATM    7  C   UNL     1      -5.235  11.919  69.263  1.00  0.00    -0.052 C  
HETATM    8  C   UNL     1      -8.537   8.190  66.476  1.00  0.00    -0.138 C  
HETATM    9  C   UNL     1      -8.227   6.303  68.007  1.00  0.00    -0.115 A  
HETATM   10  C   UNL     1      -5.390  10.374  68.751  1.00  0.00    -0.038 C  
HETATM   11  C   UNL     1      -8.872   4.353  70.971  1.00  0.00    -0.146 A  
HETATM   12  C   UNL     1      -7.861   7.232  68.968  1.00  0.00    -0.118 A  
HETATM   13  N   UNL     1      -8.050   6.631  70.189  1.00  0.00    -0.122 NA 
HETATM   14  C   UNL     1      -6.293   9.275  69.461  1.00  0.00    -0.043 C  
HETATM   15  C   UNL     1      -9.316   3.109  70.496  1.00  0.00    -0.157 A  
HETATM   16  N   UNL     1      -7.572   8.979  67.260  1.00  0.00    -0.088 NA 
HETATM   17  C   UNL     1      -9.393   2.873  69.136  1.00  0.00    -0.211 A  
HETATM   18  C   UNL     1      -7.567   8.706  68.708  1.00  0.00    -0.096 C  
HETATM   19  C   UNL     1      -9.053   3.847  68.185  1.00  0.00    -0.187 A  
HETATM   20  C   UNL     1      -8.587   5.099  68.648  1.00  0.00    -0.088 A  
HETATM   21  H   UNL     1      -7.880   7.077  71.089  1.00  0.00     0.000 HD 
HETATM   22  C   UNL     1      -8.505   5.329  70.022  1.00  0.00    -0.101 A  
ENDROOT
BRANCH   3  23
HETATM   23  O   UNL     1      -7.932  11.512  68.778  1.00  0.00    -0.145 OA 
BRANCH  23  24
HETATM   24  C   UNL     1      -9.279  11.610  68.624  1.00  0.00    -0.108 C  
HETATM   25  O   UNL     1     -10.059  10.926  69.277  1.00  0.00    -0.208 OA 
BRANCH  24  26
HETATM   26  C   UNL     1      -9.856  12.607  67.643  1.00  0.00    -0.210 A  
HETATM   27  C   UNL     1     -10.156  13.959  67.787  1.00  0.00    -0.241 A  
HETATM   28  C   UNL     1     -11.054  12.652  65.510  1.00  0.00    -0.294 A  
HETATM   29  C   UNL     1     -10.957  14.657  66.847  1.00  0.00    -0.324 A  
HETATM   30  C   UNL     1     -10.194  12.035  66.421  1.00  0.00    -0.243 A  
HETATM   31  C   UNL     1     -11.482  13.975  65.727  1.00  0.00    -0.318 A  
BRANCH  28  32
HETATM   32  O   UNL     1     -11.477  11.945  64.411  1.00  0.00    -0.340 OA 
HETATM   33  C   UNL     1     -10.735  12.199  63.211  1.00  0.00    -0.318 C  
ENDBRANCH  28  32
BRANCH  31  34
HETATM   34  O   UNL     1     -12.384  14.653  64.953  1.00  0.00    -0.394 OA 
HETATM   35  C   UNL     1     -12.025  15.914  64.404  1.00  0.00    -0.018 C  
ENDBRANCH  31  34
BRANCH  29  36
HETATM   36  O   UNL     1     -11.154  15.972  67.217  1.00  0.00    -0.257 OA 
HETATM   37  C   UNL     1     -11.779  16.254  68.468  1.00  0.00    -0.083 C  
ENDBRANCH  29  36
ENDBRANCH  24  26
ENDBRANCH  23  24
ENDBRANCH   3  23
BRANCH   5  38
HETATM   38  O   UNL     1      -5.288  13.785  67.602  1.00  0.00    -0.289 OA 
HETATM   39  C   UNL     1      -5.671  15.130  67.363  1.00  0.00     0.215 C  
ENDBRANCH   5  38
BRANCH   7  40
HETATM   40  C   UNL     1      -5.374  12.073  70.767  1.00  0.00    -0.152 C  
HETATM   41  O   UNL     1      -5.701  11.189  71.550  1.00  0.00    -0.351 OA 
BRANCH  40  42
HETATM   42  O   UNL     1      -5.135  13.362  71.115  1.00  0.00    -0.122 OA 
HETATM   43  C   UNL     1      -6.285  14.172  71.351  1.00  0.00     0.178 C  
ENDBRANCH  40  42
ENDBRANCH   7  40
BRANCH  15  44
HETATM   44  O   UNL     1      -9.701   2.043  71.268  1.00  0.00    -0.140 OA 
HETATM   45  C   UNL     1      -9.371   2.090  72.648  1.00  0.00    -0.079 C  
ENDBRANCH  15  44
TORSDOF 10
ENDMDL
MODEL      111
REMARK 921   NORMALIZED FREE ENERGY PREDICTED BY IDOCK:   -2.48 KCAL/MOL
REMARK 922        TOTAL FREE ENERGY PREDICTED BY IDOCK:   -6.69 KCAL/MOL
REMARK 923 INTER-LIGAND FREE ENERGY PREDICTED BY IDOCK:   -4.86 KCAL/MOL
REMARK 924 INTRA-LIGAND FREE ENERGY PREDICTED BY IDOCK:   -1.84 KCAL/MOL
REMARK 927      BINDING AFFINITY PREDICTED BY RF-SCORE:    0.00 PKD
ROOT
HETATM    1  C   UNL     1      -7.461  16.011  68.987  1.00  0.00    -0.202 C  
HETATM    2  C   UNL     1      -7.605  16.643  67.599  1.00  0.00    -0.170 C  
HETATM    3  C   UNL     1      -8.970  16.388  66.886  1.00  0.00    -0.216 C  
HETATM    4  C   UNL     1      -5.290  12.040  68.228  1.00  0.00    -0.051 C  
HETATM    5  C   UNL     1      -9.951  17.269  67.658  1.00  0.00    -0.297 C  
HETATM    6  C   UNL     1      -6.431  14.878  68.891  1.00  0.00    -0.088 C  
HETATM    7  C   UNL     1     -10.013  16.651  69.101  1.00  0.00    -0.263 C  
HETATM    8  C   UNL     1      -5.944  13.078  67.298  1.00  0.00     0.095 C  
HETATM    9  C   UNL     1      -6.376  11.284  68.910  1.00  0.00    -0.055 A  
HETATM   10  C   UNL     1      -8.835  15.610  69.551  1.00  0.00    -0.213 C  
HETATM   11  C   UNL     1      -8.081   8.376  70.192  1.00  0.00    -0.108 A  
HETATM   12  C   UNL     1      -7.645  11.820  69.062  1.00  0.00     0.004 A  
HETATM   13  N   UNL     1      -8.440  10.815  69.557  1.00  0.00    -0.385 NA 
HETATM   14  C   UNL     1      -8.977  14.027  69.539  1.00  0.00     0.795 C  
HETATM   15  C   UNL     1      -7.093   7.383  70.271  1.00  0.00    -0.064 A  
HETATM   16  N   UNL     1      -6.964  13.911  67.959  1.00  0.00    -0.122 NA 
HETATM   17  C   UNL     1      -5.789   7.670  69.910  1.00  0.00    -0.023 A  
HETATM   18  C   UNL     1      -8.105  13.172  68.528  1.00  0.00    -0.087 C  
HETATM   19  C   UNL     1      -5.402   8.937  69.444  1.00  0.00    -0.035 A  
HETATM   20  C   UNL     1      -6.383   9.952  69.375  1.00  0.00    -0.045 A  
HETATM   21  H   UNL     1      -9.436  10.906  69.757  1.00  0.00     0.000 HD 
HETATM   22  C   UNL     1      -7.696   9.658  69.747  1.00  0.00    -0.133 A  
ENDROOT
BRANCH   3  23
HETATM   23  O   UNL     1      -9.519  15.021  66.916  1.00  0.00    -0.219 OA 
BRANCH  23  24
HETATM   24  C   UNL     1      -9.840  14.536  65.688  1.00  0.00    -0.305 C  
HETATM   25  O   UNL     1     -10.160  15.272  64.761  1.00  0.00    -0.224 OA 
BRANCH  24  26
HETATM   26  C   UNL     1      -9.782  13.047  65.426  1.00  0.00    -0.035 A  
HETATM   27  C   UNL     1      -8.818  12.100  65.759  1.00  0.00     0.259 A  
HETATM   28  C   UNL     1     -10.834  11.356  64.005  1.00  0.00    -0.383 A  
HETATM   29  C   UNL     1      -8.800  10.805  65.179  1.00  0.00    -0.186 A  
HETATM   30  C   UNL     1     -10.852  12.585  64.667  1.00  0.00    -0.343 A  
HETATM   31  C   UNL     1      -9.780  10.450  64.225  1.00  0.00    -0.326 A  
BRANCH  28  32
HETATM   32  O   UNL     1     -11.854  11.054  63.135  1.00  0.00     0.450 OA 
HETATM   33  C   UNL     1     -12.898  12.033  63.071  1.00  0.00     0.182 C  
ENDBRANCH  28  32
BRANCH  31  34
HETATM   34  O   UNL     1      -9.611   9.257  63.576  1.00  0.00     0.477 OA 
HETATM   35  C   UNL     1      -8.794   9.205  62.413  1.00  0.00    -0.204 C  
ENDBRANCH  31  34
BRANCH  29  36
HETATM   36  O   UNL     1      -7.731  10.056  65.628  1.00  0.00    -0.123 OA 
HETATM   37  C   UNL     1      -7.984   8.871  66.382  1.00  0.00    -0.103 C  
ENDBRANCH  29  36
ENDBRANCH  24  26
ENDBRANCH  23  24
ENDBRANCH   3  23
BRANCH   5  38
HETATM   38  O   UNL     1      -9.445  18.621  67.673  1.00  0.00    -0.287 OA 
HETATM   39  C   UNL     1      -9.590  19.353  68.880  1.00  0.00    -0.415 C  
ENDBRANCH   5  38
BRANCH   7  40
HETATM   40  C   UNL     1     -11.413  16.128  69.365  1.00  0.00    -0.296 C  
HETATM   41  O   UNL     1     -12.222  15.782  68.512  1.00  0.00    -0.108 OA 
BRANCH  40  42
HETATM   42  O   UNL     1     -11.663  16.152  70.698  1.00  0.00    -0.368 OA 
HETATM   43  C   UNL     1     -12.953  15.697  71.103  1.00  0.00    -0.478 C  
ENDBRANCH  40  42
ENDBRANCH   7  40
BRANCH  15  44
HETATM   44  O   UNL     1      -7.281   6.092  70.690  1.00  0.00    -0.075 OA 
HETATM   45  C   UNL     1      -7.101   5.826  72.074  1.00  0.00    -0.087 C  
ENDBRANCH  15  44
TORSDOF 10
ENDMDL
MODEL      112
REMARK 921   NORMALIZED FREE ENERGY PREDICTED BY IDOCK:   -2.38 KCAL/MOL
REMARK 922        TOTAL FREE ENERGY PREDICTED BY IDOCK:   -6.52 KCAL/MOL
REMARK 923 INTER-LIGAND FREE ENERGY PREDICTED BY IDOCK:   -5.51 KCAL/MOL
REMARK 924 INTRA-LIGAND FREE ENERGY PREDICTED BY IDOCK:   -1.01 KCAL/MOL
REMARK 927      BINDING AFFINITY PREDICTED BY RF-SCORE:    0.00 PKD
ROOT
HETATM    1  C   UNL     1      -6.268  11.613  67.631  1.00  0.00    -0.068 C  
HETATM    2  C   UNL     1      -6.976  12.619  66.719  1.00  0.00     0.489 C  
HETATM    3  C   UNL     1      -7.820  13.708  67.451  1.00  0.00    -0.149 C  
HETATM    4  C   UNL     1      -9.105   8.009  67.793  1.00  0.00    -0.136 C  
HETATM    5  C   UNL     1      -6.767  14.631  68.063  1.00  0.00    -0.143 C  
HETATM    6  C   UNL     1      -6.944  10.248  67.450  1.00  0.00    -0.082 C  
HETATM    7  C   UNL     1      -6.028  13.758  69.139  1.00  0.00    -0.087 C  
HETATM    8  C   UNL     1      -9.252   9.443  67.254  1.00  0.00    -0.130 C  
HETATM    9  C   UNL     1      -9.142   8.070  69.281  1.00  0.00    -0.148 A  
HETATM   10  C   UNL     1      -6.207  12.134  69.078  1.00  0.00    -0.081 C  
HETATM   11  C   UNL     1     -10.100   7.067  72.609  1.00  0.00    -0.204 A  
HETATM   12  C   UNL     1      -8.815   9.230  69.965  1.00  0.00    -0.197 A  
HETATM   13  N   UNL     1      -9.125   9.009  71.285  1.00  0.00    -0.247 NA 
HETATM   14  C   UNL     1      -7.207  11.301  69.989  1.00  0.00     0.446 C  
HETATM   15  C   UNL     1     -10.557   5.747  72.472  1.00  0.00    -0.221 A  
HETATM   16  N   UNL     1      -8.320  10.407  67.862  1.00  0.00    -0.113 NA 
HETATM   17  C   UNL     1     -10.536   5.131  71.234  1.00  0.00    -0.203 A  
HETATM   18  C   UNL     1      -8.441  10.562  69.322  1.00  0.00    -0.129 C  
HETATM   19  C   UNL     1     -10.081   5.784  70.078  1.00  0.00    -0.279 A  
HETATM   20  C   UNL     1      -9.602   7.108  70.204  1.00  0.00    -0.168 A  
HETATM   21  H   UNL     1      -9.008   9.693  72.032  1.00  0.00     0.000 HD 
HETATM   22  C   UNL     1      -9.619   7.723  71.457  1.00  0.00    -0.155 A  
ENDROOT
BRANCH   3  23
HETATM   23  O   UNL     1      -8.693  13.275  68.556  1.00  0.00    -0.151 OA 
BRANCH  23  24
HETATM   24  C   UNL     1      -9.855  13.976  68.639  1.00  0.00    -0.191 C  
HETATM   25  O   UNL     1     -10.899  13.461  69.022  1.00  0.00    -0.245 OA 
BRANCH  24  26
HETATM   26  C   UNL     1      -9.876  15.446  68.281  1.00  0.00    -0.213 A  
HETATM   27  C   UNL     1      -9.763  16.581  69.079  1.00  0.00    -0.258 A  
HETATM   28  C   UNL     1     -10.533  16.911  66.434  1.00  0.00    -0.252 A  
HETATM   29  C   UNL     1     -10.094  17.875  68.600  1.00  0.00    -0.394 A  
HETATM   30  C   UNL     1     -10.115  15.673  66.929  1.00  0.00    -0.265 A  
HETATM   31  C   UNL     1     -10.562  18.036  67.277  1.00  0.00    -0.346 A  
BRANCH  28  32
HETATM   32  O   UNL     1     -10.917  17.004  65.118  1.00  0.00    -0.528 OA 
HETATM   33  C   UNL     1     -11.643  15.872  64.622  1.00  0.00    -0.200 C  
ENDBRANCH  28  32
BRANCH  31  34
HETATM   34  O   UNL     1     -11.028  19.275  66.930  1.00  0.00    -0.427 OA 
HETATM   35  C   UNL     1     -10.366  20.009  65.907  1.00  0.00    -0.424 C  
ENDBRANCH  31  34
BRANCH  29  36
HETATM   36  O   UNL     1      -9.944  18.838  69.578  1.00  0.00    -0.101 OA 
HETATM   37  C   UNL     1      -9.089  19.952  69.329  1.00  0.00     0.204 C  
ENDBRANCH  29  36
ENDBRANCH  24  26
ENDBRANCH  23  24
ENDBRANCH   3  23
BRANCH   5  38
HETATM   38  O   UNL     1      -5.872  15.068  67.017  1.00  0.00    -0.091 OA 
HETATM   39  C   UNL     1      -5.207  16.306  67.210  1.00  0.00    -0.052 C  
ENDBRANCH   5  38
BRANCH   7  40
HETATM   40  C   UNL     1      -6.279  14.340  70.518  1.00  0.00    -0.157 C  
HETATM   41  O   UNL     1      -7.325  14.849  70.902  1.00  0.00     0.723 OA 
BRANCH  40  42
HETATM   42  O   UNL     1      -5.143  14.265  71.256  1.00  0.00    -0.113 OA 
HETATM   43  C   UNL     1      -5.261  13.623  72.525  1.00  0.00    -0.128 C  
ENDBRANCH  40  42
ENDBRANCH   7  40
BRANCH  15  44
HETATM   44  O   UNL     1     -11.045   4.955  73.479  1.00  0.00    -0.303 OA 
HETATM   45  C   UNL     1     -11.983   3.952  73.118  1.00  0.00     0.405 C  
ENDBRANCH  15  44
TORSDOF 10
ENDMDL
MODEL      113
REMARK 921   NORMALIZED FREE ENERGY PREDICTED BY IDOCK:   -2.35 KCAL/MOL
REMARK 922        TOTAL FREE ENERGY PREDICTED BY IDOCK:   -6.49 KCAL/MOL
REMARK 923 INTER-LIGAND FREE ENERGY PREDICTED BY IDOCK:   -6.77 KCAL/MOL
REMARK 924 INTRA-LIGAND FREE ENERGY PREDICTED BY IDOCK:    0.28 KCAL/MOL
REMARK 927      BINDING AFFINITY PREDICTED BY RF-SCORE:    0.00 PKD
ROOT
HETATM    1  C   UNL     1      -8.123  10.744  69.324  1.00  0.00    -0.102 C  
HETATM    2  C   UNL     1      -7.595  12.016  68.651  1.00  0.00    -0.112 C  
HETATM    3  C   UNL     1      -8.545  12.655  67.591  1.00  0.00    -0.180 C  
HETATM    4  C   UNL     1      -6.262   7.309  66.914  1.00  0.00    -0.043 C  
HETATM    5  C   UNL     1      -9.664  13.269  68.432  1.00  0.00    -0.198 C  
HETATM    6  C   UNL     1      -7.274   9.561  68.838  1.00  0.00    -0.072 C  
HETATM    7  C   UNL     1     -10.398  12.050  69.095  1.00  0.00     0.055 C  
HETATM    8  C   UNL     1      -6.346   8.830  66.690  1.00  0.00    -0.059 C  
HETATM    9  C   UNL     1      -7.608   6.730  66.649  1.00  0.00    -0.086 A  
HETATM   10  C   UNL     1      -9.640  10.601  69.110  1.00  0.00    -0.193 C  
HETATM   11  C   UNL     1      -9.989   4.368  65.325  1.00  0.00    -0.214 A  
HETATM   12  C   UNL     1      -8.757   7.499  66.740  1.00  0.00    -0.133 A  
HETATM   13  N   UNL     1      -9.787   6.725  66.263  1.00  0.00    -0.404 NA 
HETATM   14  C   UNL     1      -9.927   9.422  68.085  1.00  0.00    -0.202 C  
HETATM   15  C   UNL     1      -9.239   3.215  65.044  1.00  0.00    -0.149 A  
HETATM   16  N   UNL     1      -7.457   9.478  67.407  1.00  0.00    -0.091 NA 
HETATM   17  C   UNL     1      -7.883   3.187  65.317  1.00  0.00    -0.082 A  
HETATM   18  C   UNL     1      -8.802   8.991  67.054  1.00  0.00    -0.119 C  
HETATM   19  C   UNL     1      -7.205   4.288  65.863  1.00  0.00    -0.072 A  
HETATM   20  C   UNL     1      -7.951   5.449  66.167  1.00  0.00    -0.105 A  
HETATM   21  H   UNL     1     -10.758   7.029  66.191  1.00  0.00     0.000 HD 
HETATM   22  C   UNL     1      -9.320   5.470  65.896  1.00  0.00    -0.125 A  
ENDROOT
BRANCH   3  23
HETATM   23  O   UNL     1      -9.193  11.760  66.618  1.00  0.00    -0.187 OA 
BRANCH  23  24
HETATM   24  C   UNL     1      -9.775  12.415  65.578  1.00  0.00    -0.136 C  
HETATM   25  O   UNL     1     -10.414  11.826  64.714  1.00  0.00    -0.265 OA 
BRANCH  24  26
HETATM   26  C   UNL     1      -9.666  13.922  65.480  1.00  0.00    -0.119 A  
HETATM   27  C   UNL     1      -8.789  14.813  66.091  1.00  0.00     0.077 A  
HETATM   28  C   UNL     1     -10.982  15.847  64.743  1.00  0.00    -0.375 A  
HETATM   29  C   UNL     1      -9.024  16.213  66.102  1.00  0.00    -0.337 A  
HETATM   30  C   UNL     1     -10.660  14.489  64.691  1.00  0.00    -0.298 A  
HETATM   31  C   UNL     1     -10.181  16.736  65.483  1.00  0.00    -0.164 A  
BRANCH  28  32
HETATM   32  O   UNL     1     -12.091  16.294  64.066  1.00  0.00    -0.928 OA 
HETATM   33  C   UNL     1     -13.030  15.271  63.710  1.00  0.00     1.492 C  
ENDBRANCH  28  32
BRANCH  31  34
HETATM   34  O   UNL     1     -10.441  18.065  65.675  1.00  0.00    -0.619 OA 
HETATM   35  C   UNL     1     -10.713  18.542  66.986  1.00  0.00    -0.317 C  
ENDBRANCH  31  34
BRANCH  29  36
HETATM   36  O   UNL     1      -8.046  16.892  66.801  1.00  0.00    -0.195 OA 
HETATM   37  C   UNL     1      -7.061  17.627  66.077  1.00  0.00    -0.283 C  
ENDBRANCH  29  36
ENDBRANCH  24  26
ENDBRANCH  23  24
ENDBRANCH   3  23
BRANCH   5  38
HETATM   38  O   UNL     1      -9.074  14.144  69.418  1.00  0.00     0.258 OA 
HETATM   39  C   UNL     1      -9.724  15.382  69.657  1.00  0.00    -0.246 C  
ENDBRANCH   5  38
BRANCH   7  40
HETATM   40  C   UNL     1     -11.823  11.978  68.579  1.00  0.00    -0.311 C  
HETATM   41  O   UNL     1     -12.274  12.608  67.630  1.00  0.00    -0.367 OA 
BRANCH  40  42
HETATM   42  O   UNL     1     -12.551  11.147  69.366  1.00  0.00    -0.297 OA 
HETATM   43  C   UNL     1     -12.713  11.552  70.725  1.00  0.00    -0.227 C  
ENDBRANCH  40  42
ENDBRANCH   7  40
BRANCH  15  44
HETATM   44  O   UNL     1      -9.721   2.052  64.503  1.00  0.00    -0.111 OA 
HETATM   45  C   UNL     1     -10.173   2.102  63.158  1.00  0.00    -0.127 C  
ENDBRANCH  15  44
TORSDOF 10
ENDMDL
MODEL      114
REMARK 921   NORMALIZED FREE ENERGY PREDICTED BY IDOCK:   -2.31 KCAL/MOL
REMARK 922        TOTAL FREE ENERGY PREDICTED BY IDOCK:   -6.41 KCAL/MOL
REMARK 923 INTER-LIGAND FREE ENERGY PREDICTED BY IDOCK:   -6.46 KCAL/MOL
REMARK 924 INTRA-LIGAND FREE ENERGY PREDICTED BY IDOCK:    0.05 KCAL/MOL
REMARK 927      BINDING AFFINITY PREDICTED BY RF-SCORE:    0.00 PKD
ROOT
HETATM    1  C   UNL     1      -9.318   3.784  71.394  1.00  0.00    -0.208 C  
HETATM    2  C   UNL     1      -8.805   4.286  72.747  1.00  0.00    -0.111 C  
HETATM    3  C   UNL     1      -9.098   5.787  73.058  1.00  0.00    -0.124 C  
HETATM    4  C   UNL     1      -5.700   4.130  68.590  1.00  0.00    -0.021 C  
HETATM    5  C   UNL     1     -10.599   5.812  73.341  1.00  0.00    -0.258 C  
HETATM    6  C   UNL     1      -8.104   3.508  70.497  1.00  0.00    -0.053 C  
HETATM    7  C   UNL     1     -11.282   5.438  71.977  1.00  0.00    -0.159 C  
HETATM    8  C   UNL     1      -5.982   4.639  70.015  1.00  0.00    -0.017 C  
HETATM    9  C   UNL     1      -6.483   4.966  67.639  1.00  0.00    -0.045 A  
HETATM   10  C   UNL     1     -10.364   4.750  70.812  1.00  0.00    -0.184 C  
HETATM   11  C   UNL     1      -7.080   6.902  64.656  1.00  0.00    -0.061 A  
HETATM   12  C   UNL     1      -7.617   5.652  68.043  1.00  0.00    -0.085 A  
HETATM   13  N   UNL     1      -7.986   6.456  66.992  1.00  0.00    -0.108 NA 
HETATM   14  C   UNL     1      -9.742   5.531  69.575  1.00  0.00    -0.218 C  
HETATM   15  C   UNL     1      -6.067   6.517  63.765  1.00  0.00    -0.034 A  
HETATM   16  N   UNL     1      -7.415   4.767  70.330  1.00  0.00    -0.050 NA 
HETATM   17  C   UNL     1      -5.144   5.557  64.138  1.00  0.00    -0.009 A  
HETATM   18  C   UNL     1      -8.168   5.692  69.465  1.00  0.00    -0.103 C  
HETATM   19  C   UNL     1      -5.166   4.945  65.401  1.00  0.00    -0.012 A  
HETATM   20  C   UNL     1      -6.191   5.311  66.302  1.00  0.00    -0.031 A  
HETATM   21  H   UNL     1      -8.781   7.094  67.000  1.00  0.00     0.000 HD 
HETATM   22  C   UNL     1      -7.124   6.275  65.919  1.00  0.00    -0.066 A  
ENDROOT
BRANCH   3  23
HETATM   23  O   UNL     1      -8.855   6.772  71.990  1.00  0.00    -0.134 OA 
BRANCH  23  24
HETATM   24  C   UNL     1      -9.011   8.061  72.392  1.00  0.00    -0.176 C  
HETATM   25  O   UNL     1      -8.695   8.435  73.516  1.00  0.00    -0.277 OA 
BRANCH  24  26
HETATM   26  C   UNL     1      -9.563   9.090  71.429  1.00  0.00    -0.356 A  
HETATM   27  C   UNL     1     -10.823   9.677  71.346  1.00  0.00    -0.294 A  
HETATM   28  C   UNL     1      -9.050  10.076  69.250  1.00  0.00    -0.200 A  
HETATM   29  C   UNL     1     -11.241  10.405  70.202  1.00  0.00    -0.321 A  
HETATM   30  C   UNL     1      -8.660   9.442  70.432  1.00  0.00    -0.266 A  
HETATM   31  C   UNL     1     -10.368  10.543  69.100  1.00  0.00    -0.220 A  
BRANCH  28  32
HETATM   32  O   UNL     1      -8.128  10.229  68.243  1.00  0.00    -0.103 OA 
HETATM   33  C   UNL     1      -6.765  10.293  68.680  1.00  0.00    -0.053 C  
ENDBRANCH  28  32
BRANCH  31  34
HETATM   34  O   UNL     1     -10.887  11.103  67.964  1.00  0.00    -0.194 OA 
HETATM   35  C   UNL     1     -10.138  12.090  67.267  1.00  0.00    -0.194 C  
ENDBRANCH  31  34
BRANCH  29  36
HETATM   36  O   UNL     1     -12.539  10.858  70.329  1.00  0.00    -0.312 OA 
HETATM   37  C   UNL     1     -12.922  11.542  71.519  1.00  0.00    -0.380 C  
ENDBRANCH  29  36
ENDBRANCH  24  26
ENDBRANCH  23  24
ENDBRANCH   3  23
BRANCH   5  38
HETATM   38  O   UNL     1     -10.891   4.844  74.372  1.00  0.00    -0.346 OA 
HETATM   39  C   UNL     1     -11.349   3.569  73.952  1.00  0.00     0.034 C  
ENDBRANCH   5  38
BRANCH   7  40
HETATM   40  C   UNL     1     -12.100   6.617  71.483  1.00  0.00    -0.355 C  
HETATM   41  O   UNL     1     -12.526   6.767  70.344  1.00  0.00    -0.215 OA 
BRANCH  40  42
HETATM   42  O   UNL     1     -12.245   7.521  72.484  1.00  0.00    -0.190 OA 
HETATM   43  C   UNL     1     -13.534   8.117  72.609  1.00  0.00     0.166 C  
ENDBRANCH  40  42
ENDBRANCH   7  40
BRANCH  15  44
HETATM   44  O   UNL     1      -5.878   7.007  62.499  1.00  0.00    -0.039 OA 
HETATM   45  C   UNL     1      -5.679   8.407  62.369  1.00  0.00    -0.079 C  
ENDBRANCH  15  44
TORSDOF 10
ENDMDL
MODEL      115
REMARK 921   NORMALIZED FREE ENERGY PREDICTED BY IDOCK:   -2.18 KCAL/MOL
REMARK 922        TOTAL FREE ENERGY PREDICTED BY IDOCK:   -6.21 KCAL/MOL
REMARK 923 INTER-LIGAND FREE ENERGY PREDICTED BY IDOCK:   -4.97 KCAL/MOL
REMARK 924 INTRA-LIGAND FREE ENERGY PREDICTED BY IDOCK:   -1.24 KCAL/MOL
REMARK 927      BINDING AFFINITY PREDICTED BY RF-SCORE:    0.00 PKD
ROOT
HETATM    1  C   UNL     1      -5.737  15.608  69.161  1.00  0.00    -0.106 C  
HETATM    2  C   UNL     1      -5.449  16.289  67.820  1.00  0.00    -0.149 C  
HETATM    3  C   UNL     1      -6.703  16.609  66.948  1.00  0.00    -0.212 C  
HETATM    4  C   UNL     1      -5.172  11.130  68.324  1.00  0.00    -0.039 C  
HETATM    5  C   UNL     1      -7.364  17.777  67.679  1.00  0.00    -0.200 C  
HETATM    6  C   UNL     1      -5.216  14.167  69.085  1.00  0.00    -0.077 C  
HETATM    7  C   UNL     1      -7.842  17.186  69.054  1.00  0.00    -0.151 C  
HETATM    8  C   UNL     1      -5.254  12.370  67.416  1.00  0.00    -0.092 C  
HETATM    9  C   UNL     1      -6.543  10.836  68.826  1.00  0.00    -0.054 A  
HETATM   10  C   UNL     1      -7.221  15.755  69.542  1.00  0.00    -0.186 C  
HETATM   11  C   UNL     1      -9.379   8.782  69.685  1.00  0.00    -0.158 A  
HETATM   12  C   UNL     1      -7.518  11.818  68.884  1.00  0.00    -0.080 A  
HETATM   13  N   UNL     1      -8.694  11.187  69.211  1.00  0.00    -0.380 NA 
HETATM   14  C   UNL     1      -7.954  14.354  69.390  1.00  0.00     0.147 C  
HETATM   15  C   UNL     1      -8.865   7.480  69.790  1.00  0.00    -0.141 A  
HETATM   16  N   UNL     1      -5.953  13.513  68.028  1.00  0.00    -0.118 NA 
HETATM   17  C   UNL     1      -7.516   7.249  69.593  1.00  0.00    -0.094 A  
HETATM   18  C   UNL     1      -7.353  13.259  68.413  1.00  0.00    -0.112 C  
HETATM   19  C   UNL     1      -6.618   8.279  69.273  1.00  0.00    -0.039 A  
HETATM   20  C   UNL     1      -7.118   9.598  69.181  1.00  0.00    -0.062 A  
HETATM   21  H   UNL     1      -9.595  11.652  69.310  1.00  0.00     0.000 HD 
HETATM   22  C   UNL     1      -8.479   9.826  69.387  1.00  0.00    -0.159 A  
ENDROOT
BRANCH   3  23
HETATM   23  O   UNL     1      -7.732  15.563  66.812  1.00  0.00    -0.201 OA 
BRANCH  23  24
HETATM   24  C   UNL     1      -8.813  15.954  66.086  1.00  0.00    -0.328 C  
HETATM   25  O   UNL     1      -8.834  17.013  65.470  1.00  0.00    -0.319 OA 
BRANCH  24  26
HETATM   26  C   UNL     1     -10.029  15.056  66.001  1.00  0.00    -0.334 A  
HETATM   27  C   UNL     1     -10.339  13.877  66.671  1.00  0.00    -0.278 A  
HETATM   28  C   UNL     1     -11.935  14.626  64.529  1.00  0.00    -0.460 A  
HETATM   29  C   UNL     1     -11.393  13.025  66.250  1.00  0.00    -0.317 A  
HETATM   30  C   UNL     1     -10.942  15.467  65.036  1.00  0.00    -0.454 A  
HETATM   31  C   UNL     1     -12.158  13.365  65.111  1.00  0.00    -0.409 A  
BRANCH  28  32
HETATM   32  O   UNL     1     -12.680  15.049  63.455  1.00  0.00    -0.433 OA 
HETATM   33  C   UNL     1     -13.656  16.054  63.759  1.00  0.00     4.247 C  
ENDBRANCH  28  32
BRANCH  31  34
HETATM   34  O   UNL     1     -13.040  12.424  64.653  1.00  0.00    -0.825 OA 
HETATM   35  C   UNL     1     -12.761  11.735  63.441  1.00  0.00    -0.267 C  
ENDBRANCH  31  34
BRANCH  29  36
HETATM   36  O   UNL     1     -11.489  11.897  67.039  1.00  0.00    -0.350 OA 
HETATM   37  C   UNL     1     -10.975  10.661  66.547  1.00  0.00    -0.028 C  
ENDBRANCH  29  36
ENDBRANCH  24  26
ENDBRANCH  23  24
ENDBRANCH   3  23
BRANCH   5  38
HETATM   38  O   UNL     1      -6.385  18.824  67.855  1.00  0.00    -0.201 OA 
HETATM   39  C   UNL     1      -6.411  19.534  69.083  1.00  0.00    -0.300 C  
ENDBRANCH   5  38
BRANCH   7  40
HETATM   40  C   UNL     1      -9.357  17.241  69.125  1.00  0.00    -0.033 C  
HETATM   41  O   UNL     1     -10.073  16.476  69.760  1.00  0.00    -0.163 OA 
BRANCH  40  42
HETATM   42  O   UNL     1      -9.813  18.241  68.330  1.00  0.00    -0.312 OA 
HETATM   43  C   UNL     1     -10.201  19.443  68.992  1.00  0.00    -0.229 C  
ENDBRANCH  40  42
ENDBRANCH   7  40
BRANCH  15  44
HETATM   44  O   UNL     1      -9.585   6.352  70.083  1.00  0.00    -0.159 OA 
HETATM   45  C   UNL     1     -10.968   6.363  69.760  1.00  0.00    -0.356 C  
ENDBRANCH  15  44
TORSDOF 10
ENDMDL
MODEL      116
REMARK 921   NORMALIZED FREE ENERGY PREDICTED BY IDOCK:   -2.16 KCAL/MOL
REMARK 922        TOTAL FREE ENERGY PREDICTED BY IDOCK:   -6.18 KCAL/MOL
REMARK 923 INTER-LIGAND FREE ENERGY PREDICTED BY IDOCK:   -5.09 KCAL/MOL
REMARK 924 INTRA-LIGAND FREE ENERGY PREDICTED BY IDOCK:   -1.09 KCAL/MOL
REMARK 927      BINDING AFFINITY PREDICTED BY RF-SCORE:    0.00 PKD
ROOT
HETATM    1  C   UNL     1      -5.352  14.062  67.962  1.00  0.00    -0.104 C  
HETATM    2  C   UNL     1      -6.317  15.080  67.346  1.00  0.00     0.027 C  
HETATM    3  C   UNL     1      -7.300  15.761  68.348  1.00  0.00    -0.117 C  
HETATM    4  C   UNL     1      -7.393  10.002  67.314  1.00  0.00    -0.090 C  
HETATM    5  C   UNL     1      -6.407  16.718  69.137  1.00  0.00    -0.200 C  
HETATM    6  C   UNL     1      -5.755  12.666  67.470  1.00  0.00    -0.131 C  
HETATM    7  C   UNL     1      -5.425  15.794  69.944  1.00  0.00    -0.126 C  
HETATM    8  C   UNL     1      -7.865  11.457  67.148  1.00  0.00    -0.156 C  
HETATM    9  C   UNL     1      -7.323   9.703  68.771  1.00  0.00    -0.074 A  
HETATM   10  C   UNL     1      -5.281  14.230  69.490  1.00  0.00    -0.090 C  
HETATM   11  C   UNL     1      -7.793   7.767  71.777  1.00  0.00    -0.098 A  
HETATM   12  C   UNL     1      -7.179  10.712  69.710  1.00  0.00    -0.131 A  
HETATM   13  N   UNL     1      -7.333  10.127  70.943  1.00  0.00    -0.343 NA 
HETATM   14  C   UNL     1      -6.019  13.013  70.197  1.00  0.00    -0.135 C  
HETATM   15  C   UNL     1      -7.987   6.450  71.332  1.00  0.00    -0.105 A  
HETATM   16  N   UNL     1      -7.098  12.428  67.948  1.00  0.00    -0.097 NA 
HETATM   17  C   UNL     1      -7.942   6.160  69.981  1.00  0.00    -0.111 A  
HETATM   18  C   UNL     1      -7.131  12.206  69.404  1.00  0.00     0.112 C  
HETATM   19  C   UNL     1      -7.721   7.148  69.008  1.00  0.00    -0.109 A  
HETATM   20  C   UNL     1      -7.506   8.476  69.442  1.00  0.00    -0.088 A  
HETATM   21  H   UNL     1      -7.295  10.626  71.832  1.00  0.00     0.000 HD 
HETATM   22  C   UNL     1      -7.545   8.762  70.808  1.00  0.00    -0.094 A  
ENDROOT
BRANCH   3  23
HETATM   23  O   UNL     1      -7.978  14.906  69.337  1.00  0.00    -0.178 OA 
BRANCH  23  24
HETATM   24  C   UNL     1      -9.335  14.960  69.266  1.00  0.00    -0.104 C  
HETATM   25  O   UNL     1     -10.015  15.442  70.164  1.00  0.00    -0.258 OA 
BRANCH  24  26
HETATM   26  C   UNL     1     -10.046  14.441  68.035  1.00  0.00    -0.232 A  
HETATM   27  C   UNL     1     -10.352  15.063  66.828  1.00  0.00    -0.270 A  
HETATM   28  C   UNL     1     -11.498  12.592  67.356  1.00  0.00    -0.341 A  
HETATM   29  C   UNL     1     -11.275  14.506  65.906  1.00  0.00    -0.331 A  
HETATM   30  C   UNL     1     -10.521  13.142  68.188  1.00  0.00    -0.255 A  
HETATM   31  C   UNL     1     -11.920  13.286  66.207  1.00  0.00    -0.417 A  
BRANCH  28  32
HETATM   32  O   UNL     1     -12.038  11.371  67.682  1.00  0.00    -0.630 OA 
HETATM   33  C   UNL     1     -12.268  11.171  69.082  1.00  0.00    -0.175 C  
ENDBRANCH  28  32
BRANCH  31  34
HETATM   34  O   UNL     1     -12.923  12.889  65.365  1.00  0.00    -0.615 OA 
HETATM   35  C   UNL     1     -12.597  12.190  64.171  1.00  0.00    -0.365 C  
ENDBRANCH  31  34
BRANCH  29  36
HETATM   36  O   UNL     1     -11.450  15.317  64.802  1.00  0.00    -0.401 OA 
HETATM   37  C   UNL     1     -10.824  16.598  64.777  1.00  0.00    -0.058 C  
ENDBRANCH  29  36
ENDBRANCH  24  26
ENDBRANCH  23  24
ENDBRANCH   3  23
BRANCH   5  38
HETATM   38  O   UNL     1      -5.703  17.567  68.206  1.00  0.00    -0.146 OA 
HETATM   39  C   UNL     1      -6.173  18.899  68.062  1.00  0.00    -0.215 C  
ENDBRANCH   5  38
BRANCH   7  40
HETATM   40  C   UNL     1      -5.676  15.969  71.430  1.00  0.00     0.542 C  
HETATM   41  O   UNL     1      -6.293  15.193  72.150  1.00  0.00     1.034 OA 
BRANCH  40  42
HETATM   42  O   UNL     1      -5.158  17.154  71.842  1.00  0.00    -0.347 OA 
HETATM   43  C   UNL     1      -5.975  18.304  71.628  1.00  0.00     1.138 C  
ENDBRANCH  40  42
ENDBRANCH   7  40
BRANCH  15  44
HETATM   44  O   UNL     1      -8.225   5.359  72.126  1.00  0.00    -0.112 OA 
HETATM   45  C   UNL     1      -8.428   4.114  71.474  1.00  0.00    -0.094 C  
ENDBRANCH  15  44
TORSDOF 10
ENDMDL
MODEL      117
REMARK 921   NORMALIZED FREE ENERGY PREDICTED BY IDOCK:   -2.16 KCAL/MOL
REMARK 922        TOTAL FREE ENERGY PREDICTED BY IDOCK:   -6.18 KCAL/MOL
REMARK 923 INTER-LIGAND FREE ENERGY PREDICTED BY IDOCK:   -5.65 KCAL/MOL
REMARK 924 INTRA-LIGAND FREE ENERGY PREDICTED BY IDOCK:   -0.53 KCAL/MOL
REMARK 927      BINDING AFFINITY PREDICTED BY RF-SCORE:    0.00 PKD
ROOT
HETATM    1  C   UNL     1      -5.657  10.063  66.995  1.00  0.00    -0.046 C  
HETATM    2  C   UNL     1      -6.092   8.878  67.864  1.00  0.00    -0.051 C  
HETATM    3  C   UNL     1      -7.445   8.215  67.462  1.00  0.00    -0.094 C  
HETATM    4  C   UNL     1      -7.111  13.766  69.284  1.00  0.00    -0.004 C  
HETATM    5  C   UNL     1      -7.111   7.464  66.174  1.00  0.00    -0.069 C  
HETATM    6  C   UNL     1      -5.760  11.338  67.842  1.00  0.00    -0.043 C  
HETATM    7  C   UNL     1      -6.766   8.579  65.123  1.00  0.00    -0.064 C  
HETATM    8  C   UNL     1      -7.372  12.258  69.444  1.00  0.00     0.292 C  
HETATM    9  C   UNL     1      -7.867  14.240  68.091  1.00  0.00    -0.139 A  
HETATM   10  C   UNL     1      -6.438  10.085  65.669  1.00  0.00    -0.099 C  
HETATM   11  C   UNL     1      -9.975  16.452  66.176  1.00  0.00    -0.360 A  
HETATM   12  C   UNL     1      -8.239  13.371  67.078  1.00  0.00    -0.035 A  
HETATM   13  N   UNL     1      -9.065  14.076  66.238  1.00  0.00    -0.490 NA 
HETATM   14  C   UNL     1      -7.478  11.287  65.681  1.00  0.00     0.361 C  
HETATM   15  C   UNL     1      -9.927  17.678  66.858  1.00  0.00    -0.323 A  
HETATM   16  N   UNL     1      -7.149  11.480  68.214  1.00  0.00    -0.075 NA 
HETATM   17  C   UNL     1      -9.151  17.810  67.995  1.00  0.00    -0.269 A  
HETATM   18  C   UNL     1      -7.987  11.866  67.066  1.00  0.00    -0.158 C  
HETATM   19  C   UNL     1      -8.401  16.745  68.519  1.00  0.00    -0.243 A  
HETATM   20  C   UNL     1      -8.425  15.510  67.833  1.00  0.00    -0.146 A  
HETATM   21  H   UNL     1      -9.511  13.693  65.405  1.00  0.00     0.000 HD 
HETATM   22  C   UNL     1      -9.205  15.384  66.682  1.00  0.00    -0.275 A  
ENDROOT
BRANCH   3  23
HETATM   23  O   UNL     1      -8.581   9.100  67.150  1.00  0.00    -0.119 OA 
BRANCH  23  24
HETATM   24  C   UNL     1      -9.783   8.464  67.151  1.00  0.00    -0.190 C  
HETATM   25  O   UNL     1     -10.774   8.948  66.616  1.00  0.00    -0.161 OA 
BRANCH  24  26
HETATM   26  C   UNL     1      -9.917   7.105  67.802  1.00  0.00    -0.192 A  
HETATM   27  C   UNL     1      -9.857   6.725  69.139  1.00  0.00    -0.161 A  
HETATM   28  C   UNL     1      -9.839   4.732  67.209  1.00  0.00    -0.184 A  
HETATM   29  C   UNL     1      -9.718   5.369  69.532  1.00  0.00    -0.176 A  
HETATM   30  C   UNL     1     -10.059   6.072  66.881  1.00  0.00    -0.229 A  
HETATM   31  C   UNL     1      -9.630   4.358  68.549  1.00  0.00    -0.143 A  
BRANCH  28  32
HETATM   32  O   UNL     1      -9.826   3.796  66.204  1.00  0.00    -0.165 OA 
HETATM   33  C   UNL     1      -9.750   4.337  64.879  1.00  0.00    -0.176 C  
ENDBRANCH  28  32
BRANCH  31  34
HETATM   34  O   UNL     1      -9.324   3.096  68.981  1.00  0.00    -0.152 OA 
HETATM   35  C   UNL     1      -8.831   2.140  68.052  1.00  0.00    -0.122 C  
ENDBRANCH  31  34
BRANCH  29  36
HETATM   36  O   UNL     1      -9.639   5.237  70.904  1.00  0.00    -0.161 OA 
HETATM   37  C   UNL     1      -8.485   5.729  71.582  1.00  0.00    -0.128 C  
ENDBRANCH  29  36
ENDBRANCH  24  26
ENDBRANCH  23  24
ENDBRANCH   3  23
BRANCH   5  38
HETATM   38  O   UNL     1      -5.986   6.594  66.425  1.00  0.00    -0.027 OA 
HETATM   39  C   UNL     1      -6.272   5.235  66.720  1.00  0.00    -0.035 C  
ENDBRANCH   5  38
BRANCH   7  40
HETATM   40  C   UNL     1      -7.792   8.553  64.005  1.00  0.00    -0.148 C  
HETATM   41  O   UNL     1      -8.841   7.922  64.010  1.00  0.00     0.372 OA 
BRANCH  40  42
HETATM   42  O   UNL     1      -7.346   9.297  62.962  1.00  0.00    -0.104 OA 
HETATM   43  C   UNL     1      -5.967   9.146  62.627  1.00  0.00    -0.093 C  
ENDBRANCH  40  42
ENDBRANCH   7  40
BRANCH  15  44
HETATM   44  O   UNL     1     -10.595  18.822  66.506  1.00  0.00    -0.404 OA 
HETATM   45  C   UNL     1      -9.820  19.891  65.985  1.00  0.00    -0.417 C  
ENDBRANCH  15  44
TORSDOF 10
ENDMDL
MODEL      118
REMARK 921   NORMALIZED FREE ENERGY PREDICTED BY IDOCK:   -2.13 KCAL/MOL
REMARK 922        TOTAL FREE ENERGY PREDICTED BY IDOCK:   -6.13 KCAL/MOL
REMARK 923 INTER-LIGAND FREE ENERGY PREDICTED BY IDOCK:   -4.72 KCAL/MOL
REMARK 924 INTRA-LIGAND FREE ENERGY PREDICTED BY IDOCK:   -1.42 KCAL/MOL
REMARK 927      BINDING AFFINITY PREDICTED BY RF-SCORE:    0.00 PKD
ROOT
HETATM    1  C   UNL     1     -10.777   8.789  66.622  1.00  0.00     0.007 C  
HETATM    2  C   UNL     1     -10.923  10.314  66.666  1.00  0.00    -0.030 C  
HETATM    3  C   UNL     1      -9.584  11.115  66.647  1.00  0.00    -0.190 C  
HETATM    4  C   UNL     1     -10.988   7.484  71.017  1.00  0.00    -0.266 C  
HETATM    5  C   UNL     1      -9.088  10.958  65.210  1.00  0.00    -0.197 C  
HETATM    6  C   UNL     1     -11.207   8.230  67.985  1.00  0.00     0.644 C  
HETATM    7  C   UNL     1      -8.764   9.429  65.050  1.00  0.00    -0.216 C  
HETATM    8  C   UNL     1     -10.854   8.855  70.330  1.00  0.00    -0.239 C  
HETATM    9  C   UNL     1      -9.682   6.780  70.899  1.00  0.00    -0.186 A  
HETATM   10  C   UNL     1      -9.367   8.387  66.157  1.00  0.00    -0.267 C  
HETATM   11  C   UNL     1      -6.877   4.805  72.011  1.00  0.00    -0.055 A  
HETATM   12  C   UNL     1      -8.776   7.099  69.900  1.00  0.00    -0.142 A  
HETATM   13  N   UNL     1      -7.622   6.409  70.181  1.00  0.00    -0.094 NA 
HETATM   14  C   UNL     1      -8.546   7.799  67.384  1.00  0.00    -0.125 C  
HETATM   15  C   UNL     1      -7.330   4.151  73.168  1.00  0.00    -0.070 A  
HETATM   16  N   UNL     1     -10.303   8.787  68.966  1.00  0.00    -0.211 NA 
HETATM   17  C   UNL     1      -8.628   4.339  73.607  1.00  0.00    -0.092 A  
HETATM   18  C   UNL     1      -8.955   8.202  68.862  1.00  0.00    -0.141 C  
HETATM   19  C   UNL     1      -9.530   5.185  72.943  1.00  0.00    -0.158 A  
HETATM   20  C   UNL     1      -9.093   5.836  71.767  1.00  0.00    -0.150 A  
HETATM   21  H   UNL     1      -6.767   6.456  69.627  1.00  0.00     0.000 HD 
HETATM   22  C   UNL     1      -7.784   5.638  71.324  1.00  0.00    -0.109 A  
ENDROOT
BRANCH   3  23
HETATM   23  O   UNL     1      -8.492  10.652  67.521  1.00  0.00    -0.121 OA 
BRANCH  23  24
HETATM   24  C   UNL     1      -7.638  11.641  67.896  1.00  0.00    -0.115 C  
HETATM   25  O   UNL     1      -6.422  11.486  67.893  1.00  0.00    -0.053 OA 
BRANCH  24  26
HETATM   26  C   UNL     1      -8.182  12.992  68.308  1.00  0.00    -0.150 A  
HETATM   27  C   UNL     1      -9.437  13.362  68.783  1.00  0.00     0.061 A  
HETATM   28  C   UNL     1      -7.662  15.370  68.065  1.00  0.00    -0.125 A  
HETATM   29  C   UNL     1      -9.850  14.719  68.842  1.00  0.00    -0.222 A  
HETATM   30  C   UNL     1      -7.277  14.028  68.106  1.00  0.00    -0.129 A  
HETATM   31  C   UNL     1      -8.977  15.738  68.404  1.00  0.00    -0.187 A  
BRANCH  28  32
HETATM   32  O   UNL     1      -6.739  16.315  67.686  1.00  0.00    -0.120 OA 
HETATM   33  C   UNL     1      -6.596  16.479  66.269  1.00  0.00     0.547 C  
ENDBRANCH  28  32
BRANCH  31  34
HETATM   34  O   UNL     1      -9.491  17.004  68.322  1.00  0.00    -0.249 OA 
HETATM   35  C   UNL     1     -10.295  17.361  67.205  1.00  0.00    -0.325 C  
ENDBRANCH  31  34
BRANCH  29  36
HETATM   36  O   UNL     1     -11.145  14.841  69.306  1.00  0.00    -0.245 OA 
HETATM   37  C   UNL     1     -11.365  15.044  70.701  1.00  0.00    -0.271 C  
ENDBRANCH  29  36
ENDBRANCH  24  26
ENDBRANCH  23  24
ENDBRANCH   3  23
BRANCH   5  38
HETATM   38  O   UNL     1     -10.136  11.382  64.312  1.00  0.00    -0.253 OA 
HETATM   39  C   UNL     1      -9.741  12.077  63.139  1.00  0.00    -0.035 C  
ENDBRANCH   5  38
BRANCH   7  40
HETATM   40  C   UNL     1      -7.276   9.253  64.805  1.00  0.00    -0.103 C  
HETATM   41  O   UNL     1      -6.606   8.282  65.133  1.00  0.00    -0.055 OA 
BRANCH  40  42
HETATM   42  O   UNL     1      -6.779  10.367  64.211  1.00  0.00    -0.099 OA 
HETATM   43  C   UNL     1      -5.385  10.349  63.910  1.00  0.00    -0.151 C  
ENDBRANCH  40  42
ENDBRANCH   7  40
BRANCH  15  44
HETATM   44  O   UNL     1      -6.596   3.300  73.951  1.00  0.00    -0.031 OA 
HETATM   45  C   UNL     1      -5.347   2.860  73.437  1.00  0.00     0.000 C  
ENDBRANCH  15  44
TORSDOF 10
ENDMDL
MODEL      119
REMARK 921   NORMALIZED FREE ENERGY PREDICTED BY IDOCK:   -2.12 KCAL/MOL
REMARK 922        TOTAL FREE ENERGY PREDICTED BY IDOCK:   -6.12 KCAL/MOL
REMARK 923 INTER-LIGAND FREE ENERGY PREDICTED BY IDOCK:   -5.66 KCAL/MOL
REMARK 924 INTRA-LIGAND FREE ENERGY PREDICTED BY IDOCK:   -0.46 KCAL/MOL
REMARK 927      BINDING AFFINITY PREDICTED BY RF-SCORE:    0.00 PKD
ROOT
HETATM    1  C   UNL     1      -8.055   9.844  64.876  1.00  0.00    -0.145 C  
HETATM    2  C   UNL     1      -9.508  10.180  64.527  1.00  0.00    -0.364 C  
HETATM    3  C   UNL     1     -10.308  10.926  65.641  1.00  0.00    -0.242 C  
HETATM    4  C   UNL     1      -8.206   5.517  66.400  1.00  0.00    -0.106 C  
HETATM    5  C   UNL     1      -9.720  12.337  65.625  1.00  0.00    -0.192 C  
HETATM    6  C   UNL     1      -7.943   8.322  65.035  1.00  0.00    -0.141 C  
HETATM    7  C   UNL     1      -8.232  12.169  66.100  1.00  0.00     0.390 C  
HETATM    8  C   UNL     1      -9.291   6.561  66.080  1.00  0.00    -0.063 C  
HETATM    9  C   UNL     1      -7.547   5.914  67.675  1.00  0.00    -0.089 A  
HETATM   10  C   UNL     1      -7.575  10.672  66.081  1.00  0.00    -0.138 C  
HETATM   11  C   UNL     1      -6.127   5.431  70.954  1.00  0.00    -0.025 A  
HETATM   12  C   UNL     1      -7.564   7.227  68.119  1.00  0.00    -0.115 A  
HETATM   13  N   UNL     1      -7.039   7.219  69.389  1.00  0.00    -0.072 NA 
HETATM   14  C   UNL     1      -7.436   9.732  67.355  1.00  0.00    -0.091 C  
HETATM   15  C   UNL     1      -5.859   4.056  71.033  1.00  0.00    -0.013 A  
HETATM   16  N   UNL     1      -8.813   7.953  66.128  1.00  0.00    -0.160 NA 
HETATM   17  C   UNL     1      -6.131   3.233  69.956  1.00  0.00    -0.023 A  
HETATM   18  C   UNL     1      -8.273   8.387  67.429  1.00  0.00    -0.120 C  
HETATM   19  C   UNL     1      -6.690   3.718  68.764  1.00  0.00    -0.045 A  
HETATM   20  C   UNL     1      -6.949   5.104  68.663  1.00  0.00    -0.056 A  
HETATM   21  H   UNL     1      -6.938   8.042  69.982  1.00  0.00     0.000 HD 
HETATM   22  C   UNL     1      -6.666   5.931  69.751  1.00  0.00    -0.052 A  
ENDROOT
BRANCH   3  23
HETATM   23  O   UNL     1     -10.185  10.435  67.024  1.00  0.00    -0.205 OA 
BRANCH  23  24
HETATM   24  C   UNL     1     -11.176  10.870  67.847  1.00  0.00    -0.321 C  
HETATM   25  O   UNL     1     -11.846  11.864  67.589  1.00  0.00    -0.534 OA 
BRANCH  24  26
HETATM   26  C   UNL     1     -11.497  10.104  69.111  1.00  0.00    -0.155 A  
HETATM   27  C   UNL     1     -11.266   8.775  69.456  1.00  0.00     0.112 A  
HETATM   28  C   UNL     1     -12.908  10.288  71.102  1.00  0.00    -0.408 A  
HETATM   29  C   UNL     1     -11.895   8.165  70.572  1.00  0.00    -0.005 A  
HETATM   30  C   UNL     1     -12.200  10.861  70.043  1.00  0.00    -0.422 A  
HETATM   31  C   UNL     1     -12.793   8.911  71.366  1.00  0.00    -0.289 A  
BRANCH  28  32
HETATM   32  O   UNL     1     -13.718  11.089  71.870  1.00  0.00    -0.120 OA 
HETATM   33  C   UNL     1     -13.304  12.459  71.953  1.00  0.00    -0.349 C  
ENDBRANCH  28  32
BRANCH  31  34
HETATM   34  O   UNL     1     -13.498   8.225  72.318  1.00  0.00    -0.282 OA 
HETATM   35  C   UNL     1     -14.261   8.945  73.277  1.00  0.00     0.897 C  
ENDBRANCH  31  34
BRANCH  29  36
HETATM   36  O   UNL     1     -11.547   6.834  70.693  1.00  0.00    -0.326 OA 
HETATM   37  C   UNL     1     -11.327   6.065  69.512  1.00  0.00    -0.236 C  
ENDBRANCH  29  36
ENDBRANCH  24  26
ENDBRANCH  23  24
ENDBRANCH   3  23
BRANCH   5  38
HETATM   38  O   UNL     1      -9.800  12.855  64.279  1.00  0.00    -0.179 OA 
HETATM   39  C   UNL     1     -11.002  12.617  63.565  1.00  0.00    -0.364 C  
ENDBRANCH   5  38
BRANCH   7  40
HETATM   40  C   UNL     1      -8.040  12.895  67.418  1.00  0.00    -0.181 C  
HETATM   41  O   UNL     1      -8.934  13.308  68.146  1.00  0.00    -0.186 OA 
BRANCH  40  42
HETATM   42  O   UNL     1      -6.715  13.073  67.650  1.00  0.00    -0.130 OA 
HETATM   43  C   UNL     1      -6.341  13.309  69.006  1.00  0.00    -0.098 C  
ENDBRANCH  40  42
ENDBRANCH   7  40
BRANCH  15  44
HETATM   44  O   UNL     1      -5.327   3.400  72.113  1.00  0.00     0.000 OA 
HETATM   45  C   UNL     1      -6.238   2.785  73.012  1.00  0.00    -0.009 C  
ENDBRANCH  15  44
TORSDOF 10
ENDMDL
MODEL      120
REMARK 921   NORMALIZED FREE ENERGY PREDICTED BY IDOCK:   -2.01 KCAL/MOL
REMARK 922        TOTAL FREE ENERGY PREDICTED BY IDOCK:   -5.95 KCAL/MOL
REMARK 923 INTER-LIGAND FREE ENERGY PREDICTED BY IDOCK:   -4.91 KCAL/MOL
REMARK 924 INTRA-LIGAND FREE ENERGY PREDICTED BY IDOCK:   -1.04 KCAL/MOL
REMARK 927      BINDING AFFINITY PREDICTED BY RF-SCORE:    0.00 PKD
ROOT
HETATM    1  C   UNL     1      -5.997  15.276  69.571  1.00  0.00    -0.116 C  
HETATM    2  C   UNL     1      -5.516  16.014  68.318  1.00  0.00    -0.110 C  
HETATM    3  C   UNL     1      -6.638  16.445  67.323  1.00  0.00    -0.187 C  
HETATM    4  C   UNL     1      -5.536  10.827  68.539  1.00  0.00    -0.040 C  
HETATM    5  C   UNL     1      -7.330  17.604  68.039  1.00  0.00    -0.214 C  
HETATM    6  C   UNL     1      -5.536  13.816  69.471  1.00  0.00    -0.087 C  
HETATM    7  C   UNL     1      -7.999  16.965  69.308  1.00  0.00     0.009 C  
HETATM    8  C   UNL     1      -5.449  12.118  67.704  1.00  0.00    -0.093 C  
HETATM    9  C   UNL     1      -6.969  10.577  68.854  1.00  0.00    -0.070 A  
HETATM   10  C   UNL     1      -7.508  15.479  69.780  1.00  0.00    -0.081 C  
HETATM   11  C   UNL     1      -9.980   8.631  69.241  1.00  0.00    -0.195 A  
HETATM   12  C   UNL     1      -7.899  11.605  68.854  1.00  0.00    -0.040 A  
HETATM   13  N   UNL     1      -9.133  11.018  68.999  1.00  0.00    -0.350 NA 
HETATM   14  C   UNL     1      -8.279  14.128  69.457  1.00  0.00     0.510 C  
HETATM   15  C   UNL     1      -9.542   7.300  69.328  1.00  0.00    -0.156 A  
HETATM   16  N   UNL     1      -6.166  13.260  68.296  1.00  0.00    -0.088 NA 
HETATM   17  C   UNL     1      -8.190   7.010  69.281  1.00  0.00    -0.125 A  
HETATM   18  C   UNL     1      -7.613  13.059  68.494  1.00  0.00    -0.121 C  
HETATM   19  C   UNL     1      -7.214   8.007  69.133  1.00  0.00    -0.077 A  
HETATM   20  C   UNL     1      -7.639   9.353  69.062  1.00  0.00    -0.074 A  
HETATM   21  H   UNL     1     -10.019  11.524  69.017  1.00  0.00     0.000 HD 
HETATM   22  C   UNL     1      -9.004   9.641  69.116  1.00  0.00    -0.154 A  
ENDROOT
BRANCH   3  23
HETATM   23  O   UNL     1      -7.688  15.463  67.001  1.00  0.00    -0.208 OA 
BRANCH  23  24
HETATM   24  C   UNL     1      -8.589  15.909  66.086  1.00  0.00    -0.241 C  
HETATM   25  O   UNL     1      -8.579  17.063  65.673  1.00  0.00    -0.456 OA 
BRANCH  24  26
HETATM   26  C   UNL     1      -9.628  14.962  65.526  1.00  0.00    -0.180 A  
HETATM   27  C   UNL     1     -10.850  15.211  64.907  1.00  0.00    -0.437 A  
HETATM   28  C   UNL     1     -10.261  12.601  65.642  1.00  0.00    -0.273 A  
HETATM   29  C   UNL     1     -11.816  14.191  64.709  1.00  0.00    -0.417 A  
HETATM   30  C   UNL     1      -9.314  13.623  65.737  1.00  0.00     0.133 A  
HETATM   31  C   UNL     1     -11.551  12.877  65.153  1.00  0.00    -0.332 A  
BRANCH  28  32
HETATM   32  O   UNL     1      -9.912  11.333  66.038  1.00  0.00    -0.215 OA 
HETATM   33  C   UNL     1      -8.763  10.791  65.375  1.00  0.00    -0.181 C  
ENDBRANCH  28  32
BRANCH  31  34
HETATM   34  O   UNL     1     -12.584  11.981  65.092  1.00  0.00    -0.396 OA 
HETATM   35  C   UNL     1     -13.019  11.502  63.826  1.00  0.00     0.321 C  
ENDBRANCH  31  34
BRANCH  29  36
HETATM   36  O   UNL     1     -12.963  14.680  64.115  1.00  0.00    -0.524 OA 
HETATM   37  C   UNL     1     -13.033  16.063  63.776  1.00  0.00     2.401 C  
ENDBRANCH  29  36
ENDBRANCH  24  26
ENDBRANCH  23  24
ENDBRANCH   3  23
BRANCH   5  38
HETATM   38  O   UNL     1      -6.334  18.588  68.394  1.00  0.00    -0.203 OA 
HETATM   39  C   UNL     1      -6.349  19.072  69.728  1.00  0.00    -0.208 C  
ENDBRANCH   5  38
BRANCH   7  40
HETATM   40  C   UNL     1      -9.508  17.095  69.201  1.00  0.00    -0.085 C  
HETATM   41  O   UNL     1     -10.117  18.096  68.843  1.00  0.00    -0.381 OA 
BRANCH  40  42
HETATM   42  O   UNL     1     -10.093  15.945  69.618  1.00  0.00    -0.262 OA 
HETATM   43  C   UNL     1     -11.243  16.092  70.451  1.00  0.00    -0.387 C  
ENDBRANCH  40  42
ENDBRANCH   7  40
BRANCH  15  44
HETATM   44  O   UNL     1     -10.342   6.196  69.464  1.00  0.00    -0.183 OA 
HETATM   45  C   UNL     1     -11.260   6.191  70.548  1.00  0.00    -0.334 C  
ENDBRANCH  15  44
TORSDOF 10
ENDMDL
MODEL      121
REMARK 921   NORMALIZED FREE ENERGY PREDICTED BY IDOCK:   -1.97 KCAL/MOL
REMARK 922        TOTAL FREE ENERGY PREDICTED BY IDOCK:   -5.88 KCAL/MOL
REMARK 923 INTER-LIGAND FREE ENERGY PREDICTED BY IDOCK:   -4.04 KCAL/MOL
REMARK 924 INTRA-LIGAND FREE ENERGY PREDICTED BY IDOCK:   -1.84 KCAL/MOL
REMARK 927      BINDING AFFINITY PREDICTED BY RF-SCORE:    0.00 PKD
ROOT
HETATM    1  C   UNL     1      -7.849   9.062  71.350  1.00  0.00    -0.088 C  
HETATM    2  C   UNL     1      -8.455   7.885  72.121  1.00  0.00    -0.173 C  
HETATM    3  C   UNL     1      -8.675   6.583  71.289  1.00  0.00    -0.130 C  
HETATM    4  C   UNL     1     -11.462  11.580  70.058  1.00  0.00    -0.304 C  
HETATM    5  C   UNL     1      -7.261   6.040  71.087  1.00  0.00    -0.075 C  
HETATM    6  C   UNL     1      -8.928  10.143  71.203  1.00  0.00     2.063 C  
HETATM    7  C   UNL     1      -6.537   7.101  70.181  1.00  0.00    -0.047 C  
HETATM    8  C   UNL     1     -11.321  10.174  70.670  1.00  0.00    -0.352 C  
HETATM    9  C   UNL     1     -11.038  11.506  68.632  1.00  0.00    -0.291 A  
HETATM   10  C   UNL     1      -7.209   8.584  70.035  1.00  0.00    -0.051 C  
HETATM   11  C   UNL     1     -11.227  12.146  65.089  1.00  0.00    -0.378 A  
HETATM   12  C   UNL     1     -10.189  10.509  68.181  1.00  0.00    -0.162 A  
HETATM   13  N   UNL     1     -10.147  10.617  66.812  1.00  0.00    -0.216 NA 
HETATM   14  C   UNL     1      -8.098   9.055  68.805  1.00  0.00    -0.105 C  
HETATM   15  C   UNL     1     -12.081  13.254  64.966  1.00  0.00    -0.408 A  
HETATM   16  N   UNL     1     -10.005   9.554  70.441  1.00  0.00    -0.251 NA 
HETATM   17  C   UNL     1     -12.614  13.847  66.095  1.00  0.00    -0.426 A  
HETATM   18  C   UNL     1      -9.637   9.366  69.027  1.00  0.00    -0.164 C  
HETATM   19  C   UNL     1     -12.346  13.374  67.389  1.00  0.00    -0.113 A  
HETATM   20  C   UNL     1     -11.474  12.271  67.529  1.00  0.00    -0.414 A  
HETATM   21  H   UNL     1      -9.613  10.004  66.197  1.00  0.00     0.000 HD 
HETATM   22  C   UNL     1     -10.933  11.679  66.386  1.00  0.00    -0.295 A  
ENDROOT
BRANCH   3  23
HETATM   23  O   UNL     1      -9.270   6.714  69.948  1.00  0.00    -0.146 OA 
BRANCH  23  24
HETATM   24  C   UNL     1     -10.186   5.751  69.662  1.00  0.00    -0.233 C  
HETATM   25  O   UNL     1     -11.288   5.721  70.200  1.00  0.00    -0.274 OA 
BRANCH  24  26
HETATM   26  C   UNL     1      -9.868   4.690  68.632  1.00  0.00    -0.190 A  
HETATM   27  C   UNL     1      -9.268   3.441  68.765  1.00  0.00    -0.229 A  
HETATM   28  C   UNL     1      -9.656   4.442  66.207  1.00  0.00    -0.194 A  
HETATM   29  C   UNL     1      -8.794   2.709  67.646  1.00  0.00    -0.132 A  
HETATM   30  C   UNL     1     -10.179   5.081  67.334  1.00  0.00    -0.201 A  
HETATM   31  C   UNL     1      -8.919   3.252  66.348  1.00  0.00    -0.151 A  
BRANCH  28  32
HETATM   32  O   UNL     1      -9.869   4.998  64.969  1.00  0.00     0.032 OA 
HETATM   33  C   UNL     1     -11.153   4.716  64.397  1.00  0.00     0.604 C  
ENDBRANCH  28  32
BRANCH  31  34
HETATM   34  O   UNL     1      -8.291   2.584  65.332  1.00  0.00    -0.090 OA 
HETATM   35  C   UNL     1      -9.025   1.650  64.551  1.00  0.00    -0.108 C  
ENDBRANCH  31  34
BRANCH  29  36
HETATM   36  O   UNL     1      -8.200   1.521  68.023  1.00  0.00    -0.057 OA 
HETATM   37  C   UNL     1      -6.889   1.548  68.582  1.00  0.00    -0.032 C  
ENDBRANCH  29  36
ENDBRANCH  24  26
ENDBRANCH  23  24
ENDBRANCH   3  23
BRANCH   5  38
HETATM   38  O   UNL     1      -6.626   5.913  72.378  1.00  0.00    -0.063 OA 
HETATM   39  C   UNL     1      -5.443   5.132  72.443  1.00  0.00    -0.016 C  
ENDBRANCH   5  38
BRANCH   7  40
HETATM   40  C   UNL     1      -6.181   6.466  68.850  1.00  0.00    -0.033 C  
HETATM   41  O   UNL     1      -6.082   5.264  68.632  1.00  0.00    -0.023 OA 
BRANCH  40  42
HETATM   42  O   UNL     1      -5.930   7.437  67.936  1.00  0.00    -0.032 OA 
HETATM   43  C   UNL     1      -5.493   6.994  66.653  1.00  0.00    -0.022 C  
ENDBRANCH  40  42
ENDBRANCH   7  40
BRANCH  15  44
HETATM   44  O   UNL     1     -12.465  13.847  63.792  1.00  0.00    -0.706 OA 
HETATM   45  C   UNL     1     -12.144  15.220  63.624  1.00  0.00     0.641 C  
ENDBRANCH  15  44
TORSDOF 10
ENDMDL
MODEL      122
REMARK 921   NORMALIZED FREE ENERGY PREDICTED BY IDOCK:   -1.92 KCAL/MOL
REMARK 922        TOTAL FREE ENERGY PREDICTED BY IDOCK:   -5.79 KCAL/MOL
REMARK 923 INTER-LIGAND FREE ENERGY PREDICTED BY IDOCK:   -6.77 KCAL/MOL
REMARK 924 INTRA-LIGAND FREE ENERGY PREDICTED BY IDOCK:    0.97 KCAL/MOL
REMARK 927      BINDING AFFINITY PREDICTED BY RF-SCORE:    0.00 PKD
ROOT
HETATM    1  C   UNL     1     -10.774   7.977  70.861  1.00  0.00    -0.240 C  
HETATM    2  C   UNL     1     -10.368   6.580  70.379  1.00  0.00    -0.237 C  
HETATM    3  C   UNL     1      -8.837   6.283  70.403  1.00  0.00    -0.147 C  
HETATM    4  C   UNL     1     -11.153  10.456  67.017  1.00  0.00    -0.141 C  
HETATM    5  C   UNL     1      -8.521   6.130  71.890  1.00  0.00    -0.129 C  
HETATM    6  C   UNL     1     -11.286   8.768  69.650  1.00  0.00     0.071 C  
HETATM    7  C   UNL     1      -8.768   7.551  72.513  1.00  0.00    -0.163 C  
HETATM    8  C   UNL     1     -10.587   9.056  67.317  1.00  0.00    -0.231 C  
HETATM    9  C   UNL     1     -10.190  11.464  67.539  1.00  0.00    -0.210 A  
HETATM   10  C   UNL     1      -9.629   8.638  71.647  1.00  0.00    -0.344 C  
HETATM   11  C   UNL     1      -8.199  14.470  67.494  1.00  0.00    -0.201 A  
HETATM   12  C   UNL     1      -9.295  11.153  68.551  1.00  0.00    -0.190 A  
HETATM   13  N   UNL     1      -8.444  12.225  68.666  1.00  0.00    -0.350 NA 
HETATM   14  C   UNL     1      -8.993   9.810  70.782  1.00  0.00     0.196 C  
HETATM   15  C   UNL     1      -8.780  15.274  66.501  1.00  0.00    -0.279 A  
HETATM   16  N   UNL     1     -10.183   8.865  68.720  1.00  0.00    -0.202 NA 
HETATM   17  C   UNL     1      -9.896  14.832  65.815  1.00  0.00    -0.373 A  
HETATM   18  C   UNL     1      -9.138   9.783  69.204  1.00  0.00    -0.165 C  
HETATM   19  C   UNL     1     -10.482  13.580  66.063  1.00  0.00    -0.299 A  
HETATM   20  C   UNL     1      -9.919  12.767  67.073  1.00  0.00    -0.231 A  
HETATM   21  H   UNL     1      -7.664  12.280  69.321  1.00  0.00     0.000 HD 
HETATM   22  C   UNL     1      -8.795  13.222  67.766  1.00  0.00    -0.197 A  
ENDROOT
BRANCH   3  23
HETATM   23  O   UNL     1      -7.925   7.317  69.884  1.00  0.00    -0.116 OA 
BRANCH  23  24
HETATM   24  C   UNL     1      -6.903   6.819  69.139  1.00  0.00    -0.065 C  
HETATM   25  O   UNL     1      -5.771   7.285  69.195  1.00  0.00    -0.018 OA 
BRANCH  24  26
HETATM   26  C   UNL     1      -7.142   5.636  68.226  1.00  0.00    -0.074 A  
HETATM   27  C   UNL     1      -6.249   4.824  67.533  1.00  0.00    -0.039 A  
HETATM   28  C   UNL     1      -8.951   4.597  66.947  1.00  0.00    -0.113 A  
HETATM   29  C   UNL     1      -6.672   3.947  66.502  1.00  0.00    -0.046 A  
HETATM   30  C   UNL     1      -8.492   5.380  68.009  1.00  0.00    -0.097 A  
HETATM   31  C   UNL     1      -8.038   3.886  66.147  1.00  0.00    -0.101 A  
BRANCH  28  32
HETATM   32  O   UNL     1     -10.301   4.539  66.699  1.00  0.00    -0.218 OA 
HETATM   33  C   UNL     1     -10.988   5.791  66.816  1.00  0.00    -0.154 C  
ENDBRANCH  28  32
BRANCH  31  34
HETATM   34  O   UNL     1      -8.359   3.156  65.035  1.00  0.00    -0.093 OA 
HETATM   35  C   UNL     1      -8.153   3.719  63.746  1.00  0.00    -0.089 C  
ENDBRANCH  31  34
BRANCH  29  36
HETATM   36  O   UNL     1      -5.609   3.275  65.931  1.00  0.00    -0.016 OA 
HETATM   37  C   UNL     1      -5.158   3.664  64.635  1.00  0.00    -0.009 C  
ENDBRANCH  29  36
ENDBRANCH  24  26
ENDBRANCH  23  24
ENDBRANCH   3  23
BRANCH   5  38
HETATM   38  O   UNL     1      -9.406   5.135  72.450  1.00  0.00    -0.136 OA 
HETATM   39  C   UNL     1     -10.399   5.590  73.357  1.00  0.00    -0.219 C  
ENDBRANCH   5  38
BRANCH   7  40
HETATM   40  C   UNL     1      -7.458   8.103  73.042  1.00  0.00    -0.129 C  
HETATM   41  O   UNL     1      -7.303   8.677  74.114  1.00  0.00    -0.350 OA 
BRANCH  40  42
HETATM   42  O   UNL     1      -6.480   7.916  72.121  1.00  0.00    -0.049 OA 
HETATM   43  C   UNL     1      -5.416   8.867  72.132  1.00  0.00    -0.059 C  
ENDBRANCH  40  42
ENDBRANCH   7  40
BRANCH  15  44
HETATM   44  O   UNL     1      -8.345  16.515  66.113  1.00  0.00    -0.316 OA 
HETATM   45  C   UNL     1      -7.596  17.263  67.059  1.00  0.00    -0.197 C  
ENDBRANCH  15  44
TORSDOF 10
ENDMDL
MODEL      123
REMARK 921   NORMALIZED FREE ENERGY PREDICTED BY IDOCK:   -1.82 KCAL/MOL
REMARK 922        TOTAL FREE ENERGY PREDICTED BY IDOCK:   -5.64 KCAL/MOL
REMARK 923 INTER-LIGAND FREE ENERGY PREDICTED BY IDOCK:   -6.16 KCAL/MOL
REMARK 924 INTRA-LIGAND FREE ENERGY PREDICTED BY IDOCK:    0.52 KCAL/MOL
REMARK 927      BINDING AFFINITY PREDICTED BY RF-SCORE:    0.00 PKD
ROOT
HETATM    1  C   UNL     1      -8.526  11.617  67.244  1.00  0.00    -0.156 C  
HETATM    2  C   UNL     1      -9.297  11.221  65.981  1.00  0.00    -0.234 C  
HETATM    3  C   UNL     1     -10.760  10.732  66.217  1.00  0.00    -0.138 C  
HETATM    4  C   UNL     1      -6.129   7.865  68.357  1.00  0.00    -0.044 C  
HETATM    5  C   UNL     1     -11.516  12.011  66.573  1.00  0.00    -0.349 C  
HETATM    6  C   UNL     1      -7.424  10.575  67.476  1.00  0.00    -0.093 C  
HETATM    7  C   UNL     1     -10.913  12.478  67.946  1.00  0.00    -0.262 C  
HETATM    8  C   UNL     1      -7.262   8.132  67.350  1.00  0.00    -0.088 C  
HETATM    9  C   UNL     1      -6.719   7.860  69.724  1.00  0.00    -0.038 A  
HETATM   10  C   UNL     1      -9.486  11.839  68.425  1.00  0.00    -0.188 C  
HETATM   11  C   UNL     1      -7.256   6.685  73.091  1.00  0.00    -0.077 A  
HETATM   12  C   UNL     1      -7.909   8.514  70.000  1.00  0.00    -0.102 A  
HETATM   13  N   UNL     1      -8.262   8.165  71.281  1.00  0.00    -0.107 NA 
HETATM   14  C   UNL     1      -9.335  10.650  69.468  1.00  0.00    -0.008 C  
HETATM   15  C   UNL     1      -6.150   5.866  73.369  1.00  0.00    -0.061 A  
HETATM   16  N   UNL     1      -8.087   9.307  67.678  1.00  0.00    -0.104 NA 
HETATM   17  C   UNL     1      -5.156   5.698  72.423  1.00  0.00    -0.017 A  
HETATM   18  C   UNL     1      -8.773   9.249  68.980  1.00  0.00    -0.135 C  
HETATM   19  C   UNL     1      -5.210   6.311  71.161  1.00  0.00    -0.018 A  
HETATM   20  C   UNL     1      -6.309   7.152  70.873  1.00  0.00    -0.036 A  
HETATM   21  H   UNL     1      -9.106   8.481  71.759  1.00  0.00     0.000 HD 
HETATM   22  C   UNL     1      -7.306   7.323  71.834  1.00  0.00    -0.080 A  
ENDROOT
BRANCH   3  23
HETATM   23  O   UNL     1     -11.001   9.781  67.316  1.00  0.00    -0.235 OA 
BRANCH  23  24
HETATM   24  C   UNL     1     -10.737   8.489  66.987  1.00  0.00    -0.120 C  
HETATM   25  O   UNL     1     -10.336   8.171  65.873  1.00  0.00     0.462 OA 
BRANCH  24  26
HETATM   26  C   UNL     1     -10.910   7.397  68.020  1.00  0.00    -0.127 A  
HETATM   27  C   UNL     1     -11.529   7.412  69.267  1.00  0.00     0.312 A  
HETATM   28  C   UNL     1      -9.994   5.201  68.592  1.00  0.00    -0.158 A  
HETATM   29  C   UNL     1     -11.340   6.372  70.214  1.00  0.00    -0.403 A  
HETATM   30  C   UNL     1     -10.280   6.208  67.667  1.00  0.00    -0.214 A  
HETATM   31  C   UNL     1     -10.496   5.283  69.903  1.00  0.00    -0.281 A  
BRANCH  28  32
HETATM   32  O   UNL     1      -9.215   4.141  68.198  1.00  0.00    -0.127 OA 
HETATM   33  C   UNL     1      -8.758   4.200  66.841  1.00  0.00    -0.114 C  
ENDBRANCH  28  32
BRANCH  31  34
HETATM   34  O   UNL     1     -10.217   4.405  70.915  1.00  0.00    -0.164 OA 
HETATM   35  C   UNL     1      -9.022   4.566  71.669  1.00  0.00    -0.125 C  
ENDBRANCH  31  34
BRANCH  29  36
HETATM   36  O   UNL     1     -12.016   6.622  71.392  1.00  0.00    -0.327 OA 
HETATM   37  C   UNL     1     -13.046   7.608  71.404  1.00  0.00    -0.296 C  
ENDBRANCH  29  36
ENDBRANCH  24  26
ENDBRANCH  23  24
ENDBRANCH   3  23
BRANCH   5  38
HETATM   38  O   UNL     1     -11.294  12.985  65.529  1.00  0.00    -0.292 OA 
HETATM   39  C   UNL     1     -12.436  13.644  65.006  1.00  0.00    -0.414 C  
ENDBRANCH   5  38
BRANCH   7  40
HETATM   40  C   UNL     1     -11.989  12.417  69.015  1.00  0.00    -0.241 C  
HETATM   41  O   UNL     1     -12.335  13.345  69.737  1.00  0.00    -0.261 OA 
BRANCH  40  42
HETATM   42  O   UNL     1     -12.481  11.156  69.094  1.00  0.00    -0.418 OA 
HETATM   43  C   UNL     1     -12.906  10.728  70.387  1.00  0.00    -0.213 C  
ENDBRANCH  40  42
ENDBRANCH   7  40
BRANCH  15  44
HETATM   44  O   UNL     1      -5.930   5.181  74.535  1.00  0.00    -0.048 OA 
HETATM   45  C   UNL     1      -6.255   3.798  74.545  1.00  0.00    -0.026 C  
ENDBRANCH  15  44
TORSDOF 10
ENDMDL
MODEL      124
REMARK 921   NORMALIZED FREE ENERGY PREDICTED BY IDOCK:   -1.77 KCAL/MOL
REMARK 922        TOTAL FREE ENERGY PREDICTED BY IDOCK:   -5.56 KCAL/MOL
REMARK 923 INTER-LIGAND FREE ENERGY PREDICTED BY IDOCK:   -4.97 KCAL/MOL
REMARK 924 INTRA-LIGAND FREE ENERGY PREDICTED BY IDOCK:   -0.59 KCAL/MOL
REMARK 927      BINDING AFFINITY PREDICTED BY RF-SCORE:    0.00 PKD
ROOT
HETATM    1  C   UNL     1      -7.711  13.024  67.080  1.00  0.00    -0.049 C  
HETATM    2  C   UNL     1      -8.313  12.685  65.713  1.00  0.00     1.315 C  
HETATM    3  C   UNL     1      -9.811  12.250  65.731  1.00  0.00    -0.244 C  
HETATM    4  C   UNL     1      -5.629   9.156  68.411  1.00  0.00    -0.038 C  
HETATM    5  C   UNL     1     -10.562  13.550  66.014  1.00  0.00    -0.285 C  
HETATM    6  C   UNL     1      -6.690  11.934  67.434  1.00  0.00    -0.126 C  
HETATM    7  C   UNL     1     -10.140  13.961  67.470  1.00  0.00    -0.244 C  
HETATM    8  C   UNL     1      -6.600   9.489  67.265  1.00  0.00    -0.071 C  
HETATM    9  C   UNL     1      -6.403   9.144  69.683  1.00  0.00    -0.039 A  
HETATM   10  C   UNL     1      -8.817  13.256  68.123  1.00  0.00    -0.187 C  
HETATM   11  C   UNL     1      -7.446   7.917  72.909  1.00  0.00    -0.139 A  
HETATM   12  C   UNL     1      -7.596   9.838  69.810  1.00  0.00    -0.137 A  
HETATM   13  N   UNL     1      -8.136   9.475  71.020  1.00  0.00    -0.320 NA 
HETATM   14  C   UNL     1      -8.855  12.039  69.144  1.00  0.00     0.527 C  
HETATM   15  C   UNL     1      -6.419   7.049  73.316  1.00  0.00    -0.065 A  
HETATM   16  N   UNL     1      -7.420  10.689  67.508  1.00  0.00    -0.092 NA 
HETATM   17  C   UNL     1      -5.310   6.862  72.512  1.00  0.00    -0.037 A  
HETATM   18  C   UNL     1      -8.282  10.629  68.701  1.00  0.00    -0.135 C  
HETATM   19  C   UNL     1      -5.165   7.505  71.272  1.00  0.00    -0.027 A  
HETATM   20  C   UNL     1      -6.182   8.395  70.858  1.00  0.00    -0.034 A  
HETATM   21  H   UNL     1      -9.026   9.813  71.384  1.00  0.00     0.000 HD 
HETATM   22  C   UNL     1      -7.297   8.584  71.676  1.00  0.00    -0.100 A  
ENDROOT
BRANCH   3  23
HETATM   23  O   UNL     1     -10.236  11.285  66.760  1.00  0.00    -0.212 OA 
BRANCH  23  24
HETATM   24  C   UNL     1     -10.265   9.999  66.322  1.00  0.00    -0.215 C  
HETATM   25  O   UNL     1     -10.255   9.717  65.129  1.00  0.00    -0.177 OA 
BRANCH  24  26
HETATM   26  C   UNL     1     -10.283   8.862  67.322  1.00  0.00    -0.326 A  
HETATM   27  C   UNL     1      -9.882   7.535  67.200  1.00  0.00    -0.263 A  
HETATM   28  C   UNL     1     -11.314   8.269  69.459  1.00  0.00     0.299 A  
HETATM   29  C   UNL     1     -10.241   6.548  68.154  1.00  0.00    -0.168 A  
HETATM   30  C   UNL     1     -10.863   9.214  68.536  1.00  0.00    -0.089 A  
HETATM   31  C   UNL     1     -11.038   6.903  69.265  1.00  0.00    -0.184 A  
BRANCH  28  32
HETATM   32  O   UNL     1     -12.033   8.696  70.550  1.00  0.00    -0.128 OA 
HETATM   33  C   UNL     1     -11.515   9.868  71.190  1.00  0.00    -0.383 C  
ENDBRANCH  28  32
BRANCH  31  34
HETATM   34  O   UNL     1     -11.495   5.882  70.053  1.00  0.00    -0.300 OA 
HETATM   35  C   UNL     1     -11.205   5.889  71.445  1.00  0.00    -0.218 C  
ENDBRANCH  31  34
BRANCH  29  36
HETATM   36  O   UNL     1      -9.767   5.300  67.805  1.00  0.00    -0.128 OA 
HETATM   37  C   UNL     1      -9.828   4.892  66.439  1.00  0.00    -0.209 C  
ENDBRANCH  29  36
ENDBRANCH  24  26
ENDBRANCH  23  24
ENDBRANCH   3  23
BRANCH   5  38
HETATM   38  O   UNL     1     -10.162  14.536  65.038  1.00  0.00    -0.404 OA 
HETATM   39  C   UNL     1     -11.135  15.494  64.650  1.00  0.00    -0.359 C  
ENDBRANCH   5  38
BRANCH   7  40
HETATM   40  C   UNL     1     -11.356  13.920  68.377  1.00  0.00    -0.285 C  
HETATM   41  O   UNL     1     -12.519  13.796  68.012  1.00  0.00    -0.091 OA 
BRANCH  40  42
HETATM   42  O   UNL     1     -10.968  14.099  69.665  1.00  0.00    -0.194 OA 
HETATM   43  C   UNL     1     -11.802  14.939  70.461  1.00  0.00    -0.303 C  
ENDBRANCH  40  42
ENDBRANCH   7  40
BRANCH  15  44
HETATM   44  O   UNL     1      -6.388   6.330  74.482  1.00  0.00    -0.072 OA 
HETATM   45  C   UNL     1      -5.571   5.168  74.505  1.00  0.00    -0.034 C  
ENDBRANCH  15  44
TORSDOF 10
ENDMDL
MODEL      125
REMARK 921   NORMALIZED FREE ENERGY PREDICTED BY IDOCK:   -1.68 KCAL/MOL
REMARK 922        TOTAL FREE ENERGY PREDICTED BY IDOCK:   -5.42 KCAL/MOL
REMARK 923 INTER-LIGAND FREE ENERGY PREDICTED BY IDOCK:   -5.60 KCAL/MOL
REMARK 924 INTRA-LIGAND FREE ENERGY PREDICTED BY IDOCK:    0.18 KCAL/MOL
REMARK 927      BINDING AFFINITY PREDICTED BY RF-SCORE:    0.00 PKD
ROOT
HETATM    1  C   UNL     1      -5.128  10.571  68.127  1.00  0.00    -0.034 C  
HETATM    2  C   UNL     1      -6.149  11.281  67.232  1.00  0.00    -0.076 C  
HETATM    3  C   UNL     1      -7.248  12.094  67.984  1.00  0.00    -0.099 C  
HETATM    4  C   UNL     1      -6.732   6.290  68.538  1.00  0.00    -0.064 C  
HETATM    5  C   UNL     1      -6.496  13.315  68.512  1.00  0.00    -0.085 C  
HETATM    6  C   UNL     1      -5.368   9.060  68.018  1.00  0.00    -0.035 C  
HETATM    7  C   UNL     1      -5.478  12.749  69.566  1.00  0.00    -0.084 C  
HETATM    8  C   UNL     1      -7.331   7.591  67.973  1.00  0.00    -0.096 C  
HETATM    9  C   UNL     1      -6.717   6.398  70.023  1.00  0.00    -0.053 A  
HETATM   10  C   UNL     1      -5.160  11.145  69.555  1.00  0.00    -0.044 C  
HETATM   11  C   UNL     1      -7.170   5.289  73.424  1.00  0.00    -0.090 A  
HETATM   12  C   UNL     1      -6.724   7.629  70.659  1.00  0.00    -0.042 A  
HETATM   13  N   UNL     1      -6.890   7.379  71.999  1.00  0.00    -0.061 NA 
HETATM   14  C   UNL     1      -5.818  10.087  70.542  1.00  0.00    -0.084 C  
HETATM   15  C   UNL     1      -7.211   3.888  73.346  1.00  0.00    -0.068 A  
HETATM   16  N   UNL     1      -6.707   8.815  68.503  1.00  0.00    -0.059 NA 
HETATM   17  C   UNL     1      -7.063   3.257  72.124  1.00  0.00    -0.038 A  
HETATM   18  C   UNL     1      -6.800   8.985  69.964  1.00  0.00    -0.045 C  
HETATM   19  C   UNL     1      -6.882   3.970  70.929  1.00  0.00    -0.032 A  
HETATM   20  C   UNL     1      -6.820   5.380  70.994  1.00  0.00    -0.045 A  
HETATM   21  H   UNL     1      -6.951   8.096  72.722  1.00  0.00     0.000 HD 
HETATM   22  C   UNL     1      -6.964   6.012  72.231  1.00  0.00    -0.082 A  
ENDROOT
BRANCH   3  23
HETATM   23  O   UNL     1      -7.897  11.464  69.147  1.00  0.00    -0.085 OA 
BRANCH  23  24
HETATM   24  C   UNL     1      -9.206  11.162  68.943  1.00  0.00    -0.096 C  
HETATM   25  O   UNL     1      -9.869  10.550  69.774  1.00  0.00    -0.160 OA 
BRANCH  24  26
HETATM   26  C   UNL     1      -9.894  11.608  67.672  1.00  0.00    -0.195 A  
HETATM   27  C   UNL     1      -9.633  11.303  66.339  1.00  0.00    -0.223 A  
HETATM   28  C   UNL     1     -11.436  13.339  66.888  1.00  0.00    -0.338 A  
HETATM   29  C   UNL     1     -10.203  12.043  65.271  1.00  0.00    -0.271 A  
HETATM   30  C   UNL     1     -10.914  12.527  67.898  1.00  0.00    -0.262 A  
HETATM   31  C   UNL     1     -11.061  13.130  65.549  1.00  0.00    -0.278 A  
BRANCH  28  32
HETATM   32  O   UNL     1     -12.313  14.341  67.229  1.00  0.00    -0.337 OA 
HETATM   33  C   UNL     1     -11.865  15.198  68.286  1.00  0.00    -0.250 C  
ENDBRANCH  28  32
BRANCH  31  34
HETATM   34  O   UNL     1     -11.440  13.909  64.489  1.00  0.00    -0.366 OA 
HETATM   35  C   UNL     1     -12.096  15.147  64.731  1.00  0.00    -0.199 C  
ENDBRANCH  31  34
BRANCH  29  36
HETATM   36  O   UNL     1      -9.769  11.588  64.042  1.00  0.00    -0.242 OA 
HETATM   37  C   UNL     1      -9.663  10.183  63.821  1.00  0.00    -0.137 C  
ENDBRANCH  29  36
ENDBRANCH  24  26
ENDBRANCH  23  24
ENDBRANCH   3  23
BRANCH   5  38
HETATM   38  O   UNL     1      -5.825  13.957  67.407  1.00  0.00    -0.351 OA 
HETATM   39  C   UNL     1      -6.053  15.347  67.231  1.00  0.00     0.180 C  
ENDBRANCH   5  38
BRANCH   7  40
HETATM   40  C   UNL     1      -5.829  13.284  70.942  1.00  0.00    -0.099 C  
HETATM   41  O   UNL     1      -5.665  12.694  72.004  1.00  0.00    -0.190 OA 
BRANCH  40  42
HETATM   42  O   UNL     1      -6.409  14.504  70.821  1.00  0.00    -0.169 OA 
HETATM   43  C   UNL     1      -5.526  15.596  70.570  1.00  0.00    -0.144 C  
ENDBRANCH  40  42
ENDBRANCH   7  40
BRANCH  15  44
HETATM   44  O   UNL     1      -7.389   3.028  74.397  1.00  0.00    -0.045 OA 
HETATM   45  C   UNL     1      -7.170   1.647  74.149  1.00  0.00    -0.024 C  
ENDBRANCH  15  44
TORSDOF 10
ENDMDL
MODEL      126
REMARK 921   NORMALIZED FREE ENERGY PREDICTED BY IDOCK:   -1.05 KCAL/MOL
REMARK 922        TOTAL FREE ENERGY PREDICTED BY IDOCK:   -4.43 KCAL/MOL
REMARK 923 INTER-LIGAND FREE ENERGY PREDICTED BY IDOCK:   -4.71 KCAL/MOL
REMARK 924 INTRA-LIGAND FREE ENERGY PREDICTED BY IDOCK:    0.28 KCAL/MOL
REMARK 927      BINDING AFFINITY PREDICTED BY RF-SCORE:    0.00 PKD
ROOT
HETATM    1  C   UNL     1     -10.699   7.098  71.706  1.00  0.00    -0.241 C  
HETATM    2  C   UNL     1     -10.957   5.814  70.910  1.00  0.00    -0.305 C  
HETATM    3  C   UNL     1      -9.700   5.177  70.241  1.00  0.00    -0.203 C  
HETATM    4  C   UNL     1     -11.665  10.490  68.769  1.00  0.00    -0.190 C  
HETATM    5  C   UNL     1      -8.926   4.584  71.417  1.00  0.00    -0.127 C  
HETATM    6  C   UNL     1     -11.344   8.266  70.948  1.00  0.00    -0.268 C  
HETATM    7  C   UNL     1      -8.469   5.818  72.275  1.00  0.00    -0.122 C  
HETATM    8  C   UNL     1     -11.497   8.969  68.604  1.00  0.00     0.770 C  
HETATM    9  C   UNL     1     -10.314  11.083  68.968  1.00  0.00    -0.229 A  
HETATM   10  C   UNL     1      -9.200   7.257  72.016  1.00  0.00    -0.149 C  
HETATM   11  C   UNL     1      -7.645  13.463  68.498  1.00  0.00    -0.127 A  
HETATM   12  C   UNL     1      -9.257  10.329  69.450  1.00  0.00    -0.189 A  
HETATM   13  N   UNL     1      -8.133  11.111  69.341  1.00  0.00    -0.379 NA 
HETATM   14  C   UNL     1      -8.593   8.431  71.134  1.00  0.00    -0.187 C  
HETATM   15  C   UNL     1      -8.267  14.604  67.966  1.00  0.00    -0.145 A  
HETATM   16  N   UNL     1     -10.689   8.340  69.662  1.00  0.00    -0.221 NA 
HETATM   17  C   UNL     1      -9.635  14.618  67.765  1.00  0.00    -0.213 A  
HETATM   18  C   UNL     1      -9.308   8.840  69.779  1.00  0.00    -0.163 C  
HETATM   19  C   UNL     1     -10.449  13.514  68.062  1.00  0.00    -0.245 A  
HETATM   20  C   UNL     1      -9.839  12.364  68.615  1.00  0.00    -0.086 A  
HETATM   21  H   UNL     1      -7.192  10.818  69.604  1.00  0.00     0.000 HD 
HETATM   22  C   UNL     1      -8.459  12.357  68.822  1.00  0.00     0.136 A  
ENDROOT
BRANCH   3  23
HETATM   23  O   UNL     1      -8.768   6.072  69.533  1.00  0.00    -0.123 OA 
BRANCH  23  24
HETATM   24  C   UNL     1      -8.866   6.000  68.179  1.00  0.00    -0.111 C  
HETATM   25  O   UNL     1      -9.632   6.715  67.543  1.00  0.00    -0.124 OA 
BRANCH  24  26
HETATM   26  C   UNL     1      -7.991   5.033  67.410  1.00  0.00    -0.096 A  
HETATM   27  C   UNL     1      -7.865   4.808  66.042  1.00  0.00    -0.095 A  
HETATM   28  C   UNL     1      -6.663   3.012  67.782  1.00  0.00    -0.044 A  
HETATM   29  C   UNL     1      -7.206   3.663  65.525  1.00  0.00    -0.071 A  
HETATM   30  C   UNL     1      -7.248   4.196  68.236  1.00  0.00    -0.059 A  
HETATM   31  C   UNL     1      -6.662   2.706  66.409  1.00  0.00    -0.043 A  
BRANCH  28  32
HETATM   32  O   UNL     1      -6.099   2.156  68.697  1.00  0.00    -0.024 OA 
HETATM   33  C   UNL     1      -6.388   2.464  70.067  1.00  0.00    -0.025 C  
ENDBRANCH  28  32
BRANCH  31  34
HETATM   34  O   UNL     1      -6.195   1.544  65.857  1.00  0.00    -0.021 OA 
HETATM   35  C   UNL     1      -5.752   1.542  64.506  1.00  0.00    -0.008 C  
ENDBRANCH  31  34
BRANCH  29  36
HETATM   36  O   UNL     1      -7.240   3.631  64.145  1.00  0.00    -0.056 OA 
HETATM   37  C   UNL     1      -8.371   4.175  63.467  1.00  0.00    -0.096 C  
ENDBRANCH  29  36
ENDBRANCH  24  26
ENDBRANCH  23  24
ENDBRANCH   3  23
BRANCH   5  38
HETATM   38  O   UNL     1      -9.807   3.711  72.156  1.00  0.00    -0.153 OA 
HETATM   39  C   UNL     1      -9.641   2.314  71.968  1.00  0.00    -0.121 C  
ENDBRANCH   5  38
BRANCH   7  40
HETATM   40  C   UNL     1      -6.954   5.902  72.270  1.00  0.00    -0.082 C  
HETATM   41  O   UNL     1      -6.246   6.025  71.277  1.00  0.00    -0.040 OA 
BRANCH  40  42
HETATM   42  O   UNL     1      -6.487   5.762  73.536  1.00  0.00    -0.069 OA 
HETATM   43  C   UNL     1      -5.177   6.272  73.781  1.00  0.00    -0.040 C  
ENDBRANCH  40  42
ENDBRANCH   7  40
BRANCH  15  44
HETATM   44  O   UNL     1      -7.640  15.768  67.607  1.00  0.00    -0.133 OA 
HETATM   45  C   UNL     1      -8.464  16.895  67.349  1.00  0.00    -0.190 C  
ENDBRANCH  15  44
TORSDOF 10
ENDMDL
MODEL      127
REMARK 921   NORMALIZED FREE ENERGY PREDICTED BY IDOCK:   -1.02 KCAL/MOL
REMARK 922        TOTAL FREE ENERGY PREDICTED BY IDOCK:   -4.37 KCAL/MOL
REMARK 923 INTER-LIGAND FREE ENERGY PREDICTED BY IDOCK:   -4.14 KCAL/MOL
REMARK 924 INTRA-LIGAND FREE ENERGY PREDICTED BY IDOCK:   -0.23 KCAL/MOL
REMARK 927      BINDING AFFINITY PREDICTED BY RF-SCORE:    0.00 PKD
ROOT
HETATM    1  C   UNL     1      -8.740  11.211  69.518  1.00  0.00     0.472 C  
HETATM    2  C   UNL     1      -9.023  11.257  68.013  1.00  0.00    -0.156 C  
HETATM    3  C   UNL     1     -10.295  10.482  67.548  1.00  0.00    -0.223 C  
HETATM    4  C   UNL     1      -5.729   7.784  70.021  1.00  0.00    -0.023 C  
HETATM    5  C   UNL     1     -11.450  11.354  68.040  1.00  0.00    -0.307 C  
HETATM    6  C   UNL     1      -7.481  10.363  69.740  1.00  0.00    -0.149 C  
HETATM    7  C   UNL     1     -11.370  11.297  69.608  1.00  0.00    -0.359 C  
HETATM    8  C   UNL     1      -6.600   8.257  68.844  1.00  0.00    -0.053 C  
HETATM    9  C   UNL     1      -6.616   7.113  71.011  1.00  0.00    -0.044 A  
HETATM   10  C   UNL     1      -9.988  10.759  70.296  1.00  0.00     0.810 C  
HETATM   11  C   UNL     1      -7.621   4.571  73.362  1.00  0.00    -0.083 A  
HETATM   12  C   UNL     1      -7.973   7.388  71.068  1.00  0.00    -0.097 A  
HETATM   13  N   UNL     1      -8.521   6.484  71.946  1.00  0.00    -0.119 NA 
HETATM   14  C   UNL     1      -9.769   9.286  70.850  1.00  0.00    -0.346 C  
HETATM   15  C   UNL     1      -6.434   3.904  73.704  1.00  0.00    -0.041 A  
HETATM   16  N   UNL     1      -7.781   9.037  69.252  1.00  0.00    -0.088 NA 
HETATM   17  C   UNL     1      -5.229   4.310  73.160  1.00  0.00    -0.004 A  
HETATM   18  C   UNL     1      -8.726   8.329  70.134  1.00  0.00    -0.133 C  
HETATM   19  C   UNL     1      -5.137   5.376  72.251  1.00  0.00    -0.012 A  
HETATM   20  C   UNL     1      -6.322   6.068  71.911  1.00  0.00    -0.046 A  
HETATM   21  H   UNL     1      -9.511   6.429  72.182  1.00  0.00     0.000 HD 
HETATM   22  C   UNL     1      -7.534   5.658  72.468  1.00  0.00    -0.097 A  
ENDROOT
BRANCH   3  23
HETATM   23  O   UNL     1     -10.521   9.135  68.098  1.00  0.00    -0.211 OA 
BRANCH  23  24
HETATM   24  C   UNL     1     -10.451   8.147  67.167  1.00  0.00    -0.326 C  
HETATM   25  O   UNL     1     -10.357   8.388  65.969  1.00  0.00     0.127 OA 
BRANCH  24  26
HETATM   26  C   UNL     1     -10.459   6.698  67.603  1.00  0.00    -0.282 A  
HETATM   27  C   UNL     1     -10.562   6.127  68.868  1.00  0.00    -0.335 A  
HETATM   28  C   UNL     1      -9.881   4.483  66.740  1.00  0.00    -0.221 A  
HETATM   29  C   UNL     1     -10.262   4.760  69.105  1.00  0.00    -0.054 A  
HETATM   30  C   UNL     1     -10.267   5.811  66.549  1.00  0.00    -0.241 A  
HETATM   31  C   UNL     1      -9.839   3.939  68.037  1.00  0.00     0.020 A  
BRANCH  28  32
HETATM   32  O   UNL     1      -9.540   3.725  65.646  1.00  0.00    -0.170 OA 
HETATM   33  C   UNL     1      -8.433   4.230  64.887  1.00  0.00    -0.118 C  
ENDBRANCH  28  32
BRANCH  31  34
HETATM   34  O   UNL     1      -9.400   2.682  68.356  1.00  0.00    -0.182 OA 
HETATM   35  C   UNL     1      -8.793   1.878  67.353  1.00  0.00    -0.127 C  
ENDBRANCH  31  34
BRANCH  29  36
HETATM   36  O   UNL     1     -10.394   4.430  70.439  1.00  0.00    -0.103 OA 
HETATM   37  C   UNL     1      -9.566   3.404  70.984  1.00  0.00    -0.169 C  
ENDBRANCH  29  36
ENDBRANCH  24  26
ENDBRANCH  23  24
ENDBRANCH   3  23
BRANCH   5  38
HETATM   38  O   UNL     1     -11.261  12.696  67.540  1.00  0.00    -0.258 OA 
HETATM   39  C   UNL     1     -12.365  13.304  66.889  1.00  0.00    -0.161 C  
ENDBRANCH   5  38
BRANCH   7  40
HETATM   40  C   UNL     1     -12.616  10.621  70.151  1.00  0.00    -0.214 C  
HETATM   41  O   UNL     1     -13.546  10.187  69.482  1.00  0.00     0.865 OA 
BRANCH  40  42
HETATM   42  O   UNL     1     -12.576  10.618  71.507  1.00  0.00    -0.388 OA 
HETATM   43  C   UNL     1     -13.361   9.619  72.156  1.00  0.00    -0.454 C  
ENDBRANCH  40  42
ENDBRANCH   7  40
BRANCH  15  44
HETATM   44  O   UNL     1      -6.326   2.841  74.561  1.00  0.00    -0.015 OA 
HETATM   45  C   UNL     1      -7.330   1.840  74.483  1.00  0.00    -0.028 C  
ENDBRANCH  15  44
TORSDOF 10
ENDMDL
MODEL      128
REMARK 921   NORMALIZED FREE ENERGY PREDICTED BY IDOCK:   -0.99 KCAL/MOL
REMARK 922        TOTAL FREE ENERGY PREDICTED BY IDOCK:   -4.33 KCAL/MOL
REMARK 923 INTER-LIGAND FREE ENERGY PREDICTED BY IDOCK:   -4.82 KCAL/MOL
REMARK 924 INTRA-LIGAND FREE ENERGY PREDICTED BY IDOCK:    0.50 KCAL/MOL
REMARK 927      BINDING AFFINITY PREDICTED BY RF-SCORE:    0.00 PKD
ROOT
HETATM    1  C   UNL     1     -11.981  13.956  68.295  1.00  0.00    -0.392 C  
HETATM    2  C   UNL     1     -11.231  14.753  69.367  1.00  0.00    -0.308 C  
HETATM    3  C   UNL     1      -9.858  15.345  68.923  1.00  0.00    -0.216 C  
HETATM    4  C   UNL     1     -10.858   9.581  69.116  1.00  0.00    -0.194 C  
HETATM    5  C   UNL     1     -10.243  16.492  67.989  1.00  0.00    -0.271 C  
HETATM    6  C   UNL     1     -11.974  12.478  68.708  1.00  0.00    -0.238 C  
HETATM    7  C   UNL     1     -10.920  15.805  66.750  1.00  0.00    -0.192 C  
HETATM    8  C   UNL     1     -10.325  10.924  69.648  1.00  0.00    -0.038 C  
HETATM    9  C   UNL     1     -10.374   9.415  67.718  1.00  0.00    -0.291 A  
HETATM   10  C   UNL     1     -11.415  14.253  66.896  1.00  0.00    -0.377 C  
HETATM   11  C   UNL     1      -8.970   7.673  64.890  1.00  0.00     0.480 A  
HETATM   12  C   UNL     1     -10.011  10.505  66.943  1.00  0.00    -0.200 A  
HETATM   13  N   UNL     1      -9.447  10.003  65.796  1.00  0.00    -0.196 NA 
HETATM   14  C   UNL     1     -10.603  12.994  66.367  1.00  0.00    -0.294 C  
HETATM   15  C   UNL     1      -9.125   6.311  65.190  1.00  0.00     0.350 A  
HETATM   16  N   UNL     1     -10.589  12.066  68.755  1.00  0.00    -0.227 NA 
HETATM   17  C   UNL     1      -9.739   5.926  66.368  1.00  0.00    -0.168 A  
HETATM   18  C   UNL     1     -10.004  11.958  67.408  1.00  0.00    -0.190 C  
HETATM   19  C   UNL     1     -10.215   6.856  67.305  1.00  0.00    -0.284 A  
HETATM   20  C   UNL     1     -10.081   8.231  67.008  1.00  0.00    -0.353 A  
HETATM   21  H   UNL     1      -9.068  10.570  65.038  1.00  0.00     0.000 HD 
HETATM   22  C   UNL     1      -9.466   8.614  65.815  1.00  0.00    -0.122 A  
ENDROOT
BRANCH   3  23
HETATM   23  O   UNL     1      -8.945  14.473  68.163  1.00  0.00    -0.169 OA 
BRANCH  23  24
HETATM   24  C   UNL     1      -7.957  13.927  68.920  1.00  0.00     0.006 C  
HETATM   25  O   UNL     1      -7.445  14.532  69.856  1.00  0.00     0.001 OA 
BRANCH  24  26
HETATM   26  C   UNL     1      -7.477  12.520  68.634  1.00  0.00    -0.090 A  
HETATM   27  C   UNL     1      -7.347  11.414  69.469  1.00  0.00     0.077 A  
HETATM   28  C   UNL     1      -6.231  11.280  66.933  1.00  0.00    -0.123 A  
HETATM   29  C   UNL     1      -6.610  10.264  69.087  1.00  0.00    -0.055 A  
HETATM   30  C   UNL     1      -7.037  12.351  67.326  1.00  0.00    -0.128 A  
HETATM   31  C   UNL     1      -5.974  10.224  67.827  1.00  0.00    -0.045 A  
BRANCH  28  32
HETATM   32  O   UNL     1      -5.694  11.281  65.668  1.00  0.00    -0.142 OA 
HETATM   33  C   UNL     1      -6.246  10.301  64.780  1.00  0.00    -0.124 C  
ENDBRANCH  28  32
BRANCH  31  34
HETATM   34  O   UNL     1      -5.138   9.167  67.586  1.00  0.00    -0.033 OA 
HETATM   35  C   UNL     1      -5.682   7.937  67.126  1.00  0.00    -0.037 C  
ENDBRANCH  31  34
BRANCH  29  36
HETATM   36  O   UNL     1      -6.585   9.314  70.089  1.00  0.00    -0.043 OA 
HETATM   37  C   UNL     1      -7.620   9.314  71.070  1.00  0.00    -0.059 C  
ENDBRANCH  29  36
ENDBRANCH  24  26
ENDBRANCH  23  24
ENDBRANCH   3  23
BRANCH   5  38
HETATM   38  O   UNL     1     -11.156  17.367  68.686  1.00  0.00    -0.133 OA 
HETATM   39  C   UNL     1     -10.908  18.761  68.601  1.00  0.00     0.568 C  
ENDBRANCH   5  38
BRANCH   7  40
HETATM   40  C   UNL     1     -10.077  16.055  65.513  1.00  0.00    -0.304 C  
HETATM   41  O   UNL     1      -9.852  15.244  64.623  1.00  0.00    -0.053 OA 
BRANCH  40  42
HETATM   42  O   UNL     1      -9.557  17.307  65.563  1.00  0.00    -0.464 OA 
HETATM   43  C   UNL     1      -8.139  17.393  65.684  1.00  0.00     0.529 C  
ENDBRANCH  40  42
ENDBRANCH   7  40
BRANCH  15  44
HETATM   44  O   UNL     1      -8.718   5.262  64.407  1.00  0.00    -0.129 OA 
HETATM   45  C   UNL     1      -9.191   3.970  64.757  1.00  0.00    -0.152 C  
ENDBRANCH  15  44
TORSDOF 10
ENDMDL
MODEL      129
REMARK 921   NORMALIZED FREE ENERGY PREDICTED BY IDOCK:   -0.93 KCAL/MOL
REMARK 922        TOTAL FREE ENERGY PREDICTED BY IDOCK:   -4.23 KCAL/MOL
REMARK 923 INTER-LIGAND FREE ENERGY PREDICTED BY IDOCK:   -4.84 KCAL/MOL
REMARK 924 INTRA-LIGAND FREE ENERGY PREDICTED BY IDOCK:    0.60 KCAL/MOL
REMARK 927      BINDING AFFINITY PREDICTED BY RF-SCORE:    0.00 PKD
ROOT
HETATM    1  C   UNL     1      -7.739  12.399  68.663  1.00  0.00    -0.067 C  
HETATM    2  C   UNL     1      -7.635  12.664  67.158  1.00  0.00    -0.067 C  
HETATM    3  C   UNL     1      -8.866  12.214  66.312  1.00  0.00    -0.040 C  
HETATM    4  C   UNL     1      -5.561   8.406  69.283  1.00  0.00    -0.031 C  
HETATM    5  C   UNL     1      -9.943  13.239  66.666  1.00  0.00    -0.272 C  
HETATM    6  C   UNL     1      -6.733  11.298  69.023  1.00  0.00    -0.089 C  
HETATM    7  C   UNL     1     -10.259  12.996  68.186  1.00  0.00    -0.239 C  
HETATM    8  C   UNL     1      -6.027   9.170  68.030  1.00  0.00    -0.049 C  
HETATM    9  C   UNL     1      -6.763   7.821  69.939  1.00  0.00    -0.042 A  
HETATM   10  C   UNL     1      -9.197  12.122  69.070  1.00  0.00     0.367 C  
HETATM   11  C   UNL     1      -8.723   5.287  71.594  1.00  0.00    -0.140 A  
HETATM   12  C   UNL     1      -8.027   8.353  69.738  1.00  0.00    -0.104 A  
HETATM   13  N   UNL     1      -8.916   7.485  70.326  1.00  0.00    -0.146 NA 
HETATM   14  C   UNL     1      -9.370  10.583  69.425  1.00  0.00    -0.139 C  
HETATM   15  C   UNL     1      -7.785   4.364  72.081  1.00  0.00    -0.085 A  
HETATM   16  N   UNL     1      -7.124  10.119  68.283  1.00  0.00    -0.075 NA 
HETATM   17  C   UNL     1      -6.433   4.580  71.884  1.00  0.00    -0.022 A  
HETATM   18  C   UNL     1      -8.360   9.522  68.817  1.00  0.00    -0.117 C  
HETATM   19  C   UNL     1      -5.945   5.699  71.192  1.00  0.00    -0.032 A  
HETATM   20  C   UNL     1      -6.877   6.646  70.711  1.00  0.00    -0.063 A  
HETATM   21  H   UNL     1      -9.929   7.603  70.327  1.00  0.00     0.000 HD 
HETATM   22  C   UNL     1      -8.240   6.427  70.918  1.00  0.00    -0.125 A  
ENDROOT
BRANCH   3  23
HETATM   23  O   UNL     1      -9.443  10.887  66.586  1.00  0.00    -0.174 OA 
BRANCH  23  24
HETATM   24  C   UNL     1      -9.346  10.024  65.539  1.00  0.00    -0.216 C  
HETATM   25  O   UNL     1      -9.948  10.209  64.487  1.00  0.00    -0.326 OA 
BRANCH  24  26
HETATM   26  C   UNL     1      -8.454   8.807  65.645  1.00  0.00    -0.174 A  
HETATM   27  C   UNL     1      -7.322   8.441  64.922  1.00  0.00    -0.087 A  
HETATM   28  C   UNL     1      -8.467   6.557  66.606  1.00  0.00    -0.116 A  
HETATM   29  C   UNL     1      -6.788   7.127  64.971  1.00  0.00    -0.047 A  
HETATM   30  C   UNL     1      -8.901   7.884  66.585  1.00  0.00    -0.166 A  
HETATM   31  C   UNL     1      -7.416   6.143  65.767  1.00  0.00    -0.082 A  
BRANCH  28  32
HETATM   32  O   UNL     1      -9.087   5.668  67.451  1.00  0.00    -0.112 OA 
HETATM   33  C   UNL     1     -10.359   6.101  67.949  1.00  0.00    -0.203 C  
ENDBRANCH  28  32
BRANCH  31  34
HETATM   34  O   UNL     1      -6.962   4.859  65.639  1.00  0.00    -0.060 OA 
HETATM   35  C   UNL     1      -7.195   4.153  64.427  1.00  0.00    -0.058 C  
ENDBRANCH  31  34
BRANCH  29  36
HETATM   36  O   UNL     1      -5.692   6.987  64.143  1.00  0.00    -0.031 OA 
HETATM   37  C   UNL     1      -5.879   6.467  62.828  1.00  0.00    -0.027 C  
ENDBRANCH  29  36
ENDBRANCH  24  26
ENDBRANCH  23  24
ENDBRANCH   3  23
BRANCH   5  38
HETATM   38  O   UNL     1      -9.415  14.563  66.432  1.00  0.00    -0.276 OA 
HETATM   39  C   UNL     1     -10.136  15.397  65.539  1.00  0.00    -0.373 C  
ENDBRANCH   5  38
BRANCH   7  40
HETATM   40  C   UNL     1     -11.695  12.526  68.332  1.00  0.00    -0.328 C  
HETATM   41  O   UNL     1     -12.409  12.698  69.313  1.00  0.00    -0.102 OA 
BRANCH  40  42
HETATM   42  O   UNL     1     -12.061  11.831  67.226  1.00  0.00    -0.595 OA 
HETATM   43  C   UNL     1     -12.574  12.603  66.141  1.00  0.00     0.463 C  
ENDBRANCH  40  42
ENDBRANCH   7  40
BRANCH  15  44
HETATM   44  O   UNL     1      -8.070   3.213  72.768  1.00  0.00    -0.069 OA 
HETATM   45  C   UNL     1      -9.422   2.779  72.773  1.00  0.00    -0.098 C  
ENDBRANCH  15  44
TORSDOF 10
ENDMDL
MODEL      130
REMARK 921   NORMALIZED FREE ENERGY PREDICTED BY IDOCK:   -0.72 KCAL/MOL
REMARK 922        TOTAL FREE ENERGY PREDICTED BY IDOCK:   -3.90 KCAL/MOL
REMARK 923 INTER-LIGAND FREE ENERGY PREDICTED BY IDOCK:   -4.96 KCAL/MOL
REMARK 924 INTRA-LIGAND FREE ENERGY PREDICTED BY IDOCK:    1.05 KCAL/MOL
REMARK 927      BINDING AFFINITY PREDICTED BY RF-SCORE:    0.00 PKD
ROOT
HETATM    1  C   UNL     1      -6.595  11.420  68.311  1.00  0.00    -0.058 C  
HETATM    2  C   UNL     1      -6.577  12.861  67.791  1.00  0.00    -0.140 C  
HETATM    3  C   UNL     1      -7.946  13.402  67.273  1.00  0.00    -0.119 C  
HETATM    4  C   UNL     1      -5.212   8.890  64.739  1.00  0.00    -0.038 C  
HETATM    5  C   UNL     1      -8.758  13.612  68.550  1.00  0.00    -0.102 C  
HETATM    6  C   UNL     1      -5.801  10.549  67.328  1.00  0.00    -0.049 C  
HETATM    7  C   UNL     1      -8.977  12.174  69.142  1.00  0.00     0.577 C  
HETATM    8  C   UNL     1      -5.628  10.364  64.889  1.00  0.00    -0.143 C  
HETATM    9  C   UNL     1      -6.442   8.054  64.821  1.00  0.00    -0.049 A  
HETATM   10  C   UNL     1      -8.035  10.956  68.591  1.00  0.00    -0.140 C  
HETATM   11  C   UNL     1      -8.710   5.409  63.893  1.00  0.00     0.057 A  
HETATM   12  C   UNL     1      -7.587   8.511  65.453  1.00  0.00    -0.088 A  
HETATM   13  N   UNL     1      -8.574   7.592  65.193  1.00  0.00    -0.346 NA 
HETATM   14  C   UNL     1      -8.479   9.898  67.492  1.00  0.00    -0.115 C  
HETATM   15  C   UNL     1      -7.934   4.516  63.136  1.00  0.00    -0.079 A  
HETATM   16  N   UNL     1      -6.485  10.627  66.057  1.00  0.00    -0.123 NA 
HETATM   17  C   UNL     1      -6.591   4.768  62.928  1.00  0.00    -0.026 A  
HETATM   18  C   UNL     1      -7.762   9.892  66.077  1.00  0.00    -0.108 C  
HETATM   19  C   UNL     1      -5.954   5.910  63.440  1.00  0.00    -0.021 A  
HETATM   20  C   UNL     1      -6.718   6.809  64.218  1.00  0.00    -0.045 A  
HETATM   21  H   UNL     1      -9.538   7.667  65.516  1.00  0.00     0.000 HD 
HETATM   22  C   UNL     1      -8.072   6.546  64.430  1.00  0.00    -0.065 A  
ENDROOT
BRANCH   3  23
HETATM   23  O   UNL     1      -8.749  12.525  66.403  1.00  0.00    -0.097 OA 
BRANCH  23  24
HETATM   24  C   UNL     1      -9.726  13.180  65.723  1.00  0.00    -0.138 C  
HETATM   25  O   UNL     1     -10.412  12.623  64.872  1.00  0.00    -0.290 OA 
BRANCH  24  26
HETATM   26  C   UNL     1     -10.014  14.634  66.028  1.00  0.00    -0.337 A  
HETATM   27  C   UNL     1      -9.386  15.798  65.593  1.00  0.00    -0.202 A  
HETATM   28  C   UNL     1     -11.239  15.998  67.648  1.00  0.00    -0.183 A  
HETATM   29  C   UNL     1      -9.614  17.054  66.212  1.00  0.00    -0.267 A  
HETATM   30  C   UNL     1     -11.041  14.804  66.950  1.00  0.00    -0.339 A  
HETATM   31  C   UNL     1     -10.498  17.145  67.310  1.00  0.00    -0.313 A  
BRANCH  28  32
HETATM   32  O   UNL     1     -12.160  16.027  68.667  1.00  0.00    -0.207 OA 
HETATM   33  C   UNL     1     -12.048  14.953  69.610  1.00  0.00    -0.295 C  
ENDBRANCH  28  32
BRANCH  31  34
HETATM   34  O   UNL     1     -10.545  18.342  67.972  1.00  0.00    -0.381 OA 
HETATM   35  C   UNL     1      -9.968  18.448  69.267  1.00  0.00    -0.055 C  
ENDBRANCH  31  34
BRANCH  29  36
HETATM   36  O   UNL     1      -8.853  18.054  65.641  1.00  0.00    -0.307 OA 
HETATM   37  C   UNL     1      -8.931  19.374  66.174  1.00  0.00    -0.283 C  
ENDBRANCH  29  36
ENDBRANCH  24  26
ENDBRANCH  23  24
ENDBRANCH   3  23
BRANCH   5  38
HETATM   38  O   UNL     1      -8.001  14.454  69.446  1.00  0.00    -0.007 OA 
HETATM   39  C   UNL     1      -8.735  15.318  70.299  1.00  0.00     0.840 C  
ENDBRANCH   5  38
BRANCH   7  40
HETATM   40  C   UNL     1     -10.458  11.843  69.128  1.00  0.00     0.002 C  
HETATM   41  O   UNL     1     -11.297  12.342  68.388  1.00  0.00    -0.245 OA 
BRANCH  40  42
HETATM   42  O   UNL     1     -10.731  10.944  70.106  1.00  0.00    -0.126 OA 
HETATM   43  C   UNL     1     -12.113  10.714  70.379  1.00  0.00    -0.341 C  
ENDBRANCH  40  42
ENDBRANCH   7  40
BRANCH  15  44
HETATM   44  O   UNL     1      -8.380   3.359  62.551  1.00  0.00    -0.072 OA 
HETATM   45  C   UNL     1      -9.593   2.810  63.043  1.00  0.00    -0.093 C  
ENDBRANCH  15  44
TORSDOF 10
ENDMDL
MODEL      131
REMARK 921   NORMALIZED FREE ENERGY PREDICTED BY IDOCK:   -0.71 KCAL/MOL
REMARK 922        TOTAL FREE ENERGY PREDICTED BY IDOCK:   -3.89 KCAL/MOL
REMARK 923 INTER-LIGAND FREE ENERGY PREDICTED BY IDOCK:   -5.75 KCAL/MOL
REMARK 924 INTRA-LIGAND FREE ENERGY PREDICTED BY IDOCK:    1.86 KCAL/MOL
REMARK 927      BINDING AFFINITY PREDICTED BY RF-SCORE:    0.00 PKD
ROOT
HETATM    1  C   UNL     1      -6.389  15.453  67.227  1.00  0.00     0.051 C  
HETATM    2  C   UNL     1      -7.168  16.772  67.224  1.00  0.00    -0.204 C  
HETATM    3  C   UNL     1      -7.726  17.223  68.609  1.00  0.00    -0.265 C  
HETATM    4  C   UNL     1      -9.475  12.286  65.997  1.00  0.00    -0.194 C  
HETATM    5  C   UNL     1      -6.481  17.676  69.370  1.00  0.00    -0.231 C  
HETATM    6  C   UNL     1      -7.221  14.405  66.476  1.00  0.00     1.998 C  
HETATM    7  C   UNL     1      -5.624  16.376  69.572  1.00  0.00    -0.150 C  
HETATM    8  C   UNL     1      -9.588  13.767  66.401  1.00  0.00    -0.272 C  
HETATM    9  C   UNL     1      -9.193  11.494  67.226  1.00  0.00    -0.168 A  
HETATM   10  C   UNL     1      -5.974  15.066  68.657  1.00  0.00    -0.088 C  
HETATM   11  C   UNL     1      -9.526   8.749  69.541  1.00  0.00    -0.165 A  
HETATM   12  C   UNL     1      -8.615  12.075  68.343  1.00  0.00    -0.147 A  
HETATM   13  N   UNL     1      -8.661  11.135  69.344  1.00  0.00    -0.362 NA 
HETATM   14  C   UNL     1      -6.838  13.827  69.149  1.00  0.00    -0.102 C  
HETATM   15  C   UNL     1     -10.131   7.722  68.799  1.00  0.00    -0.196 A  
HETATM   16  N   UNL     1      -8.457  14.253  67.210  1.00  0.00    -0.202 NA 
HETATM   17  C   UNL     1     -10.433   7.915  67.464  1.00  0.00    -0.332 A  
HETATM   18  C   UNL     1      -8.253  13.549  68.488  1.00  0.00    -0.104 C  
HETATM   19  C   UNL     1     -10.168   9.125  66.802  1.00  0.00    -0.331 A  
HETATM   20  C   UNL     1      -9.543  10.162  67.531  1.00  0.00    -0.180 A  
HETATM   21  H   UNL     1      -8.322  11.280  70.294  1.00  0.00     0.000 HD 
HETATM   22  C   UNL     1      -9.234   9.959  68.877  1.00  0.00    -0.160 A  
ENDROOT
BRANCH   3  23
HETATM   23  O   UNL     1      -8.387  16.209  69.450  1.00  0.00    -0.219 OA 
BRANCH  23  24
HETATM   24  C   UNL     1      -9.729  16.126  69.251  1.00  0.00    -0.242 C  
HETATM   25  O   UNL     1     -10.285  16.699  68.320  1.00  0.00    -0.256 OA 
BRANCH  24  26
HETATM   26  C   UNL     1     -10.578  15.284  70.177  1.00  0.00    -0.279 A  
HETATM   27  C   UNL     1     -11.350  14.152  69.929  1.00  0.00    -0.232 A  
HETATM   28  C   UNL     1     -11.610  15.402  72.392  1.00  0.00    -0.447 A  
HETATM   29  C   UNL     1     -12.304  13.671  70.864  1.00  0.00    -0.371 A  
HETATM   30  C   UNL     1     -10.629  15.784  71.474  1.00  0.00     0.688 A  
HETATM   31  C   UNL     1     -12.494  14.352  72.087  1.00  0.00    -0.257 A  
BRANCH  28  32
HETATM   32  O   UNL     1     -11.697  16.073  73.588  1.00  0.00    -0.245 OA 
HETATM   33  C   UNL     1     -12.999  16.066  74.188  1.00  0.00    -0.199 C  
ENDBRANCH  28  32
BRANCH  31  34
HETATM   34  O   UNL     1     -13.542  13.945  72.867  1.00  0.00    -0.680 OA 
HETATM   35  C   UNL     1     -14.235  12.748  72.538  1.00  0.00     0.254 C  
ENDBRANCH  31  34
BRANCH  29  36
HETATM   36  O   UNL     1     -12.978  12.565  70.385  1.00  0.00     0.170 OA 
HETATM   37  C   UNL     1     -12.385  11.276  70.529  1.00  0.00    -0.356 C  
ENDBRANCH  29  36
ENDBRANCH  24  26
ENDBRANCH  23  24
ENDBRANCH   3  23
BRANCH   5  38
HETATM   38  O   UNL     1      -5.787  18.661  68.574  1.00  0.00    -0.199 OA 
HETATM   39  C   UNL     1      -6.199  20.012  68.711  1.00  0.00    -0.287 C  
ENDBRANCH   5  38
BRANCH   7  40
HETATM   40  C   UNL     1      -5.520  16.066  71.054  1.00  0.00     0.044 C  
HETATM   41  O   UNL     1      -5.176  16.852  71.928  1.00  0.00    -0.216 OA 
BRANCH  40  42
HETATM   42  O   UNL     1      -5.813  14.759  71.266  1.00  0.00    -0.082 OA 
HETATM   43  C   UNL     1      -5.138  14.133  72.356  1.00  0.00    -0.211 C  
ENDBRANCH  40  42
ENDBRANCH   7  40
BRANCH  15  44
HETATM   44  O   UNL     1     -10.473   6.482  69.272  1.00  0.00    -0.187 OA 
HETATM   45  C   UNL     1      -9.441   5.511  69.351  1.00  0.00    -0.133 C  
ENDBRANCH  15  44
TORSDOF 10
ENDMDL
MODEL      132
REMARK 921   NORMALIZED FREE ENERGY PREDICTED BY IDOCK:   -0.33 KCAL/MOL
REMARK 922        TOTAL FREE ENERGY PREDICTED BY IDOCK:   -3.27 KCAL/MOL
REMARK 923 INTER-LIGAND FREE ENERGY PREDICTED BY IDOCK:   -4.65 KCAL/MOL
REMARK 924 INTRA-LIGAND FREE ENERGY PREDICTED BY IDOCK:    1.38 KCAL/MOL
REMARK 927      BINDING AFFINITY PREDICTED BY RF-SCORE:    0.00 PKD
ROOT
HETATM    1  C   UNL     1     -12.146  11.760  67.387  1.00  0.00     0.193 C  
HETATM    2  C   UNL     1     -11.289  13.023  67.521  1.00  0.00    -0.346 C  
HETATM    3  C   UNL     1      -9.867  12.936  66.884  1.00  0.00    -0.235 C  
HETATM    4  C   UNL     1     -11.506   9.508  71.335  1.00  0.00    -0.462 C  
HETATM    5  C   UNL     1     -10.140  12.984  65.381  1.00  0.00    -0.252 C  
HETATM    6  C   UNL     1     -12.297  11.137  68.781  1.00  0.00     0.202 C  
HETATM    7  C   UNL     1     -10.917  11.657  65.060  1.00  0.00    -0.334 C  
HETATM    8  C   UNL     1     -10.814  10.722  70.690  1.00  0.00     0.485 C  
HETATM    9  C   UNL     1     -11.074   8.287  70.600  1.00  0.00    -0.269 A  
HETATM   10  C   UNL     1     -11.580  10.826  66.303  1.00  0.00     0.886 C  
HETATM   11  C   UNL     1      -9.937   4.887  70.217  1.00  0.00    -0.321 A  
HETATM   12  C   UNL     1     -10.608   8.355  69.297  1.00  0.00    -0.182 A  
HETATM   13  N   UNL     1     -10.128   7.106  68.986  1.00  0.00    -0.178 NA 
HETATM   14  C   UNL     1     -10.927   9.548  66.984  1.00  0.00     0.014 C  
HETATM   15  C   UNL     1     -10.238   4.265  71.439  1.00  0.00    -0.051 A  
HETATM   16  N   UNL     1     -10.967  10.788  69.226  1.00  0.00    -0.224 NA 
HETATM   17  C   UNL     1     -10.866   4.977  72.444  1.00  0.00    -0.234 A  
HETATM   18  C   UNL     1     -10.426   9.634  68.486  1.00  0.00    -0.212 C  
HETATM   19  C   UNL     1     -11.213   6.330  72.301  1.00  0.00    -0.325 A  
HETATM   20  C   UNL     1     -10.932   6.965  71.070  1.00  0.00    -0.287 A  
HETATM   21  H   UNL     1      -9.704   6.851  68.094  1.00  0.00     0.000 HD 
HETATM   22  C   UNL     1     -10.304   6.239  70.056  1.00  0.00    -0.199 A  
ENDROOT
BRANCH   3  23
HETATM   23  O   UNL     1      -9.075  11.718  67.128  1.00  0.00    -0.166 OA 
BRANCH  23  24
HETATM   24  C   UNL     1      -7.793  11.968  67.505  1.00  0.00    -0.155 C  
HETATM   25  O   UNL     1      -6.931  11.096  67.500  1.00  0.00    -0.080 OA 
BRANCH  24  26
HETATM   26  C   UNL     1      -7.387  13.366  67.919  1.00  0.00    -0.140 A  
HETATM   27  C   UNL     1      -6.358  13.809  68.746  1.00  0.00    -0.092 A  
HETATM   28  C   UNL     1      -8.290  15.640  67.961  1.00  0.00    -0.145 A  
HETATM   29  C   UNL     1      -6.312  15.136  69.246  1.00  0.00    -0.117 A  
HETATM   30  C   UNL     1      -8.242  14.348  67.431  1.00  0.00    -0.215 A  
HETATM   31  C   UNL     1      -7.337  16.049  68.911  1.00  0.00    -0.176 A  
BRANCH  28  32
HETATM   32  O   UNL     1      -9.282  16.493  67.543  1.00  0.00    -0.202 OA 
HETATM   33  C   UNL     1      -8.820  17.652  66.837  1.00  0.00    -0.246 C  
ENDBRANCH  28  32
BRANCH  31  34
HETATM   34  O   UNL     1      -7.331  17.254  69.559  1.00  0.00    -0.062 OA 
HETATM   35  C   UNL     1      -6.359  18.231  69.208  1.00  0.00    -0.254 C  
ENDBRANCH  31  34
BRANCH  29  36
HETATM   36  O   UNL     1      -5.226  15.335  70.075  1.00  0.00    -0.101 OA 
HETATM   37  C   UNL     1      -5.125  14.575  71.278  1.00  0.00    -0.135 C  
ENDBRANCH  29  36
ENDBRANCH  24  26
ENDBRANCH  23  24
ENDBRANCH   3  23
BRANCH   5  38
HETATM   38  O   UNL     1     -10.934  14.156  65.093  1.00  0.00    -0.320 OA 
HETATM   39  C   UNL     1     -10.255  15.282  64.560  1.00  0.00     0.578 C  
ENDBRANCH   5  38
BRANCH   7  40
HETATM   40  C   UNL     1     -10.078  10.793  64.137  1.00  0.00    -0.353 C  
HETATM   41  O   UNL     1     -10.062   9.568  64.120  1.00  0.00     0.684 OA 
BRANCH  40  42
HETATM   42  O   UNL     1      -9.296  11.584  63.361  1.00  0.00    -0.242 OA 
HETATM   43  C   UNL     1      -8.168  10.953  62.757  1.00  0.00    -0.074 C  
ENDBRANCH  40  42
ENDBRANCH   7  40
BRANCH  15  44
HETATM   44  O   UNL     1      -9.968   2.962  71.767  1.00  0.00    -0.166 OA 
HETATM   45  C   UNL     1     -10.599   2.441  72.928  1.00  0.00    -0.141 C  
ENDBRANCH  15  44
TORSDOF 10
ENDMDL
MODEL      133
REMARK 921   NORMALIZED FREE ENERGY PREDICTED BY IDOCK:   -0.25 KCAL/MOL
REMARK 922        TOTAL FREE ENERGY PREDICTED BY IDOCK:   -3.16 KCAL/MOL
REMARK 923 INTER-LIGAND FREE ENERGY PREDICTED BY IDOCK:   -1.61 KCAL/MOL
REMARK 924 INTRA-LIGAND FREE ENERGY PREDICTED BY IDOCK:   -1.55 KCAL/MOL
REMARK 927      BINDING AFFINITY PREDICTED BY RF-SCORE:    0.00 PKD
ROOT
HETATM    1  C   UNL     1      -5.229  14.892  67.390  1.00  0.00     0.327 C  
HETATM    2  C   UNL     1      -6.477  15.461  66.706  1.00  0.00     0.953 C  
HETATM    3  C   UNL     1      -7.556  16.049  67.668  1.00  0.00    -0.146 C  
HETATM    4  C   UNL     1      -6.060  10.391  67.741  1.00  0.00    -0.052 C  
HETATM    5  C   UNL     1      -6.931  17.353  68.160  1.00  0.00    -0.190 C  
HETATM    6  C   UNL     1      -5.244  13.367  67.215  1.00  0.00     0.359 C  
HETATM    7  C   UNL     1      -5.684  16.917  69.010  1.00  0.00    -0.149 C  
HETATM    8  C   UNL     1      -6.936  11.598  67.361  1.00  0.00    -0.117 C  
HETATM    9  C   UNL     1      -5.828  10.435  69.211  1.00  0.00    -0.037 A  
HETATM   10  C   UNL     1      -5.125  15.389  68.842  1.00  0.00    -0.099 C  
HETATM   11  C   UNL     1      -5.561   9.120  72.558  1.00  0.00    -0.061 A  
HETATM   12  C   UNL     1      -5.927  11.620  69.924  1.00  0.00    -0.137 A  
HETATM   13  N   UNL     1      -5.839  11.288  71.254  1.00  0.00    -0.354 NA 
HETATM   14  C   UNL     1      -5.446  14.196  69.841  1.00  0.00    -0.099 C  
HETATM   15  C   UNL     1      -5.395   7.736  72.391  1.00  0.00    -0.036 A  
HETATM   16  N   UNL     1      -6.435  12.884  67.875  1.00  0.00    -0.109 NA 
HETATM   17  C   UNL     1      -5.345   7.192  71.121  1.00  0.00    -0.027 A  
HETATM   18  C   UNL     1      -6.323  12.973  69.342  1.00  0.00    -0.111 C  
HETATM   19  C   UNL     1      -5.468   7.976  69.963  1.00  0.00    -0.023 A  
HETATM   20  C   UNL     1      -5.617   9.373  70.115  1.00  0.00    -0.031 A  
HETATM   21  H   UNL     1      -5.896  11.953  72.024  1.00  0.00     0.000 HD 
HETATM   22  C   UNL     1      -5.661   9.918  71.400  1.00  0.00    -0.056 A  
ENDROOT
BRANCH   3  23
HETATM   23  O   UNL     1      -7.907  15.271  68.868  1.00  0.00    -0.138 OA 
BRANCH  23  24
HETATM   24  C   UNL     1      -9.240  15.034  68.994  1.00  0.00    -0.205 C  
HETATM   25  O   UNL     1      -9.875  15.396  69.978  1.00  0.00    -0.259 OA 
BRANCH  24  26
HETATM   26  C   UNL     1      -9.989  14.328  67.884  1.00  0.00    -0.230 A  
HETATM   27  C   UNL     1      -9.936  13.007  67.446  1.00  0.00    -0.228 A  
HETATM   28  C   UNL     1     -11.309  14.850  65.892  1.00  0.00    -0.306 A  
HETATM   29  C   UNL     1     -10.499  12.601  66.209  1.00  0.00    -0.251 A  
HETATM   30  C   UNL     1     -10.812  15.179  67.155  1.00  0.00    -0.320 A  
HETATM   31  C   UNL     1     -11.130  13.553  65.378  1.00  0.00    -0.293 A  
BRANCH  28  32
HETATM   32  O   UNL     1     -11.965  15.814  65.165  1.00  0.00     0.218 OA 
HETATM   33  C   UNL     1     -11.236  17.035  64.989  1.00  0.00     0.230 C  
ENDBRANCH  28  32
BRANCH  31  34
HETATM   34  O   UNL     1     -11.497  13.139  64.126  1.00  0.00    -0.367 OA 
HETATM   35  C   UNL     1     -12.586  12.237  63.980  1.00  0.00    -0.420 C  
ENDBRANCH  31  34
BRANCH  29  36
HETATM   36  O   UNL     1     -10.290  11.258  65.966  1.00  0.00    -0.238 OA 
HETATM   37  C   UNL     1     -11.140  10.300  66.593  1.00  0.00     0.159 C  
ENDBRANCH  29  36
ENDBRANCH  24  26
ENDBRANCH  23  24
ENDBRANCH   3  23
BRANCH   5  38
HETATM   38  O   UNL     1      -6.551  18.145  67.014  1.00  0.00    -0.173 OA 
HETATM   39  C   UNL     1      -6.756  19.546  67.099  1.00  0.00    -0.195 C  
ENDBRANCH   5  38
BRANCH   7  40
HETATM   40  C   UNL     1      -5.892  17.327  70.457  1.00  0.00     0.090 C  
HETATM   41  O   UNL     1      -6.516  16.692  71.299  1.00  0.00     1.732 OA 
BRANCH  40  42
HETATM   42  O   UNL     1      -5.327  18.541  70.670  1.00  0.00    -0.237 OA 
HETATM   43  C   UNL     1      -5.985  19.382  71.615  1.00  0.00     0.071 C  
ENDBRANCH  40  42
ENDBRANCH   7  40
BRANCH  15  44
HETATM   44  O   UNL     1      -5.269   6.813  73.396  1.00  0.00    -0.036 OA 
HETATM   45  C   UNL     1      -5.156   5.450  73.015  1.00  0.00    -0.017 C  
ENDBRANCH  15  44
TORSDOF 10
ENDMDL
MODEL      134
REMARK 921   NORMALIZED FREE ENERGY PREDICTED BY IDOCK:   -0.24 KCAL/MOL
REMARK 922        TOTAL FREE ENERGY PREDICTED BY IDOCK:   -3.13 KCAL/MOL
REMARK 923 INTER-LIGAND FREE ENERGY PREDICTED BY IDOCK:   -1.47 KCAL/MOL
REMARK 924 INTRA-LIGAND FREE ENERGY PREDICTED BY IDOCK:   -1.66 KCAL/MOL
REMARK 927      BINDING AFFINITY PREDICTED BY RF-SCORE:    0.00 PKD
ROOT
HETATM    1  C   UNL     1     -12.836  10.620  70.646  1.00  0.00    -0.404 C  
HETATM    2  C   UNL     1     -12.129  11.921  71.038  1.00  0.00    -0.119 C  
HETATM    3  C   UNL     1     -10.951  12.348  70.109  1.00  0.00     0.905 C  
HETATM    4  C   UNL     1     -10.831   7.396  73.226  1.00  0.00    -0.417 C  
HETATM    5  C   UNL     1     -11.648  12.823  68.836  1.00  0.00    -0.316 C  
HETATM    6  C   UNL     1     -12.506   9.560  71.706  1.00  0.00    -0.401 C  
HETATM    7  C   UNL     1     -12.325  11.540  68.233  1.00  0.00     0.482 C  
HETATM    8  C   UNL     1     -10.499   8.871  72.936  1.00  0.00     0.904 C  
HETATM    9  C   UNL     1     -10.489   6.601  72.014  1.00  0.00    -0.227 A  
HETATM   10  C   UNL     1     -12.502  10.231  69.196  1.00  0.00     0.712 C  
HETATM   11  C   UNL     1      -9.124   3.830  70.154  1.00  0.00    -0.195 A  
HETATM   12  C   UNL     1     -10.429   7.185  70.759  1.00  0.00    -0.212 A  
HETATM   13  N   UNL     1      -9.917   6.235  69.908  1.00  0.00    -0.166 NA 
HETATM   14  C   UNL     1     -11.536   8.969  69.189  1.00  0.00     0.676 C  
HETATM   15  C   UNL     1      -8.986   2.796  71.093  1.00  0.00    -0.095 A  
HETATM   16  N   UNL     1     -11.073   9.375  71.676  1.00  0.00    -0.373 NA 
HETATM   17  C   UNL     1      -9.377   2.993  72.405  1.00  0.00    -0.160 A  
HETATM   18  C   UNL     1     -10.638   8.666  70.460  1.00  0.00    -0.217 C  
HETATM   19  C   UNL     1      -9.905   4.214  72.854  1.00  0.00    -0.186 A  
HETATM   20  C   UNL     1     -10.066   5.259  71.916  1.00  0.00    -0.252 A  
HETATM   21  H   UNL     1      -9.741   6.380  68.914  1.00  0.00     0.000 HD 
HETATM   22  C   UNL     1      -9.676   5.051  70.592  1.00  0.00    -0.198 A  
ENDROOT
BRANCH   3  23
HETATM   23  O   UNL     1      -9.986  11.313  69.700  1.00  0.00     0.162 OA 
BRANCH  23  24
HETATM   24  C   UNL     1      -8.915  11.804  69.022  1.00  0.00     0.263 C  
HETATM   25  O   UNL     1      -8.806  12.995  68.752  1.00  0.00     0.000 OA 
BRANCH  24  26
HETATM   26  C   UNL     1      -7.797  10.875  68.602  1.00  0.00    -0.126 A  
HETATM   27  C   UNL     1      -6.923  10.930  67.520  1.00  0.00    -0.084 A  
HETATM   28  C   UNL     1      -6.995   8.603  69.028  1.00  0.00    -0.064 A  
HETATM   29  C   UNL     1      -6.132   9.818  67.133  1.00  0.00    -0.059 A  
HETATM   30  C   UNL     1      -7.688   9.752  69.416  1.00  0.00    -0.109 A  
HETATM   31  C   UNL     1      -6.225   8.605  67.851  1.00  0.00    -0.052 A  
BRANCH  28  32
HETATM   32  O   UNL     1      -7.085   7.477  69.811  1.00  0.00    -0.064 OA 
HETATM   33  C   UNL     1      -6.611   7.639  71.154  1.00  0.00    -0.038 C  
ENDBRANCH  28  32
BRANCH  31  34
HETATM   34  O   UNL     1      -5.572   7.522  67.329  1.00  0.00    -0.028 OA 
HETATM   35  C   UNL     1      -6.327   6.453  66.773  1.00  0.00    -0.041 C  
ENDBRANCH  31  34
BRANCH  29  36
HETATM   36  O   UNL     1      -5.376  10.091  66.010  1.00  0.00    -0.041 OA 
HETATM   37  C   UNL     1      -5.968  10.821  64.937  1.00  0.00     0.061 C  
ENDBRANCH  29  36
ENDBRANCH  24  26
ENDBRANCH  23  24
ENDBRANCH   3  23
BRANCH   5  38
HETATM   38  O   UNL     1     -12.622  13.830  69.190  1.00  0.00    -0.071 OA 
HETATM   39  C   UNL     1     -12.127  15.057  69.702  1.00  0.00    -0.300 C  
ENDBRANCH   5  38
BRANCH   7  40
HETATM   40  C   UNL     1     -11.693  11.221  66.891  1.00  0.00     0.271 C  
HETATM   41  O   UNL     1     -11.105  10.185  66.604  1.00  0.00    -0.012 OA 
BRANCH  40  42
HETATM   42  O   UNL     1     -11.826  12.286  66.061  1.00  0.00    -0.493 OA 
HETATM   43  C   UNL     1     -10.926  12.336  64.955  1.00  0.00    -0.302 C  
ENDBRANCH  40  42
ENDBRANCH   7  40
BRANCH  15  44
HETATM   44  O   UNL     1      -8.484   1.545  70.845  1.00  0.00    -0.048 OA 
HETATM   45  C   UNL     1      -7.247   1.468  70.151  1.00  0.00    -0.033 C  
ENDBRANCH  15  44
TORSDOF 10
ENDMDL
MODEL      135
REMARK 921   NORMALIZED FREE ENERGY PREDICTED BY IDOCK:   -0.15 KCAL/MOL
REMARK 922        TOTAL FREE ENERGY PREDICTED BY IDOCK:   -3.00 KCAL/MOL
REMARK 923 INTER-LIGAND FREE ENERGY PREDICTED BY IDOCK:   -2.24 KCAL/MOL
REMARK 924 INTRA-LIGAND FREE ENERGY PREDICTED BY IDOCK:   -0.76 KCAL/MOL
REMARK 927      BINDING AFFINITY PREDICTED BY RF-SCORE:    0.00 PKD
ROOT
HETATM    1  C   UNL     1      -9.797   9.829  71.128  1.00  0.00     0.225 C  
HETATM    2  C   UNL     1     -10.064  11.205  70.509  1.00  0.00     2.130 C  
HETATM    3  C   UNL     1     -11.330  11.296  69.602  1.00  0.00    -0.287 C  
HETATM    4  C   UNL     1      -6.786   7.850  68.284  1.00  0.00    -0.071 C  
HETATM    5  C   UNL     1     -12.491  11.245  70.594  1.00  0.00    -0.348 C  
HETATM    6  C   UNL     1      -8.539   9.247  70.470  1.00  0.00    -0.233 C  
HETATM    7  C   UNL     1     -12.428   9.809  71.228  1.00  0.00    -0.461 C  
HETATM    8  C   UNL     1      -7.646   9.124  68.190  1.00  0.00    -0.084 C  
HETATM    9  C   UNL     1      -7.684   6.675  68.108  1.00  0.00    -0.105 A  
HETATM   10  C   UNL     1     -11.053   8.943  71.054  1.00  0.00    -0.340 C  
HETATM   11  C   UNL     1      -8.710   3.458  66.843  1.00  0.00    -0.130 A  
HETATM   12  C   UNL     1      -9.041   6.756  68.372  1.00  0.00    -0.125 A  
HETATM   13  N   UNL     1      -9.597   5.576  67.940  1.00  0.00    -0.120 NA 
HETATM   14  C   UNL     1     -10.838   7.799  69.973  1.00  0.00    -0.243 C  
HETATM   15  C   UNL     1      -7.525   2.849  66.400  1.00  0.00    -0.075 A  
HETATM   16  N   UNL     1      -8.833   9.108  69.062  1.00  0.00    -0.137 NA 
HETATM   17  C   UNL     1      -6.315   3.504  66.535  1.00  0.00    -0.036 A  
HETATM   18  C   UNL     1      -9.786   8.015  68.805  1.00  0.00    -0.172 C  
HETATM   19  C   UNL     1      -6.216   4.787  67.096  1.00  0.00    -0.035 A  
HETATM   20  C   UNL     1      -7.397   5.406  67.563  1.00  0.00    -0.076 A  
HETATM   21  H   UNL     1     -10.590   5.349  67.987  1.00  0.00     0.000 HD 
HETATM   22  C   UNL     1      -8.615   4.737  67.430  1.00  0.00    -0.104 A  
ENDROOT
BRANCH   3  23
HETATM   23  O   UNL     1     -11.560  10.214  68.629  1.00  0.00    -0.114 OA 
BRANCH  23  24
HETATM   24  C   UNL     1     -11.237  10.550  67.352  1.00  0.00    -0.173 C  
HETATM   25  O   UNL     1     -11.515   9.831  66.399  1.00  0.00     0.805 OA 
BRANCH  24  26
HETATM   26  C   UNL     1     -10.536  11.863  67.073  1.00  0.00    -0.260 A  
HETATM   27  C   UNL     1      -9.301  12.344  67.496  1.00  0.00    -0.181 A  
HETATM   28  C   UNL     1     -11.036  14.109  66.242  1.00  0.00    -0.318 A  
HETATM   29  C   UNL     1      -8.941  13.711  67.367  1.00  0.00    -0.218 A  
HETATM   30  C   UNL     1     -11.307  12.740  66.317  1.00  0.00    -0.365 A  
HETATM   31  C   UNL     1      -9.854  14.627  66.800  1.00  0.00    -0.255 A  
BRANCH  28  32
HETATM   32  O   UNL     1     -11.945  14.932  65.622  1.00  0.00    -0.221 OA 
HETATM   33  C   UNL     1     -12.332  14.517  64.306  1.00  0.00    -0.369 C  
ENDBRANCH  28  32
BRANCH  31  34
HETATM   34  O   UNL     1      -9.521  15.953  66.861  1.00  0.00    -0.216 OA 
HETATM   35  C   UNL     1      -8.426  16.435  66.092  1.00  0.00    -0.294 C  
ENDBRANCH  31  34
BRANCH  29  36
HETATM   36  O   UNL     1      -7.689  13.963  67.892  1.00  0.00    -0.128 OA 
HETATM   37  C   UNL     1      -7.515  13.950  69.307  1.00  0.00     0.103 C  
ENDBRANCH  29  36
ENDBRANCH  24  26
ENDBRANCH  23  24
ENDBRANCH   3  23
BRANCH   5  38
HETATM   38  O   UNL     1     -12.299  12.279  71.583  1.00  0.00    -0.022 OA 
HETATM   39  C   UNL     1     -13.388  13.157  71.820  1.00  0.00    -0.389 C  
ENDBRANCH   5  38
BRANCH   7  40
HETATM   40  C   UNL     1     -13.679   9.037  70.851  1.00  0.00     0.175 C  
HETATM   41  O   UNL     1     -14.401   9.267  69.888  1.00  0.00     1.463 OA 
BRANCH  40  42
HETATM   42  O   UNL     1     -13.916   8.075  71.778  1.00  0.00    -0.375 OA 
HETATM   43  C   UNL     1     -13.664   6.732  71.368  1.00  0.00     0.027 C  
ENDBRANCH  40  42
ENDBRANCH   7  40
BRANCH  15  44
HETATM   44  O   UNL     1      -7.425   1.611  65.820  1.00  0.00    -0.059 OA 
HETATM   45  C   UNL     1      -6.687   1.521  64.609  1.00  0.00    -0.026 C  
ENDBRANCH  15  44
TORSDOF 10
ENDMDL
MODEL      136
REMARK 921   NORMALIZED FREE ENERGY PREDICTED BY IDOCK:    0.08 KCAL/MOL
REMARK 922        TOTAL FREE ENERGY PREDICTED BY IDOCK:   -2.63 KCAL/MOL
REMARK 923 INTER-LIGAND FREE ENERGY PREDICTED BY IDOCK:   -3.99 KCAL/MOL
REMARK 924 INTRA-LIGAND FREE ENERGY PREDICTED BY IDOCK:    1.35 KCAL/MOL
REMARK 927      BINDING AFFINITY PREDICTED BY RF-SCORE:    0.00 PKD
ROOT
HETATM    1  C   UNL     1      -8.475   9.840  68.021  1.00  0.00    -0.118 C  
HETATM    2  C   UNL     1      -9.806   9.386  67.412  1.00  0.00    -0.222 C  
HETATM    3  C   UNL     1      -9.907   9.509  65.859  1.00  0.00    -0.290 C  
HETATM    4  C   UNL     1      -9.221  14.178  69.321  1.00  0.00     0.331 C  
HETATM    5  C   UNL     1      -9.009   8.384  65.348  1.00  0.00    -0.052 C  
HETATM    6  C   UNL     1      -8.729  11.128  68.815  1.00  0.00    -0.128 C  
HETATM    7  C   UNL     1      -7.555   8.784  65.791  1.00  0.00    -0.086 C  
HETATM    8  C   UNL     1     -10.022  13.182  68.464  1.00  0.00    -0.180 C  
HETATM    9  C   UNL     1      -8.059  14.647  68.517  1.00  0.00    -0.146 A  
HETATM   10  C   UNL     1      -7.382   9.932  66.942  1.00  0.00    -0.091 C  
HETATM   11  C   UNL     1      -5.723  17.038  67.165  1.00  0.00    -0.194 A  
HETATM   12  C   UNL     1      -7.556  13.897  67.467  1.00  0.00    -0.176 A  
HETATM   13  N   UNL     1      -6.625  14.683  66.831  1.00  0.00    -0.097 NA 
HETATM   14  C   UNL     1      -7.046  11.458  66.650  1.00  0.00    -0.103 C  
HETATM   15  C   UNL     1      -5.827  18.160  68.003  1.00  0.00    -0.164 A  
HETATM   16  N   UNL     1      -9.202  12.113  67.869  1.00  0.00    -0.182 NA 
HETATM   17  C   UNL     1      -6.687  18.140  69.085  1.00  0.00    -0.252 A  
HETATM   18  C   UNL     1      -8.127  12.572  66.972  1.00  0.00    -0.105 C  
HETATM   19  C   UNL     1      -7.491  17.028  69.384  1.00  0.00     0.033 A  
HETATM   20  C   UNL     1      -7.384  15.885  68.560  1.00  0.00    -0.127 A  
HETATM   21  H   UNL     1      -6.095  14.404  66.006  1.00  0.00     0.000 HD 
HETATM   22  C   UNL     1      -6.509  15.909  67.473  1.00  0.00    -0.175 A  
ENDROOT
BRANCH   3  23
HETATM   23  O   UNL     1      -9.423  10.752  65.233  1.00  0.00    -0.193 OA 
BRANCH  23  24
HETATM   24  C   UNL     1     -10.371  11.401  64.506  1.00  0.00    -0.313 C  
HETATM   25  O   UNL     1     -10.774  10.971  63.431  1.00  0.00    -0.318 OA 
BRANCH  24  26
HETATM   26  C   UNL     1     -10.982  12.681  65.035  1.00  0.00    -0.323 A  
HETATM   27  C   UNL     1     -10.792  14.006  64.654  1.00  0.00    -0.416 A  
HETATM   28  C   UNL     1     -12.201  13.502  66.991  1.00  0.00    -0.303 A  
HETATM   29  C   UNL     1     -11.233  15.091  65.456  1.00  0.00    -0.344 A  
HETATM   30  C   UNL     1     -11.820  12.474  66.125  1.00  0.00    -0.459 A  
HETATM   31  C   UNL     1     -11.882  14.838  66.685  1.00  0.00    -0.242 A  
BRANCH  28  32
HETATM   32  O   UNL     1     -12.883  13.184  68.140  1.00  0.00     0.799 OA 
HETATM   33  C   UNL     1     -12.783  11.811  68.539  1.00  0.00     1.650 C  
ENDBRANCH  28  32
BRANCH  31  34
HETATM   34  O   UNL     1     -12.127  15.916  67.491  1.00  0.00     0.389 OA 
HETATM   35  C   UNL     1     -11.062  16.485  68.240  1.00  0.00    -0.321 C  
ENDBRANCH  31  34
BRANCH  29  36
HETATM   36  O   UNL     1     -10.899  16.309  64.899  1.00  0.00    -0.625 OA 
HETATM   37  C   UNL     1      -9.810  17.047  65.449  1.00  0.00     0.364 C  
ENDBRANCH  29  36
ENDBRANCH  24  26
ENDBRANCH  23  24
ENDBRANCH   3  23
BRANCH   5  38
HETATM   38  O   UNL     1      -9.433   7.143  65.952  1.00  0.00     0.011 OA 
HETATM   39  C   UNL     1      -8.769   5.961  65.536  1.00  0.00    -0.129 C  
ENDBRANCH   5  38
BRANCH   7  40
HETATM   40  C   UNL     1      -6.704   9.031  64.559  1.00  0.00    -0.078 C  
HETATM   41  O   UNL     1      -7.072   9.592  63.534  1.00  0.00    -0.101 OA 
BRANCH  40  42
HETATM   42  O   UNL     1      -5.476   8.484  64.739  1.00  0.00    -0.042 OA 
HETATM   43  C   UNL     1      -5.143   7.393  63.882  1.00  0.00    -0.029 C  
ENDBRANCH  40  42
ENDBRANCH   7  40
BRANCH  15  44
HETATM   44  O   UNL     1      -5.134  19.334  67.866  1.00  0.00    -0.171 OA 
HETATM   45  C   UNL     1      -5.850  20.540  68.093  1.00  0.00    -0.274 C  
ENDBRANCH  15  44
TORSDOF 10
ENDMDL
MODEL      137
REMARK 921   NORMALIZED FREE ENERGY PREDICTED BY IDOCK:    0.15 KCAL/MOL
REMARK 922        TOTAL FREE ENERGY PREDICTED BY IDOCK:   -2.52 KCAL/MOL
REMARK 923 INTER-LIGAND FREE ENERGY PREDICTED BY IDOCK:   -2.26 KCAL/MOL
REMARK 924 INTRA-LIGAND FREE ENERGY PREDICTED BY IDOCK:   -0.26 KCAL/MOL
REMARK 927      BINDING AFFINITY PREDICTED BY RF-SCORE:    0.00 PKD
ROOT
HETATM    1  C   UNL     1      -9.685   9.596  70.785  1.00  0.00    -0.192 C  
HETATM    2  C   UNL     1      -9.941  11.020  70.282  1.00  0.00     1.298 C  
HETATM    3  C   UNL     1     -11.259  11.215  69.470  1.00  0.00    -0.277 C  
HETATM    4  C   UNL     1      -6.940   7.728  67.616  1.00  0.00    -0.081 C  
HETATM    5  C   UNL     1     -12.354  11.132  70.532  1.00  0.00    -0.364 C  
HETATM    6  C   UNL     1      -8.495   9.021  70.006  1.00  0.00    -0.145 C  
HETATM    7  C   UNL     1     -12.303   9.653  71.061  1.00  0.00    -0.396 C  
HETATM    8  C   UNL     1      -7.756   9.032  67.667  1.00  0.00    -0.097 C  
HETATM    9  C   UNL     1      -7.889   6.597  67.421  1.00  0.00    -0.113 A  
HETATM   10  C   UNL     1     -10.974   8.758  70.736  1.00  0.00    -0.294 C  
HETATM   11  C   UNL     1      -9.113   3.513  66.011  1.00  0.00    -0.155 A  
HETATM   12  C   UNL     1      -9.223   6.703  67.780  1.00  0.00    -0.111 A  
HETATM   13  N   UNL     1      -9.849   5.575  67.307  1.00  0.00    -0.139 NA 
HETATM   14  C   UNL     1     -10.872   7.687  69.566  1.00  0.00    -0.171 C  
HETATM   15  C   UNL     1      -7.983   2.898  65.448  1.00  0.00    -0.082 A  
HETATM   16  N   UNL     1      -8.884   8.993  68.614  1.00  0.00    -0.136 NA 
HETATM   17  C   UNL     1      -6.744   3.503  65.546  1.00  0.00    -0.044 A  
HETATM   18  C   UNL     1      -9.891   7.951  68.348  1.00  0.00    -0.173 C  
HETATM   19  C   UNL     1      -6.560   4.739  66.186  1.00  0.00    -0.045 A  
HETATM   20  C   UNL     1      -7.686   5.361  66.773  1.00  0.00    -0.100 A  
HETATM   21  H   UNL     1     -10.844   5.377  67.406  1.00  0.00     0.000 HD 
HETATM   22  C   UNL     1      -8.934   4.743  66.676  1.00  0.00    -0.111 A  
ENDROOT
BRANCH   3  23
HETATM   23  O   UNL     1     -11.591  10.213  68.443  1.00  0.00    -0.151 OA 
BRANCH  23  24
HETATM   24  C   UNL     1     -11.299  10.612  67.176  1.00  0.00     0.036 C  
HETATM   25  O   UNL     1     -11.286   9.828  66.234  1.00  0.00     0.492 OA 
BRANCH  24  26
HETATM   26  C   UNL     1     -11.005  12.070  66.894  1.00  0.00    -0.328 A  
HETATM   27  C   UNL     1     -11.774  13.051  66.276  1.00  0.00    -0.440 A  
HETATM   28  C   UNL     1      -9.105  13.607  66.789  1.00  0.00    -0.217 A  
HETATM   29  C   UNL     1     -11.218  14.284  65.845  1.00  0.00    -0.319 A  
HETATM   30  C   UNL     1      -9.720  12.448  67.267  1.00  0.00    -0.201 A  
HETATM   31  C   UNL     1      -9.842  14.538  66.034  1.00  0.00    -0.318 A  
BRANCH  28  32
HETATM   32  O   UNL     1      -7.775  13.816  67.064  1.00  0.00    -0.045 OA 
HETATM   33  C   UNL     1      -7.309  13.208  68.275  1.00  0.00    -0.116 C  
ENDBRANCH  28  32
BRANCH  31  34
HETATM   34  O   UNL     1      -9.332  15.663  65.445  1.00  0.00    -0.244 OA 
HETATM   35  C   UNL     1      -9.133  16.833  66.229  1.00  0.00    -0.285 C  
ENDBRANCH  31  34
BRANCH  29  36
HETATM   36  O   UNL     1     -12.159  15.081  65.223  1.00  0.00    -0.178 OA 
HETATM   37  C   UNL     1     -12.410  14.899  63.831  1.00  0.00     0.111 C  
ENDBRANCH  29  36
ENDBRANCH  24  26
ENDBRANCH  23  24
ENDBRANCH   3  23
BRANCH   5  38
HETATM   38  O   UNL     1     -12.060  12.087  71.574  1.00  0.00     0.168 OA 
HETATM   39  C   UNL     1     -12.249  13.459  71.267  1.00  0.00    -0.069 C  
ENDBRANCH   5  38
BRANCH   7  40
HETATM   40  C   UNL     1     -13.603   8.950  70.716  1.00  0.00     0.400 C  
HETATM   41  O   UNL     1     -14.406   9.306  69.862  1.00  0.00     1.463 OA 
BRANCH  40  42
HETATM   42  O   UNL     1     -13.777   7.888  71.541  1.00  0.00    -0.348 OA 
HETATM   43  C   UNL     1     -13.021   7.902  72.751  1.00  0.00     0.402 C  
ENDBRANCH  40  42
ENDBRANCH   7  40
BRANCH  15  44
HETATM   44  O   UNL     1      -7.966   1.702  64.779  1.00  0.00    -0.067 OA 
HETATM   45  C   UNL     1      -8.860   1.560  63.684  1.00  0.00    -0.084 C  
ENDBRANCH  15  44
TORSDOF 10
ENDMDL
MODEL      138
REMARK 921   NORMALIZED FREE ENERGY PREDICTED BY IDOCK:    0.25 KCAL/MOL
REMARK 922        TOTAL FREE ENERGY PREDICTED BY IDOCK:   -2.36 KCAL/MOL
REMARK 923 INTER-LIGAND FREE ENERGY PREDICTED BY IDOCK:   -1.39 KCAL/MOL
REMARK 924 INTRA-LIGAND FREE ENERGY PREDICTED BY IDOCK:   -0.97 KCAL/MOL
REMARK 927      BINDING AFFINITY PREDICTED BY RF-SCORE:    0.00 PKD
ROOT
HETATM    1  C   UNL     1      -7.399  16.575  69.375  1.00  0.00    -0.123 C  
HETATM    2  C   UNL     1      -7.181  17.346  68.070  1.00  0.00    -0.193 C  
HETATM    3  C   UNL     1      -8.322  17.212  67.014  1.00  0.00    -0.207 C  
HETATM    4  C   UNL     1      -5.142  12.625  68.773  1.00  0.00    -0.056 C  
HETATM    5  C   UNL     1      -9.459  18.046  67.603  1.00  0.00    -0.264 C  
HETATM    6  C   UNL     1      -6.389  15.422  69.423  1.00  0.00    -0.134 C  
HETATM    7  C   UNL     1      -9.891  17.290  68.910  1.00  0.00    -0.286 C  
HETATM    8  C   UNL     1      -5.529  13.773  67.824  1.00  0.00    -0.042 C  
HETATM    9  C   UNL     1      -6.372  11.844  69.078  1.00  0.00    -0.080 A  
HETATM   10  C   UNL     1      -8.875  16.168  69.530  1.00  0.00     0.017 C  
HETATM   11  C   UNL     1      -8.372   8.885  69.576  1.00  0.00    -0.119 A  
HETATM   12  C   UNL     1      -7.633  12.406  68.961  1.00  0.00     0.121 A  
HETATM   13  N   UNL     1      -8.537  11.385  69.131  1.00  0.00    -0.376 NA 
HETATM   14  C   UNL     1      -9.023  14.601  69.316  1.00  0.00     0.044 C  
HETATM   15  C   UNL     1      -7.445   7.854  69.797  1.00  0.00    -0.088 A  
HETATM   16  N   UNL     1      -6.676  14.571  68.290  1.00  0.00    -0.104 NA 
HETATM   17  C   UNL     1      -6.090   8.130  69.808  1.00  0.00    -0.029 A  
HETATM   18  C   UNL     1      -7.930  13.820  68.473  1.00  0.00    -0.131 C  
HETATM   19  C   UNL     1      -5.586   9.422  69.590  1.00  0.00    -0.033 A  
HETATM   20  C   UNL     1      -6.508  10.473  69.383  1.00  0.00    -0.062 A  
HETATM   21  H   UNL     1      -9.549  11.491  69.083  1.00  0.00     0.000 HD 
HETATM   22  C   UNL     1      -7.875  10.190  69.380  1.00  0.00    -0.150 A  
ENDROOT
BRANCH   3  23
HETATM   23  O   UNL     1      -8.872  15.869  66.761  1.00  0.00    -0.216 OA 
BRANCH  23  24
HETATM   24  C   UNL     1      -9.943  15.868  65.924  1.00  0.00    -0.349 C  
HETATM   25  O   UNL     1     -10.272  16.863  65.288  1.00  0.00    -0.607 OA 
BRANCH  24  26
HETATM   26  C   UNL     1     -10.751  14.602  65.735  1.00  0.00    -0.321 A  
HETATM   27  C   UNL     1     -11.484  13.845  66.644  1.00  0.00    -0.370 A  
HETATM   28  C   UNL     1     -11.028  12.784  64.121  1.00  0.00    -0.398 A  
HETATM   29  C   UNL     1     -11.937  12.534  66.340  1.00  0.00    -0.318 A  
HETATM   30  C   UNL     1     -10.679  14.098  64.440  1.00  0.00    -0.176 A  
HETATM   31  C   UNL     1     -11.638  11.961  65.084  1.00  0.00    -0.215 A  
BRANCH  28  32
HETATM   32  O   UNL     1     -10.760  12.314  62.858  1.00  0.00    -0.087 OA 
HETATM   33  C   UNL     1      -9.683  11.371  62.784  1.00  0.00    -0.219 C  
ENDBRANCH  28  32
BRANCH  31  34
HETATM   34  O   UNL     1     -11.949  10.639  64.916  1.00  0.00     1.521 OA 
HETATM   35  C   UNL     1     -11.034   9.645  65.357  1.00  0.00     2.045 C  
ENDBRANCH  31  34
BRANCH  29  36
HETATM   36  O   UNL     1     -12.605  11.963  67.405  1.00  0.00     0.440 OA 
HETATM   37  C   UNL     1     -12.071  12.113  68.719  1.00  0.00    -0.113 C  
ENDBRANCH  29  36
ENDBRANCH  24  26
ENDBRANCH  23  24
ENDBRANCH   3  23
BRANCH   5  38
HETATM   38  O   UNL     1      -8.961  19.371  67.887  1.00  0.00    -0.303 OA 
HETATM   39  C   UNL     1      -9.878  20.447  67.765  1.00  0.00    -0.353 C  
ENDBRANCH   5  38
BRANCH   7  40
HETATM   40  C   UNL     1     -11.317  16.793  68.758  1.00  0.00    -0.038 C  
HETATM   41  O   UNL     1     -12.125  17.180  67.923  1.00  0.00     1.106 OA 
BRANCH  40  42
HETATM   42  O   UNL     1     -11.587  15.884  69.728  1.00  0.00    -0.326 OA 
HETATM   43  C   UNL     1     -12.918  15.894  70.243  1.00  0.00     0.421 C  
ENDBRANCH  40  42
ENDBRANCH   7  40
BRANCH  15  44
HETATM   44  O   UNL     1      -7.745   6.535  70.017  1.00  0.00    -0.097 OA 
HETATM   45  C   UNL     1      -8.824   5.984  69.277  1.00  0.00    -0.123 C  
ENDBRANCH  15  44
TORSDOF 10
ENDMDL
MODEL      139
REMARK 921   NORMALIZED FREE ENERGY PREDICTED BY IDOCK:    0.35 KCAL/MOL
REMARK 922        TOTAL FREE ENERGY PREDICTED BY IDOCK:   -2.20 KCAL/MOL
REMARK 923 INTER-LIGAND FREE ENERGY PREDICTED BY IDOCK:   -3.55 KCAL/MOL
REMARK 924 INTRA-LIGAND FREE ENERGY PREDICTED BY IDOCK:    1.34 KCAL/MOL
REMARK 927      BINDING AFFINITY PREDICTED BY RF-SCORE:    0.00 PKD
ROOT
HETATM    1  C   UNL     1      -5.781  13.136  67.455  1.00  0.00    -0.055 C  
HETATM    2  C   UNL     1      -6.780  14.296  67.491  1.00  0.00    -0.128 C  
HETATM    3  C   UNL     1      -7.587  14.443  68.818  1.00  0.00    -0.131 C  
HETATM    4  C   UNL     1      -8.050   9.721  65.391  1.00  0.00    -0.127 C  
HETATM    5  C   UNL     1      -6.557  14.978  69.811  1.00  0.00    -0.170 C  
HETATM    6  C   UNL     1      -6.303  12.087  66.464  1.00  0.00     0.359 C  
HETATM    7  C   UNL     1      -5.510  13.819  69.984  1.00  0.00    -0.104 C  
HETATM    8  C   UNL     1      -8.483  11.090  65.948  1.00  0.00    -0.140 C  
HETATM    9  C   UNL     1      -7.791   8.816  66.544  1.00  0.00    -0.103 A  
HETATM   10  C   UNL     1      -5.492  12.618  68.875  1.00  0.00    -0.063 C  
HETATM   11  C   UNL     1      -7.917   5.745  68.431  1.00  0.00    -0.104 A  
HETATM   12  C   UNL     1      -7.479   9.314  67.799  1.00  0.00    -0.088 A  
HETATM   13  N   UNL     1      -7.483   8.243  68.660  1.00  0.00    -0.095 NA 
HETATM   14  C   UNL     1      -6.173  11.196  69.075  1.00  0.00    -0.047 C  
HETATM   15  C   UNL     1      -8.222   4.752  67.487  1.00  0.00    -0.105 A  
HETATM   16  N   UNL     1      -7.575  11.630  66.975  1.00  0.00    -0.151 NA 
HETATM   17  C   UNL     1      -8.377   5.087  66.154  1.00  0.00    -0.113 A  
HETATM   18  C   UNL     1      -7.414  10.790  68.175  1.00  0.00    -0.091 C  
HETATM   19  C   UNL     1      -8.253   6.406  65.692  1.00  0.00    -0.140 A  
HETATM   20  C   UNL     1      -7.928   7.414  66.629  1.00  0.00    -0.121 A  
HETATM   21  H   UNL     1      -7.304   8.301  69.661  1.00  0.00     0.000 HD 
HETATM   22  C   UNL     1      -7.767   7.070  67.972  1.00  0.00    -0.113 A  
ENDROOT
BRANCH   3  23
HETATM   23  O   UNL     1      -8.156  13.223  69.418  1.00  0.00     0.495 OA 
BRANCH  23  24
HETATM   24  C   UNL     1      -9.483  13.062  69.172  1.00  0.00     0.622 C  
HETATM   25  O   UNL     1     -10.152  12.211  69.747  1.00  0.00     0.863 OA 
BRANCH  24  26
HETATM   26  C   UNL     1     -10.182  13.969  68.182  1.00  0.00    -0.243 A  
HETATM   27  C   UNL     1     -10.963  13.672  67.069  1.00  0.00    -0.298 A  
HETATM   28  C   UNL     1     -10.158  16.301  67.442  1.00  0.00    -0.260 A  
HETATM   29  C   UNL     1     -11.295  14.653  66.098  1.00  0.00    -0.350 A  
HETATM   30  C   UNL     1      -9.931  15.318  68.409  1.00  0.00    -0.220 A  
HETATM   31  C   UNL     1     -10.820  15.975  66.245  1.00  0.00    -0.166 A  
BRANCH  28  32
HETATM   32  O   UNL     1      -9.719  17.581  67.681  1.00  0.00    -0.265 OA 
HETATM   33  C   UNL     1     -10.140  18.137  68.933  1.00  0.00    -0.338 C  
ENDBRANCH  28  32
BRANCH  31  34
HETATM   34  O   UNL     1     -11.024  16.828  65.194  1.00  0.00    -0.492 OA 
HETATM   35  C   UNL     1     -10.723  18.209  65.347  1.00  0.00     0.202 C  
ENDBRANCH  31  34
BRANCH  29  36
HETATM   36  O   UNL     1     -12.041  14.121  65.065  1.00  0.00    -0.382 OA 
HETATM   37  C   UNL     1     -11.863  14.633  63.747  1.00  0.00     0.285 C  
ENDBRANCH  29  36
ENDBRANCH  24  26
ENDBRANCH  23  24
ENDBRANCH   3  23
BRANCH   5  38
HETATM   38  O   UNL     1      -5.955  16.168  69.256  1.00  0.00    -0.122 OA 
HETATM   39  C   UNL     1      -6.700  17.372  69.349  1.00  0.00    -0.187 C  
ENDBRANCH   5  38
BRANCH   7  40
HETATM   40  C   UNL     1      -5.546  13.318  71.416  1.00  0.00    -0.105 C  
HETATM   41  O   UNL     1      -5.199  12.206  71.795  1.00  0.00    -0.346 OA 
BRANCH  40  42
HETATM   42  O   UNL     1      -6.077  14.274  72.219  1.00  0.00    -0.125 OA 
HETATM   43  C   UNL     1      -5.671  14.242  73.586  1.00  0.00    -0.078 C  
ENDBRANCH  40  42
ENDBRANCH   7  40
BRANCH  15  44
HETATM   44  O   UNL     1      -8.391   3.418  67.748  1.00  0.00    -0.083 OA 
HETATM   45  C   UNL     1      -9.423   3.061  68.657  1.00  0.00    -0.126 C  
ENDBRANCH  15  44
TORSDOF 10
ENDMDL
MODEL      140
REMARK 921   NORMALIZED FREE ENERGY PREDICTED BY IDOCK:    0.46 KCAL/MOL
REMARK 922        TOTAL FREE ENERGY PREDICTED BY IDOCK:   -2.03 KCAL/MOL
REMARK 923 INTER-LIGAND FREE ENERGY PREDICTED BY IDOCK:    0.34 KCAL/MOL
REMARK 924 INTRA-LIGAND FREE ENERGY PREDICTED BY IDOCK:   -2.38 KCAL/MOL
REMARK 927      BINDING AFFINITY PREDICTED BY RF-SCORE:    0.00 PKD
ROOT
HETATM    1  C   UNL     1      -5.820  10.160  69.842  1.00  0.00    -0.048 C  
HETATM    2  C   UNL     1      -6.225   9.978  71.309  1.00  0.00     0.128 C  
HETATM    3  C   UNL     1      -7.180   8.778  71.596  1.00  0.00    -0.071 C  
HETATM    4  C   UNL     1      -8.761  13.283  68.211  1.00  0.00    -0.168 C  
HETATM    5  C   UNL     1      -6.279   7.554  71.438  1.00  0.00    -0.035 C  
HETATM    6  C   UNL     1      -6.487  11.438  69.318  1.00  0.00    -0.096 C  
HETATM    7  C   UNL     1      -5.880   7.528  69.919  1.00  0.00    -0.024 C  
HETATM    8  C   UNL     1      -8.701  12.473  69.519  1.00  0.00     1.619 C  
HETATM    9  C   UNL     1      -9.176  12.361  67.117  1.00  0.00    -0.199 A  
HETATM   10  C   UNL     1      -6.108   8.883  69.033  1.00  0.00    -0.043 C  
HETATM   11  C   UNL     1     -10.997  11.314  64.187  1.00  0.00    -0.376 A  
HETATM   12  C   UNL     1      -8.983  10.992  67.213  1.00  0.00    -0.138 A  
HETATM   13  N   UNL     1      -9.630  10.427  66.141  1.00  0.00    -0.187 NA 
HETATM   14  C   UNL     1      -7.345   9.131  68.066  1.00  0.00    -0.083 C  
HETATM   15  C   UNL     1     -11.462  12.504  63.605  1.00  0.00    -0.493 A  
HETATM   16  N   UNL     1      -7.914  11.232  69.416  1.00  0.00     0.089 NA 
HETATM   17  C   UNL     1     -11.152  13.724  64.179  1.00  0.00    -0.192 A  
HETATM   18  C   UNL     1      -8.398  10.262  68.418  1.00  0.00    -0.119 C  
HETATM   19  C   UNL     1     -10.388  13.829  65.351  1.00  0.00    -0.347 A  
HETATM   20  C   UNL     1      -9.899  12.640  65.939  1.00  0.00    -0.251 A  
HETATM   21  H   UNL     1      -9.678   9.427  65.952  1.00  0.00     0.000 HD 
HETATM   22  C   UNL     1     -10.209  11.412  65.351  1.00  0.00    -0.270 A  
ENDROOT
BRANCH   3  23
HETATM   23  O   UNL     1      -8.325   8.576  70.691  1.00  0.00    -0.113 OA 
BRANCH  23  24
HETATM   24  C   UNL     1      -9.354   7.894  71.259  1.00  0.00    -0.146 C  
HETATM   25  O   UNL     1     -10.000   8.352  72.196  1.00  0.00    -0.247 OA 
BRANCH  24  26
HETATM   26  C   UNL     1      -9.751   6.538  70.717  1.00  0.00    -0.194 A  
HETATM   27  C   UNL     1      -9.622   5.265  71.264  1.00  0.00    -0.212 A  
HETATM   28  C   UNL     1     -10.364   5.478  68.599  1.00  0.00    -0.185 A  
HETATM   29  C   UNL     1      -9.790   4.090  70.485  1.00  0.00    -0.144 A  
HETATM   30  C   UNL     1     -10.270   6.598  69.428  1.00  0.00    -0.207 A  
HETATM   31  C   UNL     1     -10.090   4.196  69.109  1.00  0.00     0.242 A  
BRANCH  28  32
HETATM   32  O   UNL     1     -10.720   5.653  67.283  1.00  0.00    -0.256 OA 
HETATM   33  C   UNL     1     -10.509   6.976  66.774  1.00  0.00    -0.227 C  
ENDBRANCH  28  32
BRANCH  31  34
HETATM   34  O   UNL     1     -10.068   3.040  68.378  1.00  0.00     0.392 OA 
HETATM   35  C   UNL     1      -8.822   2.511  67.945  1.00  0.00    -0.130 C  
ENDBRANCH  31  34
BRANCH  29  36
HETATM   36  O   UNL     1      -9.574   2.947  71.229  1.00  0.00    -0.144 OA 
HETATM   37  C   UNL     1      -8.521   2.934  72.190  1.00  0.00    -0.066 C  
ENDBRANCH  29  36
ENDBRANCH  24  26
ENDBRANCH  23  24
ENDBRANCH   3  23
BRANCH   5  38
HETATM   38  O   UNL     1      -5.127   7.715  72.295  1.00  0.00    -0.035 OA 
HETATM   39  C   UNL     1      -5.231   7.217  73.619  1.00  0.00    -0.042 C  
ENDBRANCH   5  38
BRANCH   7  40
HETATM   40  C   UNL     1      -6.449   6.280  69.270  1.00  0.00    -0.043 C  
HETATM   41  O   UNL     1      -6.833   6.187  68.110  1.00  0.00    -0.062 OA 
BRANCH  40  42
HETATM   42  O   UNL     1      -6.523   5.284  70.188  1.00  0.00    -0.032 OA 
HETATM   43  C   UNL     1      -5.488   4.304  70.136  1.00  0.00    -0.012 C  
ENDBRANCH  40  42
ENDBRANCH   7  40
BRANCH  15  44
HETATM   44  O   UNL     1     -12.226  12.602  62.471  1.00  0.00     0.691 OA 
HETATM   45  C   UNL     1     -13.612  12.321  62.598  1.00  0.00     2.820 C  
ENDBRANCH  15  44
TORSDOF 10
ENDMDL
MODEL      141
REMARK 921   NORMALIZED FREE ENERGY PREDICTED BY IDOCK:    1.07 KCAL/MOL
REMARK 922        TOTAL FREE ENERGY PREDICTED BY IDOCK:   -1.06 KCAL/MOL
REMARK 923 INTER-LIGAND FREE ENERGY PREDICTED BY IDOCK:    0.30 KCAL/MOL
REMARK 924 INTRA-LIGAND FREE ENERGY PREDICTED BY IDOCK:   -1.36 KCAL/MOL
REMARK 927      BINDING AFFINITY PREDICTED BY RF-SCORE:    0.00 PKD
ROOT
HETATM    1  C   UNL     1      -5.514   9.572  70.611  1.00  0.00    -0.045 C  
HETATM    2  C   UNL     1      -6.811   8.904  71.080  1.00  0.00    -0.085 C  
HETATM    3  C   UNL     1      -7.787   8.465  69.945  1.00  0.00    -0.101 C  
HETATM    4  C   UNL     1      -6.382  14.072  70.859  1.00  0.00     0.061 C  
HETATM    5  C   UNL     1      -7.097   7.251  69.324  1.00  0.00    -0.079 C  
HETATM    6  C   UNL     1      -5.570  11.053  71.010  1.00  0.00    -0.041 C  
HETATM    7  C   UNL     1      -5.783   7.813  68.670  1.00  0.00    -0.028 C  
HETATM    8  C   UNL     1      -7.270  12.820  70.970  1.00  0.00     4.449 C  
HETATM    9  C   UNL     1      -6.013  14.250  69.428  1.00  0.00    -0.103 A  
HETATM   10  C   UNL     1      -5.267   9.298  69.117  1.00  0.00    -0.036 C  
HETATM   11  C   UNL     1      -5.456  16.054  66.356  1.00  0.00     1.512 A  
HETATM   12  C   UNL     1      -6.026  13.186  68.540  1.00  0.00    -0.081 A  
HETATM   13  N   UNL     1      -5.820  13.715  67.289  1.00  0.00    -0.359 NA 
HETATM   14  C   UNL     1      -5.513  10.628  68.282  1.00  0.00    -0.036 C  
HETATM   15  C   UNL     1      -5.330  17.398  66.742  1.00  0.00    -0.174 A  
HETATM   16  N   UNL     1      -6.702  11.627  70.319  1.00  0.00     0.006 NA 
HETATM   17  C   UNL     1      -5.407  17.745  68.079  1.00  0.00    -0.145 A  
HETATM   18  C   UNL     1      -6.452  11.760  68.873  1.00  0.00    -0.076 C  
HETATM   19  C   UNL     1      -5.624  16.795  69.089  1.00  0.00    -0.144 A  
HETATM   20  C   UNL     1      -5.736  15.437  68.717  1.00  0.00    -0.092 A  
HETATM   21  H   UNL     1      -5.794  13.173  66.426  1.00  0.00     0.000 HD 
HETATM   22  C   UNL     1      -5.651  15.091  67.367  1.00  0.00     0.280 A  
ENDROOT
BRANCH   3  23
HETATM   23  O   UNL     1      -8.037   9.414  68.846  1.00  0.00    -0.099 OA 
BRANCH  23  24
HETATM   24  C   UNL     1      -9.097   9.077  68.065  1.00  0.00    -0.136 C  
HETATM   25  O   UNL     1      -9.596   7.958  68.095  1.00  0.00    -0.148 OA 
BRANCH  24  26
HETATM   26  C   UNL     1      -9.714  10.107  67.144  1.00  0.00    -0.214 A  
HETATM   27  C   UNL     1     -10.640  11.116  67.395  1.00  0.00    -0.272 A  
HETATM   28  C   UNL     1     -10.016  10.536  64.755  1.00  0.00    -0.345 A  
HETATM   29  C   UNL     1     -11.314  11.797  66.349  1.00  0.00    -0.297 A  
HETATM   30  C   UNL     1      -9.321   9.957  65.818  1.00  0.00    -0.259 A  
HETATM   31  C   UNL     1     -11.057  11.449  65.004  1.00  0.00    -0.145 A  
BRANCH  28  32
HETATM   32  O   UNL     1      -9.669  10.195  63.470  1.00  0.00    -0.273 OA 
HETATM   33  C   UNL     1      -8.828  11.143  62.802  1.00  0.00    -0.239 C  
ENDBRANCH  28  32
BRANCH  31  34
HETATM   34  O   UNL     1     -11.860  12.016  64.052  1.00  0.00    -0.391 OA 
HETATM   35  C   UNL     1     -11.479  13.252  63.462  1.00  0.00    -0.153 C  
ENDBRANCH  31  34
BRANCH  29  36
HETATM   36  O   UNL     1     -12.214  12.724  66.836  1.00  0.00    -0.454 OA 
HETATM   37  C   UNL     1     -12.013  13.266  68.140  1.00  0.00    -0.304 C  
ENDBRANCH  29  36
ENDBRANCH  24  26
ENDBRANCH  23  24
ENDBRANCH   3  23
BRANCH   5  38
HETATM   38  O   UNL     1      -6.812   6.297  70.370  1.00  0.00    -0.051 OA 
HETATM   39  C   UNL     1      -6.277   5.044  69.974  1.00  0.00    -0.026 C  
ENDBRANCH   5  38
BRANCH   7  40
HETATM   40  C   UNL     1      -5.849   7.624  67.166  1.00  0.00    -0.040 C  
HETATM   41  O   UNL     1      -5.349   8.366  66.328  1.00  0.00    -0.027 OA 
BRANCH  40  42
HETATM   42  O   UNL     1      -6.599   6.532  66.877  1.00  0.00    -0.048 OA 
HETATM   43  C   UNL     1      -6.801   6.257  65.492  1.00  0.00    -0.052 C  
ENDBRANCH  40  42
ENDBRANCH   7  40
BRANCH  15  44
HETATM   44  O   UNL     1      -5.125  18.461  65.903  1.00  0.00    -0.138 OA 
HETATM   45  C   UNL     1      -6.231  18.894  65.124  1.00  0.00    -0.278 C  
ENDBRANCH  15  44
TORSDOF 10
ENDMDL
MODEL      142
REMARK 921   NORMALIZED FREE ENERGY PREDICTED BY IDOCK:    1.97 KCAL/MOL
REMARK 922        TOTAL FREE ENERGY PREDICTED BY IDOCK:    0.37 KCAL/MOL
REMARK 923 INTER-LIGAND FREE ENERGY PREDICTED BY IDOCK:    0.28 KCAL/MOL
REMARK 924 INTRA-LIGAND FREE ENERGY PREDICTED BY IDOCK:    0.09 KCAL/MOL
REMARK 927      BINDING AFFINITY PREDICTED BY RF-SCORE:    0.00 PKD
ROOT
HETATM    1  C   UNL     1      -9.585  14.192  68.849  1.00  0.00    -0.053 C  
HETATM    2  C   UNL     1      -9.020  14.934  67.634  1.00  0.00    -0.181 C  
HETATM    3  C   UNL     1      -9.107  14.163  66.280  1.00  0.00    -0.040 C  
HETATM    4  C   UNL     1      -5.931  12.204  70.789  1.00  0.00     0.147 C  
HETATM    5  C   UNL     1     -10.593  14.216  65.929  1.00  0.00    -0.298 C  
HETATM    6  C   UNL     1      -8.413  13.814  69.764  1.00  0.00     1.502 C  
HETATM    7  C   UNL     1     -11.309  13.366  67.039  1.00  0.00    -0.346 C  
HETATM    8  C   UNL     1      -6.153  12.918  69.443  1.00  0.00    -0.109 C  
HETATM    9  C   UNL     1      -6.585  10.868  70.714  1.00  0.00     0.514 A  
HETATM   10  C   UNL     1     -10.484  13.024  68.408  1.00  0.00    -0.261 C  
HETATM   11  C   UNL     1      -6.886   7.304  71.171  1.00  0.00    -0.055 A  
HETATM   12  C   UNL     1      -7.617  10.617  69.825  1.00  0.00    -0.043 A  
HETATM   13  N   UNL     1      -7.864   9.267  69.879  1.00  0.00    -0.095 NA 
HETATM   14  C   UNL     1      -9.751  11.645  68.700  1.00  0.00    -0.151 C  
HETATM   15  C   UNL     1      -5.928   6.981  72.145  1.00  0.00    -0.038 A  
HETATM   16  N   UNL     1      -7.557  12.934  69.001  1.00  0.00     0.066 NA 
HETATM   17  C   UNL     1      -5.148   7.975  72.706  1.00  0.00    -0.036 A  
HETATM   18  C   UNL     1      -8.169  11.608  68.805  1.00  0.00    -0.055 C  
HETATM   19  C   UNL     1      -5.264   9.323  72.330  1.00  0.00    -0.076 A  
HETATM   20  C   UNL     1      -6.237   9.665  71.364  1.00  0.00     0.036 A  
HETATM   21  H   UNL     1      -8.564   8.780  69.320  1.00  0.00     0.000 HD 
HETATM   22  C   UNL     1      -7.026   8.658  70.805  1.00  0.00    -0.059 A  
ENDROOT
BRANCH   3  23
HETATM   23  O   UNL     1      -8.722  12.741  66.271  1.00  0.00     0.028 OA 
BRANCH  23  24
HETATM   24  C   UNL     1      -8.820  12.158  65.046  1.00  0.00     0.843 C  
HETATM   25  O   UNL     1      -9.363  12.718  64.101  1.00  0.00     0.306 OA 
BRANCH  24  26
HETATM   26  C   UNL     1      -8.223  10.787  64.814  1.00  0.00     0.047 A  
HETATM   27  C   UNL     1      -8.571   9.782  63.917  1.00  0.00    -0.208 A  
HETATM   28  C   UNL     1      -6.750   9.177  65.920  1.00  0.00    -0.079 A  
HETATM   29  C   UNL     1      -8.079   8.457  64.042  1.00  0.00    -0.142 A  
HETATM   30  C   UNL     1      -7.197  10.482  65.703  1.00  0.00    -0.124 A  
HETATM   31  C   UNL     1      -7.213   8.127  65.108  1.00  0.00    -0.072 A  
BRANCH  28  32
HETATM   32  O   UNL     1      -5.860   8.941  66.940  1.00  0.00    -0.047 OA 
HETATM   33  C   UNL     1      -5.281  10.119  67.517  1.00  0.00    -0.037 C  
ENDBRANCH  28  32
BRANCH  31  34
HETATM   34  O   UNL     1      -6.913   6.802  65.276  1.00  0.00    -0.053 OA 
HETATM   35  C   UNL     1      -7.067   6.208  66.559  1.00  0.00    -0.068 C  
ENDBRANCH  31  34
BRANCH  29  36
HETATM   36  O   UNL     1      -8.592   7.625  63.066  1.00  0.00     0.125 OA 
HETATM   37  C   UNL     1      -8.466   6.213  63.223  1.00  0.00     0.172 C  
ENDBRANCH  29  36
ENDBRANCH  24  26
ENDBRANCH  23  24
ENDBRANCH   3  23
BRANCH   5  38
HETATM   38  O   UNL     1     -11.023  15.594  65.944  1.00  0.00    -0.308 OA 
HETATM   39  C   UNL     1     -12.079  15.952  65.067  1.00  0.00     0.591 C  
ENDBRANCH   5  38
BRANCH   7  40
HETATM   40  C   UNL     1     -11.954  12.148  66.403  1.00  0.00    -0.121 C  
HETATM   41  O   UNL     1     -11.794  10.986  66.757  1.00  0.00    -0.160 OA 
BRANCH  40  42
HETATM   42  O   UNL     1     -12.698  12.532  65.337  1.00  0.00    -0.624 OA 
HETATM   43  C   UNL     1     -12.591  11.718  64.170  1.00  0.00    -0.102 C  
ENDBRANCH  40  42
ENDBRANCH   7  40
BRANCH  15  44
HETATM   44  O   UNL     1      -5.663   5.727  72.629  1.00  0.00    -0.029 OA 
HETATM   45  C   UNL     1      -6.519   4.675  72.207  1.00  0.00    -0.030 C  
ENDBRANCH  15  44
TORSDOF 10
ENDMDL
MODEL      143
REMARK 921   NORMALIZED FREE ENERGY PREDICTED BY IDOCK:    3.05 KCAL/MOL
REMARK 922        TOTAL FREE ENERGY PREDICTED BY IDOCK:    2.08 KCAL/MOL
REMARK 923 INTER-LIGAND FREE ENERGY PREDICTED BY IDOCK:   -3.37 KCAL/MOL
REMARK 924 INTRA-LIGAND FREE ENERGY PREDICTED BY IDOCK:    5.44 KCAL/MOL
REMARK 927      BINDING AFFINITY PREDICTED BY RF-SCORE:    0.00 PKD
ROOT
HETATM    1  C   UNL     1     -12.769  12.365  68.734  1.00  0.00     1.263 C  
HETATM    2  C   UNL     1     -12.048  13.580  69.327  1.00  0.00    -0.335 C  
HETATM    3  C   UNL     1     -10.702  13.962  68.637  1.00  0.00    -0.260 C  
HETATM    4  C   UNL     1     -11.463   8.845  71.374  1.00  0.00    -0.381 C  
HETATM    5  C   UNL     1     -11.138  14.565  67.303  1.00  0.00    -0.312 C  
HETATM    6  C   UNL     1     -12.699  11.223  69.756  1.00  0.00     0.093 C  
HETATM    7  C   UNL     1     -11.792  13.379  66.508  1.00  0.00    -0.443 C  
HETATM    8  C   UNL     1     -10.984  10.303  71.247  1.00  0.00     0.391 C  
HETATM    9  C   UNL     1     -10.979   8.096  70.182  1.00  0.00    -0.223 A  
HETATM   10  C   UNL     1     -12.222  12.035  67.334  1.00  0.00     0.403 C  
HETATM   11  C   UNL     1      -9.518   5.334  68.381  1.00  0.00    -0.159 A  
HETATM   12  C   UNL     1     -10.665   8.744  68.999  1.00  0.00    -0.112 A  
HETATM   13  N   UNL     1     -10.085   7.807  68.178  1.00  0.00    -0.179 NA 
HETATM   14  C   UNL     1     -11.361  10.700  67.397  1.00  0.00    -0.185 C  
HETATM   15  C   UNL     1      -9.615   4.240  69.255  1.00  0.00    -0.190 A  
HETATM   16  N   UNL     1     -11.299  10.923  69.949  1.00  0.00    -0.289 NA 
HETATM   17  C   UNL     1     -10.207   4.393  70.495  1.00  0.00    -0.081 A  
HETATM   18  C   UNL     1     -10.715  10.252  68.774  1.00  0.00    -0.219 C  
HETATM   19  C   UNL     1     -10.716   5.625  70.937  1.00  0.00    -0.313 A  
HETATM   20  C   UNL     1     -10.641   6.731  70.061  1.00  0.00    -0.256 A  
HETATM   21  H   UNL     1      -9.733   7.994  67.240  1.00  0.00     0.000 HD 
HETATM   22  C   UNL     1     -10.048   6.570  68.807  1.00  0.00    -0.161 A  
ENDROOT
BRANCH   3  23
HETATM   23  O   UNL     1      -9.757  12.877  68.320  1.00  0.00    -0.219 OA 
BRANCH  23  24
HETATM   24  C   UNL     1      -8.590  13.312  67.777  1.00  0.00    -0.184 C  
HETATM   25  O   UNL     1      -7.721  12.536  67.395  1.00  0.00    -0.152 OA 
BRANCH  24  26
HETATM   26  C   UNL     1      -8.345  14.795  67.604  1.00  0.00    -0.180 A  
HETATM   27  C   UNL     1      -7.293  15.481  67.004  1.00  0.00    -0.172 A  
HETATM   28  C   UNL     1      -9.123  16.936  68.499  1.00  0.00    -0.257 A  
HETATM   29  C   UNL     1      -7.097  16.874  67.192  1.00  0.00    -0.181 A  
HETATM   30  C   UNL     1      -9.317  15.582  68.213  1.00  0.00    -0.192 A  
HETATM   31  C   UNL     1      -7.982  17.603  68.017  1.00  0.00    -0.241 A  
BRANCH  28  32
HETATM   32  O   UNL     1     -10.058  17.595  69.258  1.00  0.00    -0.274 OA 
HETATM   33  C   UNL     1     -10.450  16.912  70.456  1.00  0.00     0.804 C  
ENDBRANCH  28  32
BRANCH  31  34
HETATM   34  O   UNL     1      -7.643  18.899  68.298  1.00  0.00    -0.267 OA 
HETATM   35  C   UNL     1      -8.318  19.958  67.632  1.00  0.00    -0.321 C  
ENDBRANCH  31  34
BRANCH  29  36
HETATM   36  O   UNL     1      -5.970  17.327  66.535  1.00  0.00    -0.186 OA 
HETATM   37  C   UNL     1      -5.155  18.318  67.159  1.00  0.00    -0.126 C  
ENDBRANCH  29  36
ENDBRANCH  24  26
ENDBRANCH  23  24
ENDBRANCH   3  23
BRANCH   5  38
HETATM   38  O   UNL     1     -12.083  15.625  67.562  1.00  0.00     0.214 OA 
HETATM   39  C   UNL     1     -11.987  16.790  66.757  1.00  0.00     2.098 C  
ENDBRANCH   5  38
BRANCH   7  40
HETATM   40  C   UNL     1     -10.966  13.086  65.269  1.00  0.00    -0.284 C  
HETATM   41  O   UNL     1     -10.454  13.923  64.535  1.00  0.00    -0.431 OA 
BRANCH  40  42
HETATM   42  O   UNL     1     -10.922  11.747  65.059  1.00  0.00    -0.300 OA 
HETATM   43  C   UNL     1     -10.817  11.328  63.699  1.00  0.00    -0.333 C  
ENDBRANCH  40  42
ENDBRANCH   7  40
BRANCH  15  44
HETATM   44  O   UNL     1      -9.168   2.969  69.006  1.00  0.00    -0.132 OA 
HETATM   45  C   UNL     1      -9.092   2.080  70.111  1.00  0.00    -0.099 C  
ENDBRANCH  15  44
TORSDOF 10
ENDMDL
MODEL      144
REMARK 921   NORMALIZED FREE ENERGY PREDICTED BY IDOCK:    3.17 KCAL/MOL
REMARK 922        TOTAL FREE ENERGY PREDICTED BY IDOCK:    2.26 KCAL/MOL
REMARK 923 INTER-LIGAND FREE ENERGY PREDICTED BY IDOCK:   -0.20 KCAL/MOL
REMARK 924 INTRA-LIGAND FREE ENERGY PREDICTED BY IDOCK:    2.46 KCAL/MOL
REMARK 927      BINDING AFFINITY PREDICTED BY RF-SCORE:    0.00 PKD
ROOT
HETATM    1  C   UNL     1      -8.245  14.899  68.570  1.00  0.00    -0.153 C  
HETATM    2  C   UNL     1      -7.843  15.083  67.103  1.00  0.00    -0.224 C  
HETATM    3  C   UNL     1      -8.606  14.183  66.083  1.00  0.00     0.712 C  
HETATM    4  C   UNL     1      -5.159  11.945  70.249  1.00  0.00    -0.089 C  
HETATM    5  C   UNL     1     -10.004  14.798  66.032  1.00  0.00    -0.313 C  
HETATM    6  C   UNL     1      -7.073  14.236  69.306  1.00  0.00    -0.107 C  
HETATM    7  C   UNL     1     -10.610  14.563  67.462  1.00  0.00    -0.262 C  
HETATM    8  C   UNL     1      -5.500  12.418  68.825  1.00  0.00    -0.054 C  
HETATM    9  C   UNL     1      -6.242  11.029  70.703  1.00  0.00     0.031 A  
HETATM   10  C   UNL     1      -9.594  14.167  68.680  1.00  0.00    -0.179 C  
HETATM   11  C   UNL     1      -7.662   8.094  72.242  1.00  0.00    -0.155 A  
HETATM   12  C   UNL     1      -7.511  11.081  70.149  1.00  0.00     0.720 A  
HETATM   13  N   UNL     1      -8.202  10.003  70.648  1.00  0.00    -0.366 NA 
HETATM   14  C   UNL     1      -9.359  12.689  69.215  1.00  0.00     0.893 C  
HETATM   15  C   UNL     1      -6.640   7.583  73.058  1.00  0.00    -0.065 A  
HETATM   16  N   UNL     1      -6.866  12.948  68.683  1.00  0.00    -0.093 NA 
HETATM   17  C   UNL     1      -5.423   8.235  73.136  1.00  0.00    -0.052 A  
HETATM   18  C   UNL     1      -7.945  12.001  69.013  1.00  0.00     0.179 C  
HETATM   19  C   UNL     1      -5.151   9.404  72.409  1.00  0.00    -0.077 A  
HETATM   20  C   UNL     1      -6.176   9.940  71.597  1.00  0.00     0.280 A  
HETATM   21  H   UNL     1      -9.164   9.766  70.406  1.00  0.00     0.000 HD 
HETATM   22  C   UNL     1      -7.405   9.282  71.527  1.00  0.00     0.178 A  
ENDROOT
BRANCH   3  23
HETATM   23  O   UNL     1      -8.785  12.760  66.418  1.00  0.00    -0.052 OA 
BRANCH  23  24
HETATM   24  C   UNL     1      -9.730  12.137  65.665  1.00  0.00    -0.207 C  
HETATM   25  O   UNL     1     -10.126  12.604  64.603  1.00  0.00    -0.291 OA 
BRANCH  24  26
HETATM   26  C   UNL     1     -10.304  10.813  66.119  1.00  0.00    -0.300 A  
HETATM   27  C   UNL     1     -11.192  10.508  67.146  1.00  0.00    -0.134 A  
HETATM   28  C   UNL     1      -9.886   8.414  65.880  1.00  0.00     0.121 A  
HETATM   29  C   UNL     1     -11.390   9.179  67.602  1.00  0.00     0.822 A  
HETATM   30  C   UNL     1      -9.791   9.728  65.415  1.00  0.00    -0.365 A  
HETATM   31  C   UNL     1     -10.667   8.119  67.012  1.00  0.00    -0.177 A  
BRANCH  28  32
HETATM   32  O   UNL     1      -9.201   7.424  65.217  1.00  0.00     0.280 OA 
HETATM   33  C   UNL     1      -8.040   6.936  65.900  1.00  0.00    -0.119 C  
ENDBRANCH  28  32
BRANCH  31  34
HETATM   34  O   UNL     1     -10.770   6.891  67.606  1.00  0.00    -0.230 OA 
HETATM   35  C   UNL     1     -10.543   6.770  69.005  1.00  0.00    -0.230 C  
ENDBRANCH  31  34
BRANCH  29  36
HETATM   36  O   UNL     1     -12.283   9.125  68.654  1.00  0.00     1.924 OA 
HETATM   37  C   UNL     1     -11.973   9.816  69.863  1.00  0.00     0.131 C  
ENDBRANCH  29  36
ENDBRANCH  24  26
ENDBRANCH  23  24
ENDBRANCH   3  23
BRANCH   5  38
HETATM   38  O   UNL     1      -9.879  16.204  65.725  1.00  0.00    -0.328 OA 
HETATM   39  C   UNL     1     -10.293  17.123  66.723  1.00  0.00    -0.302 C  
ENDBRANCH   5  38
BRANCH   7  40
HETATM   40  C   UNL     1     -11.811  13.641  67.354  1.00  0.00    -0.393 C  
HETATM   41  O   UNL     1     -12.395  13.343  66.320  1.00  0.00    -0.401 OA 
BRANCH  40  42
HETATM   42  O   UNL     1     -12.183  13.234  68.594  1.00  0.00    -0.277 OA 
HETATM   43  C   UNL     1     -12.200  14.239  69.606  1.00  0.00    -0.323 C  
ENDBRANCH  40  42
ENDBRANCH   7  40
BRANCH  15  44
HETATM   44  O   UNL     1      -6.716   6.453  73.829  1.00  0.00    -0.073 OA 
HETATM   45  C   UNL     1      -7.109   5.251  73.182  1.00  0.00    -0.085 C  
ENDBRANCH  15  44
TORSDOF 10
ENDMDL
MODEL      145
REMARK 921   NORMALIZED FREE ENERGY PREDICTED BY IDOCK:    3.93 KCAL/MOL
REMARK 922        TOTAL FREE ENERGY PREDICTED BY IDOCK:    3.48 KCAL/MOL
REMARK 923 INTER-LIGAND FREE ENERGY PREDICTED BY IDOCK:    4.28 KCAL/MOL
REMARK 924 INTRA-LIGAND FREE ENERGY PREDICTED BY IDOCK:   -0.80 KCAL/MOL
REMARK 927      BINDING AFFINITY PREDICTED BY RF-SCORE:    0.00 PKD
ROOT
HETATM    1  C   UNL     1      -6.375   8.877  65.907  1.00  0.00    -0.056 C  
HETATM    2  C   UNL     1      -5.942   8.552  67.341  1.00  0.00    -0.047 C  
HETATM    3  C   UNL     1      -7.005   7.811  68.209  1.00  0.00    -0.079 C  
HETATM    4  C   UNL     1      -7.896  13.203  66.115  1.00  0.00     1.803 C  
HETATM    5  C   UNL     1      -7.021   6.396  67.632  1.00  0.00    -0.078 C  
HETATM    6  C   UNL     1      -6.543  10.398  65.793  1.00  0.00    -0.126 C  
HETATM    7  C   UNL     1      -7.582   6.552  66.173  1.00  0.00    -0.090 C  
HETATM    8  C   UNL     1      -7.511  12.168  67.187  1.00  0.00    -0.129 C  
HETATM    9  C   UNL     1      -9.206  12.799  65.534  1.00  0.00     0.353 A  
HETATM   10  C   UNL     1      -7.604   8.044  65.505  1.00  0.00    -0.085 C  
HETATM   11  C   UNL     1     -12.563  13.266  64.304  1.00  0.00    -0.253 A  
HETATM   12  C   UNL     1      -9.646  11.486  65.587  1.00  0.00    -0.231 A  
HETATM   13  N   UNL     1     -10.945  11.488  65.137  1.00  0.00    -0.267 NA 
HETATM   14  C   UNL     1      -8.886   8.981  65.434  1.00  0.00    -0.237 C  
HETATM   15  C   UNL     1     -12.661  14.639  64.030  1.00  0.00     0.376 A  
HETATM   16  N   UNL     1      -7.584  10.772  66.723  1.00  0.00    -0.122 NA 
HETATM   17  C   UNL     1     -11.571  15.466  64.234  1.00  0.00    -0.196 A  
HETATM   18  C   UNL     1      -8.913  10.332  66.263  1.00  0.00    -0.153 C  
HETATM   19  C   UNL     1     -10.347  14.987  64.725  1.00  0.00    -0.201 A  
HETATM   20  C   UNL     1     -10.229  13.603  64.989  1.00  0.00    -0.356 A  
HETATM   21  H   UNL     1     -11.540  10.663  65.077  1.00  0.00     0.000 HD 
HETATM   22  C   UNL     1     -11.330  12.772  64.776  1.00  0.00    -0.309 A  
ENDROOT
BRANCH   3  23
HETATM   23  O   UNL     1      -8.394   8.299  68.164  1.00  0.00    -0.126 OA 
BRANCH  23  24
HETATM   24  C   UNL     1      -8.857   8.739  69.364  1.00  0.00    -0.143 C  
HETATM   25  O   UNL     1      -8.366   8.370  70.425  1.00  0.00    -0.112 OA 
BRANCH  24  26
HETATM   26  C   UNL     1      -9.993   9.737  69.414  1.00  0.00    -0.217 A  
HETATM   27  C   UNL     1     -10.062  11.062  68.993  1.00  0.00    -0.197 A  
HETATM   28  C   UNL     1     -12.144  10.066  70.533  1.00  0.00    -0.251 A  
HETATM   29  C   UNL     1     -11.120  11.923  69.384  1.00  0.00    -0.153 A  
HETATM   30  C   UNL     1     -11.126   9.241  70.051  1.00  0.00    -0.228 A  
HETATM   31  C   UNL     1     -12.141  11.441  70.233  1.00  0.00    -0.374 A  
BRANCH  28  32
HETATM   32  O   UNL     1     -13.137   9.514  71.305  1.00  0.00    -0.345 OA 
HETATM   33  C   UNL     1     -12.776   8.298  71.971  1.00  0.00    -0.342 C  
ENDBRANCH  28  32
BRANCH  31  34
HETATM   34  O   UNL     1     -13.034  12.359  70.714  1.00  0.00    -0.071 OA 
HETATM   35  C   UNL     1     -12.553  13.576  71.270  1.00  0.00    -0.341 C  
ENDBRANCH  31  34
BRANCH  29  36
HETATM   36  O   UNL     1     -10.957  13.198  68.881  1.00  0.00    -0.242 OA 
HETATM   37  C   UNL     1      -9.915  14.020  69.402  1.00  0.00     0.324 C  
ENDBRANCH  29  36
ENDBRANCH  24  26
ENDBRANCH  23  24
ENDBRANCH   3  23
BRANCH   5  38
HETATM   38  O   UNL     1      -5.672   5.880  67.638  1.00  0.00    -0.011 OA 
HETATM   39  C   UNL     1      -5.424   4.726  68.425  1.00  0.00    -0.015 C  
ENDBRANCH   5  38
BRANCH   7  40
HETATM   40  C   UNL     1      -8.908   5.822  66.063  1.00  0.00    -0.148 C  
HETATM   41  O   UNL     1      -9.972   6.194  66.542  1.00  0.00    -0.165 OA 
BRANCH  40  42
HETATM   42  O   UNL     1      -8.729   4.654  65.396  1.00  0.00    -0.124 OA 
HETATM   43  C   UNL     1      -9.837   4.197  64.623  1.00  0.00    -0.178 C  
ENDBRANCH  40  42
ENDBRANCH   7  40
BRANCH  15  44
HETATM   44  O   UNL     1     -13.771  15.289  63.557  1.00  0.00     2.011 OA 
HETATM   45  C   UNL     1     -14.351  16.277  64.397  1.00  0.00     6.208 C  
ENDBRANCH  15  44
TORSDOF 10
ENDMDL
MODEL      146
REMARK 921   NORMALIZED FREE ENERGY PREDICTED BY IDOCK:    4.11 KCAL/MOL
REMARK 922        TOTAL FREE ENERGY PREDICTED BY IDOCK:    3.75 KCAL/MOL
REMARK 923 INTER-LIGAND FREE ENERGY PREDICTED BY IDOCK:    4.46 KCAL/MOL
REMARK 924 INTRA-LIGAND FREE ENERGY PREDICTED BY IDOCK:   -0.71 KCAL/MOL
REMARK 927      BINDING AFFINITY PREDICTED BY RF-SCORE:    0.00 PKD
ROOT
HETATM    1  C   UNL     1      -9.507  10.162  71.154  1.00  0.00     1.666 C  
HETATM    2  C   UNL     1      -9.599  11.542  70.494  1.00  0.00     4.101 C  
HETATM    3  C   UNL     1     -10.813  11.746  69.535  1.00  0.00     0.008 C  
HETATM    4  C   UNL     1      -6.631   7.791  68.476  1.00  0.00    -0.057 C  
HETATM    5  C   UNL     1     -12.008  11.848  70.482  1.00  0.00    -0.267 C  
HETATM    6  C   UNL     1      -8.298   9.429  70.559  1.00  0.00    -0.197 C  
HETATM    7  C   UNL     1     -12.127  10.432  71.152  1.00  0.00    -0.487 C  
HETATM    8  C   UNL     1      -7.342   9.147  68.319  1.00  0.00    -0.079 C  
HETATM    9  C   UNL     1      -7.646   6.716  68.292  1.00  0.00    -0.104 A  
HETATM   10  C   UNL     1     -10.849   9.417  71.052  1.00  0.00    -0.406 C  
HETATM   11  C   UNL     1      -8.973   3.597  67.063  1.00  0.00    -0.159 A  
HETATM   12  C   UNL     1      -8.995   6.951  68.501  1.00  0.00    -0.122 A  
HETATM   13  N   UNL     1      -9.661   5.828  68.075  1.00  0.00    -0.119 NA 
HETATM   14  C   UNL     1     -10.722   8.227  70.006  1.00  0.00    -0.239 C  
HETATM   15  C   UNL     1      -7.848   2.850  66.680  1.00  0.00    -0.076 A  
HETATM   16  N   UNL     1      -8.554   9.285  69.144  1.00  0.00    -0.131 NA 
HETATM   17  C   UNL     1      -6.579   3.373  66.847  1.00  0.00    -0.037 A  
HETATM   18  C   UNL     1      -9.612   8.295  68.876  1.00  0.00    -0.153 C  
HETATM   19  C   UNL     1      -6.359   4.652  67.382  1.00  0.00    -0.041 A  
HETATM   20  C   UNL     1      -7.481   5.409  67.789  1.00  0.00    -0.080 A  
HETATM   21  H   UNL     1     -10.674   5.712  68.089  1.00  0.00     0.000 HD 
HETATM   22  C   UNL     1      -8.760   4.873  67.623  1.00  0.00    -0.103 A  
ENDROOT
BRANCH   3  23
HETATM   23  O   UNL     1     -11.125  10.669  68.580  1.00  0.00    -0.226 OA 
BRANCH  23  24
HETATM   24  C   UNL     1     -11.724  11.108  67.441  1.00  0.00     0.059 C  
HETATM   25  O   UNL     1     -12.904  11.438  67.412  1.00  0.00     2.102 OA 
BRANCH  24  26
HETATM   26  C   UNL     1     -10.920  11.226  66.164  1.00  0.00    -0.252 A  
HETATM   27  C   UNL     1     -11.189  11.902  64.977  1.00  0.00    -0.350 A  
HETATM   28  C   UNL     1      -9.049  10.137  65.024  1.00  0.00    -0.205 A  
HETATM   29  C   UNL     1     -10.451  11.661  63.789  1.00  0.00    -0.402 A  
HETATM   30  C   UNL     1      -9.752  10.472  66.184  1.00  0.00    -0.259 A  
HETATM   31  C   UNL     1      -9.411  10.705  63.790  1.00  0.00    -0.290 A  
BRANCH  28  32
HETATM   32  O   UNL     1      -8.009   9.243  65.112  1.00  0.00    -0.109 OA 
HETATM   33  C   UNL     1      -6.755   9.817  65.500  1.00  0.00    -0.090 C  
ENDBRANCH  28  32
BRANCH  31  34
HETATM   34  O   UNL     1      -8.855  10.393  62.579  1.00  0.00    -0.190 OA 
HETATM   35  C   UNL     1      -7.473  10.646  62.360  1.00  0.00    -0.124 C  
ENDBRANCH  31  34
BRANCH  29  36
HETATM   36  O   UNL     1     -10.922  12.413  62.731  1.00  0.00     0.229 OA 
HETATM   37  C   UNL     1     -12.223  12.992  62.817  1.00  0.00     0.748 C  
ENDBRANCH  29  36
ENDBRANCH  24  26
ENDBRANCH  23  24
ENDBRANCH   3  23
BRANCH   5  38
HETATM   38  O   UNL     1     -11.739  12.882  71.454  1.00  0.00     0.803 OA 
HETATM   39  C   UNL     1     -11.775  14.225  70.997  1.00  0.00    -0.140 C  
ENDBRANCH   5  38
BRANCH   7  40
HETATM   40  C   UNL     1     -13.440   9.791  70.744  1.00  0.00    -0.016 C  
HETATM   41  O   UNL     1     -14.059  10.019  69.712  1.00  0.00     1.137 OA 
BRANCH  40  42
HETATM   42  O   UNL     1     -13.863   8.958  71.727  1.00  0.00    -0.393 OA 
HETATM   43  C   UNL     1     -13.972   7.579  71.378  1.00  0.00    -0.356 C  
ENDBRANCH  40  42
ENDBRANCH   7  40
BRANCH  15  44
HETATM   44  O   UNL     1      -7.863   1.594  66.133  1.00  0.00    -0.068 OA 
HETATM   45  C   UNL     1      -7.664   1.495  64.730  1.00  0.00    -0.063 C  
ENDBRANCH  15  44
TORSDOF 10
ENDMDL
MODEL      147
REMARK 921   NORMALIZED FREE ENERGY PREDICTED BY IDOCK:    5.17 KCAL/MOL
REMARK 922        TOTAL FREE ENERGY PREDICTED BY IDOCK:    5.44 KCAL/MOL
REMARK 923 INTER-LIGAND FREE ENERGY PREDICTED BY IDOCK:    4.52 KCAL/MOL
REMARK 924 INTRA-LIGAND FREE ENERGY PREDICTED BY IDOCK:    0.92 KCAL/MOL
REMARK 927      BINDING AFFINITY PREDICTED BY RF-SCORE:    0.00 PKD
ROOT
HETATM    1  C   UNL     1      -5.514   9.572  70.611  1.00  0.00    -0.045 C  
HETATM    2  C   UNL     1      -6.810   8.902  71.081  1.00  0.00    -0.085 C  
HETATM    3  C   UNL     1      -7.790   8.471  69.946  1.00  0.00    -0.096 C  
HETATM    4  C   UNL     1      -6.377  14.072  70.890  1.00  0.00     0.061 C  
HETATM    5  C   UNL     1      -7.103   7.261  69.315  1.00  0.00    -0.079 C  
HETATM    6  C   UNL     1      -5.568  11.050  71.019  1.00  0.00    -0.041 C  
HETATM    7  C   UNL     1      -5.792   7.825  68.661  1.00  0.00    -0.031 C  
HETATM    8  C   UNL     1      -7.266  12.819  70.997  1.00  0.00     4.449 C  
HETATM    9  C   UNL     1      -6.013  14.258  69.458  1.00  0.00    -0.106 A  
HETATM   10  C   UNL     1      -5.273   9.308  69.115  1.00  0.00    -0.036 C  
HETATM   11  C   UNL     1      -5.466  16.080  66.396  1.00  0.00     1.512 A  
HETATM   12  C   UNL     1      -6.030  13.199  68.564  1.00  0.00    -0.081 A  
HETATM   13  N   UNL     1      -5.828  13.735  67.316  1.00  0.00    -0.336 NA 
HETATM   14  C   UNL     1      -5.520  10.642  68.288  1.00  0.00    -0.036 C  
HETATM   15  C   UNL     1      -5.337  17.421  66.790  1.00  0.00    -0.174 A  
HETATM   16  N   UNL     1      -6.702  11.630  70.336  1.00  0.00     0.084 NA 
HETATM   17  C   UNL     1      -5.409  17.760  68.129  1.00  0.00    -0.149 A  
HETATM   18  C   UNL     1      -6.457  11.772  68.890  1.00  0.00    -0.076 C  
HETATM   19  C   UNL     1      -5.624  16.805  69.134  1.00  0.00    -0.144 A  
HETATM   20  C   UNL     1      -5.738  15.448  68.754  1.00  0.00    -0.092 A  
HETATM   21  H   UNL     1      -5.806  13.199  66.449  1.00  0.00     0.000 HD 
HETATM   22  C   UNL     1      -5.658  15.111  67.401  1.00  0.00     0.240 A  
ENDROOT
BRANCH   3  23
HETATM   23  O   UNL     1      -8.043   9.427  68.854  1.00  0.00    -0.099 OA 
BRANCH  23  24
HETATM   24  C   UNL     1      -9.107   9.095  68.075  1.00  0.00    -0.131 C  
HETATM   25  O   UNL     1     -10.240   9.496  68.317  1.00  0.00    -0.177 OA 
BRANCH  24  26
HETATM   26  C   UNL     1      -8.904   8.229  66.851  1.00  0.00    -0.155 A  
HETATM   27  C   UNL     1      -8.576   8.565  65.541  1.00  0.00    -0.204 A  
HETATM   28  C   UNL     1      -9.389   5.965  66.062  1.00  0.00    -0.097 A  
HETATM   29  C   UNL     1      -8.712   7.644  64.470  1.00  0.00     0.407 A  
HETATM   30  C   UNL     1      -9.158   6.882  67.089  1.00  0.00    -0.137 A  
HETATM   31  C   UNL     1      -9.201   6.343  64.720  1.00  0.00     0.884 A  
BRANCH  28  32
HETATM   32  O   UNL     1      -9.807   4.696  66.386  1.00  0.00    -0.181 OA 
HETATM   33  C   UNL     1      -8.777   3.834  66.887  1.00  0.00    -0.114 C  
ENDBRANCH  28  32
BRANCH  31  34
HETATM   34  O   UNL     1      -9.473   5.562  63.630  1.00  0.00     0.616 OA 
HETATM   35  C   UNL     1      -8.411   4.878  62.978  1.00  0.00    -0.115 C  
ENDBRANCH  31  34
BRANCH  29  36
HETATM   36  O   UNL     1      -8.367   8.211  63.259  1.00  0.00    -0.118 OA 
HETATM   37  C   UNL     1      -7.016   8.122  62.811  1.00  0.00    -0.087 C  
ENDBRANCH  29  36
ENDBRANCH  24  26
ENDBRANCH  23  24
ENDBRANCH   3  23
BRANCH   5  38
HETATM   38  O   UNL     1      -6.816   6.299  70.354  1.00  0.00    -0.051 OA 
HETATM   39  C   UNL     1      -6.368   5.017  69.943  1.00  0.00    -0.030 C  
ENDBRANCH   5  38
BRANCH   7  40
HETATM   40  C   UNL     1      -5.863   7.646  67.155  1.00  0.00    -0.040 C  
HETATM   41  O   UNL     1      -6.163   8.513  66.344  1.00  0.00    -0.055 OA 
BRANCH  40  42
HETATM   42  O   UNL     1      -5.597   6.354  66.838  1.00  0.00    -0.012 OA 
HETATM   43  C   UNL     1      -5.683   6.017  65.455  1.00  0.00    -0.024 C  
ENDBRANCH  40  42
ENDBRANCH   7  40
BRANCH  15  44
HETATM   44  O   UNL     1      -5.135  18.490  65.956  1.00  0.00    -0.133 OA 
HETATM   45  C   UNL     1      -5.258  19.786  66.523  1.00  0.00    -0.162 C  
ENDBRANCH  15  44
TORSDOF 10
ENDMDL
MODEL      148
REMARK 921   NORMALIZED FREE ENERGY PREDICTED BY IDOCK:    5.70 KCAL/MOL
REMARK 922        TOTAL FREE ENERGY PREDICTED BY IDOCK:    6.28 KCAL/MOL
REMARK 923 INTER-LIGAND FREE ENERGY PREDICTED BY IDOCK:    0.86 KCAL/MOL
REMARK 924 INTRA-LIGAND FREE ENERGY PREDICTED BY IDOCK:    5.42 KCAL/MOL
REMARK 927      BINDING AFFINITY PREDICTED BY RF-SCORE:    0.00 PKD
ROOT
HETATM    1  C   UNL     1      -7.669  13.625  66.326  1.00  0.00     2.003 C  
HETATM    2  C   UNL     1      -9.061  14.108  65.906  1.00  0.00     0.262 C  
HETATM    3  C   UNL     1     -10.115  14.189  67.054  1.00  0.00    -0.261 C  
HETATM    4  C   UNL     1      -7.682   9.129  65.405  1.00  0.00    -0.098 C  
HETATM    5  C   UNL     1      -9.671  15.404  67.868  1.00  0.00    -0.207 C  
HETATM    6  C   UNL     1      -7.444  12.234  65.718  1.00  0.00     2.017 C  
HETATM    7  C   UNL     1      -8.283  15.001  68.486  1.00  0.00    -0.151 C  
HETATM    8  C   UNL     1      -8.786  10.201  65.439  1.00  0.00    -0.161 C  
HETATM    9  C   UNL     1      -7.303   8.812  66.810  1.00  0.00    -0.082 A  
HETATM   10  C   UNL     1      -7.495  13.716  67.852  1.00  0.00    -0.158 C  
HETATM   11  C   UNL     1      -6.458   6.707  69.613  1.00  0.00    -0.044 A  
HETATM   12  C   UNL     1      -7.524   9.713  67.839  1.00  0.00    -0.083 A  
HETATM   13  N   UNL     1      -7.239   9.053  69.009  1.00  0.00    -0.071 NA 
HETATM   14  C   UNL     1      -7.499  12.256  68.479  1.00  0.00    -0.113 C  
HETATM   15  C   UNL     1      -6.079   5.481  69.044  1.00  0.00    -0.025 A  
HETATM   16  N   UNL     1      -8.458  11.368  66.275  1.00  0.00    -0.167 NA 
HETATM   17  C   UNL     1      -6.074   5.326  67.669  1.00  0.00    -0.030 A  
HETATM   18  C   UNL     1      -8.204  11.071  67.696  1.00  0.00    -0.117 C  
HETATM   19  C   UNL     1      -6.452   6.359  66.797  1.00  0.00    -0.046 A  
HETATM   20  C   UNL     1      -6.819   7.605  67.355  1.00  0.00    -0.069 A  
HETATM   21  H   UNL     1      -7.324   9.457  69.941  1.00  0.00     0.000 HD 
HETATM   22  C   UNL     1      -6.816   7.757  68.742  1.00  0.00    -0.059 A  
ENDROOT
BRANCH   3  23
HETATM   23  O   UNL     1     -10.198  13.059  67.996  1.00  0.00    -0.220 OA 
BRANCH  23  24
HETATM   24  C   UNL     1     -11.419  12.923  68.577  1.00  0.00    -0.310 C  
HETATM   25  O   UNL     1     -12.257  13.816  68.547  1.00  0.00    -0.348 OA 
BRANCH  24  26
HETATM   26  C   UNL     1     -11.786  11.625  69.265  1.00  0.00    -0.396 A  
HETATM   27  C   UNL     1     -12.261  11.377  70.550  1.00  0.00    -0.478 A  
HETATM   28  C   UNL     1     -11.450   9.215  69.012  1.00  0.00     0.517 A  
HETATM   29  C   UNL     1     -12.274  10.073  71.109  1.00  0.00    -0.380 A  
HETATM   30  C   UNL     1     -11.536  10.504  68.481  1.00  0.00    -0.284 A  
HETATM   31  C   UNL     1     -11.789   8.981  70.357  1.00  0.00     0.011 A  
BRANCH  28  32
HETATM   32  O   UNL     1     -11.025   8.190  68.202  1.00  0.00     0.013 OA 
HETATM   33  C   UNL     1      -9.954   7.404  68.738  1.00  0.00    -0.169 C  
ENDBRANCH  28  32
BRANCH  31  34
HETATM   34  O   UNL     1     -11.666   7.784  71.008  1.00  0.00    -0.284 OA 
HETATM   35  C   UNL     1     -12.303   6.630  70.475  1.00  0.00    -0.023 C  
ENDBRANCH  31  34
BRANCH  29  36
HETATM   36  O   UNL     1     -12.748  10.076  72.406  1.00  0.00    -0.253 OA 
HETATM   37  C   UNL     1     -13.436   8.927  72.895  1.00  0.00    -0.009 C  
ENDBRANCH  29  36
ENDBRANCH  24  26
ENDBRANCH  23  24
ENDBRANCH   3  23
BRANCH   5  38
HETATM   38  O   UNL     1      -9.556  16.537  66.981  1.00  0.00    -0.233 OA 
HETATM   39  C   UNL     1     -10.387  17.656  67.250  1.00  0.00    -0.354 C  
ENDBRANCH   5  38
BRANCH   7  40
HETATM   40  C   UNL     1      -8.401  14.950  69.998  1.00  0.00     0.490 C  
HETATM   41  O   UNL     1      -7.583  14.457  70.764  1.00  0.00     1.082 OA 
BRANCH  40  42
HETATM   42  O   UNL     1      -9.586  15.489  70.379  1.00  0.00     0.117 OA 
HETATM   43  C   UNL     1     -10.747  14.701  70.118  1.00  0.00     0.059 C  
ENDBRANCH  40  42
ENDBRANCH   7  40
BRANCH  15  44
HETATM   44  O   UNL     1      -5.690   4.361  69.730  1.00  0.00    -0.015 OA 
HETATM   45  C   UNL     1      -5.309   3.229  68.962  1.00  0.00    -0.012 C  
ENDBRANCH  15  44
TORSDOF 10
ENDMDL
MODEL      149
REMARK 921   NORMALIZED FREE ENERGY PREDICTED BY IDOCK:    6.10 KCAL/MOL
REMARK 922        TOTAL FREE ENERGY PREDICTED BY IDOCK:    6.91 KCAL/MOL
REMARK 923 INTER-LIGAND FREE ENERGY PREDICTED BY IDOCK:    2.64 KCAL/MOL
REMARK 924 INTRA-LIGAND FREE ENERGY PREDICTED BY IDOCK:    4.26 KCAL/MOL
REMARK 927      BINDING AFFINITY PREDICTED BY RF-SCORE:    0.00 PKD
ROOT
HETATM    1  C   UNL     1     -10.942  10.907  65.593  1.00  0.00    -0.032 C  
HETATM    2  C   UNL     1      -9.742   9.958  65.529  1.00  0.00    -0.370 C  
HETATM    3  C   UNL     1      -9.129   9.561  66.908  1.00  0.00    -0.135 C  
HETATM    4  C   UNL     1      -9.144  15.084  64.973  1.00  0.00     1.835 C  
HETATM    5  C   UNL     1     -10.163   8.606  67.503  1.00  0.00    -0.245 C  
HETATM    6  C   UNL     1     -10.506  12.266  65.030  1.00  0.00    -0.290 C  
HETATM    7  C   UNL     1     -11.440   9.486  67.754  1.00  0.00     0.754 C  
HETATM    8  C   UNL     1      -8.527  13.699  65.236  1.00  0.00     3.353 C  
HETATM    9  C   UNL     1      -9.754  15.565  66.244  1.00  0.00    -0.328 A  
HETATM   10  C   UNL     1     -11.540  10.939  67.011  1.00  0.00     0.242 C  
HETATM   11  C   UNL     1     -10.547  17.937  68.842  1.00  0.00    -0.020 A  
HETATM   12  C   UNL     1     -10.139  14.682  67.240  1.00  0.00    -0.236 A  
HETATM   13  N   UNL     1     -10.485  15.445  68.330  1.00  0.00    -0.237 NA 
HETATM   14  C   UNL     1     -11.204  12.331  67.701  1.00  0.00    -0.346 C  
HETATM   15  C   UNL     1     -10.315  19.196  68.266  1.00  0.00    -0.361 A  
HETATM   16  N   UNL     1      -9.446  12.749  65.885  1.00  0.00    -0.135 NA 
HETATM   17  C   UNL     1      -9.898  19.290  66.951  1.00  0.00    -0.424 A  
HETATM   18  C   UNL     1      -9.954  13.169  67.203  1.00  0.00    -0.236 C  
HETATM   19  C   UNL     1      -9.677  18.159  66.150  1.00  0.00    -0.217 A  
HETATM   20  C   UNL     1      -9.922  16.885  66.712  1.00  0.00    -0.291 A  
HETATM   21  H   UNL     1     -10.796  15.071  69.226  1.00  0.00     0.000 HD 
HETATM   22  C   UNL     1     -10.350  16.795  68.037  1.00  0.00    -0.317 A  
ENDROOT
BRANCH   3  23
HETATM   23  O   UNL     1      -8.920  10.628  67.903  1.00  0.00    -0.135 OA 
BRANCH  23  24
HETATM   24  C   UNL     1      -8.314  10.200  69.042  1.00  0.00    -0.138 C  
HETATM   25  O   UNL     1      -7.992  10.973  69.937  1.00  0.00     0.264 OA 
BRANCH  24  26
HETATM   26  C   UNL     1      -8.043   8.725  69.244  1.00  0.00    -0.110 A  
HETATM   27  C   UNL     1      -8.589   7.605  68.624  1.00  0.00    -0.129 A  
HETATM   28  C   UNL     1      -7.016   7.219  70.876  1.00  0.00    -0.056 A  
HETATM   29  C   UNL     1      -8.421   6.297  69.147  1.00  0.00    -0.120 A  
HETATM   30  C   UNL     1      -7.142   8.473  70.273  1.00  0.00    -0.043 A  
HETATM   31  C   UNL     1      -7.686   6.106  70.338  1.00  0.00    -0.098 A  
BRANCH  28  32
HETATM   32  O   UNL     1      -6.234   7.098  71.999  1.00  0.00    -0.041 OA 
HETATM   33  C   UNL     1      -5.241   6.067  71.933  1.00  0.00    -0.021 C  
ENDBRANCH  28  32
BRANCH  31  34
HETATM   34  O   UNL     1      -7.705   4.851  70.885  1.00  0.00    -0.074 OA 
HETATM   35  C   UNL     1      -8.520   4.597  72.021  1.00  0.00    -0.118 C  
ENDBRANCH  31  34
BRANCH  29  36
HETATM   36  O   UNL     1      -9.084   5.352  68.389  1.00  0.00    -0.107 OA 
HETATM   37  C   UNL     1      -8.528   4.952  67.138  1.00  0.00    -0.105 C  
ENDBRANCH  29  36
ENDBRANCH  24  26
ENDBRANCH  23  24
ENDBRANCH   3  23
BRANCH   5  38
HETATM   38  O   UNL     1     -10.416   7.549  66.552  1.00  0.00    -0.198 OA 
HETATM   39  C   UNL     1     -11.473   6.651  66.850  1.00  0.00     0.439 C  
ENDBRANCH   5  38
BRANCH   7  40
HETATM   40  C   UNL     1     -11.722   9.550  69.244  1.00  0.00     0.468 C  
HETATM   41  O   UNL     1     -11.682  10.559  69.938  1.00  0.00    -0.261 OA 
BRANCH  40  42
HETATM   42  O   UNL     1     -11.975   8.303  69.712  1.00  0.00     0.538 OA 
HETATM   43  C   UNL     1     -11.148   7.855  70.784  1.00  0.00    -0.256 C  
ENDBRANCH  40  42
ENDBRANCH   7  40
BRANCH  15  44
HETATM   44  O   UNL     1     -10.466  20.406  68.890  1.00  0.00    -0.210 OA 
HETATM   45  C   UNL     1     -10.464  20.409  70.310  1.00  0.00     1.192 C  
ENDBRANCH  15  44
TORSDOF 10
ENDMDL
MODEL      150
REMARK 921   NORMALIZED FREE ENERGY PREDICTED BY IDOCK:    7.64 KCAL/MOL
REMARK 922        TOTAL FREE ENERGY PREDICTED BY IDOCK:    9.35 KCAL/MOL
REMARK 923 INTER-LIGAND FREE ENERGY PREDICTED BY IDOCK:    3.45 KCAL/MOL
REMARK 924 INTRA-LIGAND FREE ENERGY PREDICTED BY IDOCK:    5.90 KCAL/MOL
REMARK 927      BINDING AFFINITY PREDICTED BY RF-SCORE:    0.00 PKD
ROOT
HETATM    1  C   UNL     1     -10.181  16.085  68.245  1.00  0.00    -0.237 C  
HETATM    2  C   UNL     1      -9.678  16.757  66.964  1.00  0.00    -0.254 C  
HETATM    3  C   UNL     1      -9.637  15.842  65.700  1.00  0.00    -0.231 C  
HETATM    4  C   UNL     1      -6.366  14.773  70.434  1.00  0.00    -0.135 C  
HETATM    5  C   UNL     1     -11.109  15.676  65.326  1.00  0.00    -0.303 C  
HETATM    6  C   UNL     1      -8.996  15.951  69.210  1.00  0.00    -0.251 C  
HETATM    7  C   UNL     1     -11.747  14.867  66.513  1.00  0.00    -0.204 C  
HETATM    8  C   UNL     1      -6.637  15.309  69.016  1.00  0.00    -0.118 C  
HETATM    9  C   UNL     1      -6.852  13.367  70.495  1.00  0.00     0.996 A  
HETATM   10  C   UNL     1     -10.922  14.776  67.922  1.00  0.00    -0.282 C  
HETATM   11  C   UNL     1      -6.736   9.861  71.331  1.00  0.00     0.396 A  
HETATM   12  C   UNL     1      -7.824  12.899  69.626  1.00  0.00     1.246 A  
HETATM   13  N   UNL     1      -7.909  11.542  69.823  1.00  0.00     0.049 NA 
HETATM   14  C   UNL     1     -10.036  13.535  68.369  1.00  0.00    -0.240 C  
HETATM   15  C   UNL     1      -5.771   9.763  72.346  1.00  0.00     0.243 A  
HETATM   16  N   UNL     1      -8.022  15.106  68.557  1.00  0.00    -0.135 NA 
HETATM   17  C   UNL     1      -5.130  10.899  72.807  1.00  0.00     0.314 A  
HETATM   18  C   UNL     1      -8.465  13.702  68.498  1.00  0.00    -0.106 C  
HETATM   19  C   UNL     1      -5.398  12.174  72.286  1.00  0.00     0.506 A  
HETATM   20  C   UNL     1      -6.380  12.291  71.276  1.00  0.00     1.849 A  
HETATM   21  H   UNL     1      -8.531  10.918  69.311  1.00  0.00     0.000 HD 
HETATM   22  C   UNL     1      -7.028  11.142  70.819  1.00  0.00     1.569 A  
ENDROOT
BRANCH   3  23
HETATM   23  O   UNL     1      -9.085  14.485  65.849  1.00  0.00    -0.081 OA 
BRANCH  23  24
HETATM   24  C   UNL     1      -9.540  13.606  64.917  1.00  0.00     0.406 C  
HETATM   25  O   UNL     1     -10.177  13.971  63.936  1.00  0.00     0.403 OA 
BRANCH  24  26
HETATM   26  C   UNL     1      -9.237  12.130  65.061  1.00  0.00     0.335 A  
HETATM   27  C   UNL     1      -8.599  11.426  66.078  1.00  0.00    -0.094 A  
HETATM   28  C   UNL     1      -9.122  10.103  63.696  1.00  0.00    -0.260 A  
HETATM   29  C   UNL     1      -8.153  10.090  65.904  1.00  0.00    -0.126 A  
HETATM   30  C   UNL     1      -9.613  11.386  63.948  1.00  0.00    -0.238 A  
HETATM   31  C   UNL     1      -8.348   9.440  64.665  1.00  0.00    -0.157 A  
BRANCH  28  32
HETATM   32  O   UNL     1      -9.403   9.510  62.489  1.00  0.00    -0.227 OA 
HETATM   33  C   UNL     1      -8.944   8.158  62.363  1.00  0.00     0.409 C  
ENDBRANCH  28  32
BRANCH  31  34
HETATM   34  O   UNL     1      -7.746   8.222  64.502  1.00  0.00    -0.107 OA 
HETATM   35  C   UNL     1      -8.271   7.087  65.177  1.00  0.00    -0.113 C  
ENDBRANCH  31  34
BRANCH  29  36
HETATM   36  O   UNL     1      -7.512   9.612  67.030  1.00  0.00    -0.091 OA 
HETATM   37  C   UNL     1      -6.093   9.715  67.116  1.00  0.00    -0.063 C  
ENDBRANCH  29  36
ENDBRANCH  24  26
ENDBRANCH  23  24
ENDBRANCH   3  23
BRANCH   5  38
HETATM   38  O   UNL     1     -11.702  16.985  65.188  1.00  0.00     0.518 OA 
HETATM   39  C   UNL     1     -10.850  18.104  65.378  1.00  0.00     0.288 C  
ENDBRANCH   5  38
BRANCH   7  40
HETATM   40  C   UNL     1     -12.224  13.519  66.005  1.00  0.00    -0.445 C  
HETATM   41  O   UNL     1     -12.215  12.471  66.638  1.00  0.00    -0.552 OA 
BRANCH  40  42
HETATM   42  O   UNL     1     -12.615  13.634  64.711  1.00  0.00    -0.590 OA 
HETATM   43  C   UNL     1     -12.677  12.420  63.964  1.00  0.00    -0.349 C  
ENDBRANCH  40  42
ENDBRANCH   7  40
BRANCH  15  44
HETATM   44  O   UNL     1      -5.370   8.609  72.967  1.00  0.00    -0.049 OA 
HETATM   45  C   UNL     1      -5.735   7.382  72.352  1.00  0.00    -0.037 C  
ENDBRANCH  15  44
TORSDOF 10
ENDMDL
MODEL      151
REMARK 921   NORMALIZED FREE ENERGY PREDICTED BY IDOCK:    7.93 KCAL/MOL
REMARK 922        TOTAL FREE ENERGY PREDICTED BY IDOCK:    9.81 KCAL/MOL
REMARK 923 INTER-LIGAND FREE ENERGY PREDICTED BY IDOCK:    8.77 KCAL/MOL
REMARK 924 INTRA-LIGAND FREE ENERGY PREDICTED BY IDOCK:    1.03 KCAL/MOL
REMARK 927      BINDING AFFINITY PREDICTED BY RF-SCORE:    0.00 PKD
ROOT
HETATM    1  C   UNL     1      -6.431  14.677  68.229  1.00  0.00    -0.121 C  
HETATM    2  C   UNL     1      -7.399  15.427  69.149  1.00  0.00    -0.175 C  
HETATM    3  C   UNL     1      -7.963  14.598  70.345  1.00  0.00     1.192 C  
HETATM    4  C   UNL     1      -9.054  13.179  64.773  1.00  0.00     1.515 C  
HETATM    5  C   UNL     1      -6.771  14.474  71.293  1.00  0.00     0.864 C  
HETATM    6  C   UNL     1      -7.126  14.466  66.877  1.00  0.00     0.870 C  
HETATM    7  C   UNL     1      -5.721  13.596  70.522  1.00  0.00    -0.167 C  
HETATM    8  C   UNL     1      -9.371  13.811  66.140  1.00  0.00    -0.080 C  
HETATM    9  C   UNL     1      -8.607  11.777  65.006  1.00  0.00     0.716 A  
HETATM   10  C   UNL     1      -5.906  13.401  68.909  1.00  0.00    -0.076 C  
HETATM   11  C   UNL     1      -8.433   8.223  64.426  1.00  0.00    -0.022 A  
HETATM   12  C   UNL     1      -8.079  11.380  66.223  1.00  0.00    -0.064 A  
HETATM   13  N   UNL     1      -7.944  10.014  66.166  1.00  0.00    -0.109 NA 
HETATM   14  C   UNL     1      -6.555  12.123  68.223  1.00  0.00    -0.056 C  
HETATM   15  C   UNL     1      -8.906   8.046  63.116  1.00  0.00     0.652 A  
HETATM   16  N   UNL     1      -8.295  13.655  67.133  1.00  0.00    -0.171 NA 
HETATM   17  C   UNL     1      -9.286   9.141  62.362  1.00  0.00     0.113 A  
HETATM   18  C   UNL     1      -7.936  12.264  67.458  1.00  0.00    -0.166 C  
HETATM   19  C   UNL     1      -9.232  10.451  62.862  1.00  0.00    -0.319 A  
HETATM   20  C   UNL     1      -8.741  10.647  64.173  1.00  0.00    -0.137 A  
HETATM   21  H   UNL     1      -7.593   9.432  66.926  1.00  0.00     0.000 HD 
HETATM   22  C   UNL     1      -8.352   9.538  64.927  1.00  0.00    -0.146 A  
ENDROOT
BRANCH   3  23
HETATM   23  O   UNL     1      -8.430  13.228  70.074  1.00  0.00     2.182 OA 
BRANCH  23  24
HETATM   24  C   UNL     1      -9.758  13.149  69.795  1.00  0.00     1.925 C  
HETATM   25  O   UNL     1     -10.364  14.069  69.257  1.00  0.00    -0.115 OA 
BRANCH  24  26
HETATM   26  C   UNL     1     -10.525  11.888  70.125  1.00  0.00     1.554 A  
HETATM   27  C   UNL     1     -11.664  11.690  70.900  1.00  0.00     0.258 A  
HETATM   28  C   UNL     1     -10.240   9.458  70.072  1.00  0.00    -0.229 A  
HETATM   29  C   UNL     1     -12.070  10.400  71.329  1.00  0.00    -0.362 A  
HETATM   30  C   UNL     1      -9.933  10.740  69.609  1.00  0.00    -0.005 A  
HETATM   31  C   UNL     1     -11.302   9.268  70.974  1.00  0.00    -0.320 A  
BRANCH  28  32
HETATM   32  O   UNL     1      -9.485   8.396  69.635  1.00  0.00    -0.164 OA 
HETATM   33  C   UNL     1      -9.676   8.048  68.258  1.00  0.00    -0.164 C  
ENDBRANCH  28  32
BRANCH  31  34
HETATM   34  O   UNL     1     -11.643   8.079  71.558  1.00  0.00    -0.260 OA 
HETATM   35  C   UNL     1     -11.196   7.794  72.877  1.00  0.00    -0.376 C  
ENDBRANCH  31  34
BRANCH  29  36
HETATM   36  O   UNL     1     -13.201  10.453  72.118  1.00  0.00    -0.452 OA 
HETATM   37  C   UNL     1     -13.858  11.705  72.304  1.00  0.00     0.396 C  
ENDBRANCH  29  36
ENDBRANCH  24  26
ENDBRANCH  23  24
ENDBRANCH   3  23
BRANCH   5  38
HETATM   38  O   UNL     1      -6.264  15.797  71.574  1.00  0.00     0.915 OA 
HETATM   39  C   UNL     1      -5.198  16.266  70.764  1.00  0.00    -0.168 C  
ENDBRANCH   5  38
BRANCH   7  40
HETATM   40  C   UNL     1      -5.513  12.290  71.267  1.00  0.00     0.005 C  
HETATM   41  O   UNL     1      -5.322  12.175  72.472  1.00  0.00    -0.235 OA 
BRANCH  40  42
HETATM   42  O   UNL     1      -5.513  11.259  70.385  1.00  0.00    -0.093 OA 
HETATM   43  C   UNL     1      -6.143  10.057  70.825  1.00  0.00    -0.092 C  
ENDBRANCH  40  42
ENDBRANCH   7  40
BRANCH  15  44
HETATM   44  O   UNL     1      -9.039   6.848  62.463  1.00  0.00     0.563 OA 
HETATM   45  C   UNL     1      -7.980   5.913  62.603  1.00  0.00    -0.099 C  
ENDBRANCH  15  44
TORSDOF 10
ENDMDL
MODEL      152
REMARK 921   NORMALIZED FREE ENERGY PREDICTED BY IDOCK:    8.12 KCAL/MOL
REMARK 922        TOTAL FREE ENERGY PREDICTED BY IDOCK:   10.11 KCAL/MOL
REMARK 923 INTER-LIGAND FREE ENERGY PREDICTED BY IDOCK:    9.21 KCAL/MOL
REMARK 924 INTRA-LIGAND FREE ENERGY PREDICTED BY IDOCK:    0.90 KCAL/MOL
REMARK 927      BINDING AFFINITY PREDICTED BY RF-SCORE:    0.00 PKD
ROOT
HETATM    1  C   UNL     1     -12.641  10.683  68.757  1.00  0.00     1.087 C  
HETATM    2  C   UNL     1     -12.272   9.336  68.127  1.00  0.00     4.054 C  
HETATM    3  C   UNL     1     -11.004   8.646  68.720  1.00  0.00     0.150 C  
HETATM    4  C   UNL     1     -10.754  13.811  65.978  1.00  0.00    -0.284 C  
HETATM    5  C   UNL     1     -11.466   8.156  70.091  1.00  0.00     0.006 C  
HETATM    6  C   UNL     1     -12.385  11.781  67.717  1.00  0.00     0.838 C  
HETATM    7  C   UNL     1     -11.762   9.459  70.916  1.00  0.00    -0.378 C  
HETATM    8  C   UNL     1     -10.621  12.281  66.089  1.00  0.00    -0.249 C  
HETATM    9  C   UNL     1     -10.019  14.421  67.120  1.00  0.00    -0.253 A  
HETATM   10  C   UNL     1     -11.927  10.870  70.107  1.00  0.00    -0.435 C  
HETATM   11  C   UNL     1      -7.819  16.755  68.768  1.00  0.00    -0.243 A  
HETATM   12  C   UNL     1      -9.776  13.712  68.285  1.00  0.00    -0.231 A  
HETATM   13  N   UNL     1      -8.932  14.484  69.047  1.00  0.00    -0.360 NA 
HETATM   14  C   UNL     1     -10.786  11.966  69.961  1.00  0.00     0.784 C  
HETATM   15  C   UNL     1      -7.724  17.846  67.889  1.00  0.00    -0.224 A  
HETATM   16  N   UNL     1     -10.972  11.746  67.415  1.00  0.00    -0.246 NA 
HETATM   17  C   UNL     1      -8.429  17.841  66.700  1.00  0.00    -0.283 A  
HETATM   18  C   UNL     1     -10.160  12.257  68.533  1.00  0.00    -0.187 C  
HETATM   19  C   UNL     1      -9.244  16.765  66.314  1.00  0.00    -0.313 A  
HETATM   20  C   UNL     1      -9.363  15.668  67.197  1.00  0.00    -0.229 A  
HETATM   21  H   UNL     1      -8.563  14.216  69.959  1.00  0.00     0.000 HD 
HETATM   22  C   UNL     1      -8.655  15.681  68.400  1.00  0.00    -0.173 A  
ENDROOT
BRANCH   3  23
HETATM   23  O   UNL     1      -9.810   9.478  68.950  1.00  0.00    -0.165 OA 
BRANCH  23  24
HETATM   24  C   UNL     1      -8.780   8.806  69.528  1.00  0.00    -0.138 C  
HETATM   25  O   UNL     1      -8.102   9.299  70.423  1.00  0.00    -0.125 OA 
BRANCH  24  26
HETATM   26  C   UNL     1      -8.460   7.394  69.089  1.00  0.00    -0.133 A  
HETATM   27  C   UNL     1      -9.106   6.551  68.188  1.00  0.00    -0.114 A  
HETATM   28  C   UNL     1      -7.118   5.474  69.797  1.00  0.00    -0.063 A  
HETATM   29  C   UNL     1      -8.825   5.162  68.122  1.00  0.00    -0.102 A  
HETATM   30  C   UNL     1      -7.373   6.847  69.763  1.00  0.00    -0.085 A  
HETATM   31  C   UNL     1      -7.869   4.596  68.995  1.00  0.00    -0.071 A  
BRANCH  28  32
HETATM   32  O   UNL     1      -6.131   5.002  70.628  1.00  0.00    -0.017 OA 
HETATM   33  C   UNL     1      -5.167   5.983  71.034  1.00  0.00    -0.013 C  
ENDBRANCH  28  32
BRANCH  31  34
HETATM   34  O   UNL     1      -7.768   3.231  69.004  1.00  0.00    -0.051 OA 
HETATM   35  C   UNL     1      -7.370   2.568  70.197  1.00  0.00    -0.040 C  
ENDBRANCH  31  34
BRANCH  29  36
HETATM   36  O   UNL     1      -9.614   4.523  67.186  1.00  0.00    -0.160 OA 
HETATM   37  C   UNL     1     -10.641   5.260  66.526  1.00  0.00    -0.285 C  
ENDBRANCH  29  36
ENDBRANCH  24  26
ENDBRANCH  23  24
ENDBRANCH   3  23
BRANCH   5  38
HETATM   38  O   UNL     1     -12.650   7.348  69.918  1.00  0.00     0.704 OA 
HETATM   39  C   UNL     1     -12.700   6.115  70.619  1.00  0.00     1.439 C  
ENDBRANCH   5  38
BRANCH   7  40
HETATM   40  C   UNL     1     -10.798   9.545  72.086  1.00  0.00     0.663 C  
HETATM   41  O   UNL     1     -10.157  10.535  72.416  1.00  0.00     5.237 OA 
BRANCH  40  42
HETATM   42  O   UNL     1     -10.706   8.332  72.687  1.00  0.00    -0.343 OA 
HETATM   43  C   UNL     1     -11.905   7.829  73.273  1.00  0.00     0.646 C  
ENDBRANCH  40  42
ENDBRANCH   7  40
BRANCH  15  44
HETATM   44  O   UNL     1      -6.975  18.976  68.087  1.00  0.00    -0.234 OA 
HETATM   45  C   UNL     1      -5.623  18.941  67.656  1.00  0.00    -0.174 C  
ENDBRANCH  15  44
TORSDOF 10
ENDMDL
MODEL      153
REMARK 921   NORMALIZED FREE ENERGY PREDICTED BY IDOCK:    8.14 KCAL/MOL
REMARK 922        TOTAL FREE ENERGY PREDICTED BY IDOCK:   10.14 KCAL/MOL
REMARK 923 INTER-LIGAND FREE ENERGY PREDICTED BY IDOCK:    8.47 KCAL/MOL
REMARK 924 INTRA-LIGAND FREE ENERGY PREDICTED BY IDOCK:    1.67 KCAL/MOL
REMARK 927      BINDING AFFINITY PREDICTED BY RF-SCORE:    0.00 PKD
ROOT
HETATM    1  C   UNL     1      -5.190   8.099  72.402  1.00  0.00    -0.036 C  
HETATM    2  C   UNL     1      -6.410   7.441  73.053  1.00  0.00    -0.059 C  
HETATM    3  C   UNL     1      -7.533   6.991  72.067  1.00  0.00    -0.090 C  
HETATM    4  C   UNL     1      -6.009  12.605  72.706  1.00  0.00     2.249 C  
HETATM    5  C   UNL     1      -6.936   5.767  71.374  1.00  0.00    -0.071 C  
HETATM    6  C   UNL     1      -5.188   9.585  72.784  1.00  0.00    -0.047 C  
HETATM    7  C   UNL     1      -5.723   6.316  70.540  1.00  0.00    -0.018 C  
HETATM    8  C   UNL     1      -6.875  11.357  72.954  1.00  0.00     7.475 C  
HETATM    9  C   UNL     1      -5.840  12.763  71.235  1.00  0.00     0.332 A  
HETATM   10  C   UNL     1      -5.150   7.806  70.892  1.00  0.00    -0.023 C  
HETATM   11  C   UNL     1      -5.707  14.525  68.092  1.00  0.00    -0.130 A  
HETATM   12  C   UNL     1      -5.975  11.688  70.372  1.00  0.00    -0.131 A  
HETATM   13  N   UNL     1      -5.942  12.199  69.098  1.00  0.00    -0.069 NA 
HETATM   14  C   UNL     1      -5.506   9.124  70.080  1.00  0.00    -0.027 C  
HETATM   15  C   UNL     1      -5.527  15.873  68.440  1.00  0.00    -0.106 A  
HETATM   16  N   UNL     1      -6.404  10.154  72.248  1.00  0.00     0.429 NA 
HETATM   17  C   UNL     1      -5.420  16.238  69.770  1.00  0.00    -0.148 A  
HETATM   18  C   UNL     1      -6.354  10.267  70.780  1.00  0.00    -0.028 C  
HETATM   19  C   UNL     1      -5.498  15.303  70.813  1.00  0.00    -0.111 A  
HETATM   20  C   UNL     1      -5.661  13.939  70.477  1.00  0.00    -0.161 A  
HETATM   21  H   UNL     1      -6.035  11.646  68.247  1.00  0.00     0.000 HD 
HETATM   22  C   UNL     1      -5.762  13.576  69.133  1.00  0.00    -0.078 A  
ENDROOT
BRANCH   3  23
HETATM   23  O   UNL     1      -7.930   7.926  71.001  1.00  0.00    -0.086 OA 
BRANCH  23  24
HETATM   24  C   UNL     1      -9.101   7.596  70.395  1.00  0.00    -0.152 C  
HETATM   25  O   UNL     1     -10.188   7.817  70.918  1.00  0.00    -0.198 OA 
BRANCH  24  26
HETATM   26  C   UNL     1      -9.088   6.962  69.021  1.00  0.00    -0.138 A  
HETATM   27  C   UNL     1      -9.307   7.512  67.761  1.00  0.00    -0.150 A  
HETATM   28  C   UNL     1      -9.187   4.749  67.982  1.00  0.00    -0.123 A  
HETATM   29  C   UNL     1      -9.536   6.706  66.617  1.00  0.00    -0.163 A  
HETATM   30  C   UNL     1      -8.884   5.587  69.059  1.00  0.00    -0.108 A  
HETATM   31  C   UNL     1      -9.554   5.299  66.741  1.00  0.00    -0.148 A  
BRANCH  28  32
HETATM   32  O   UNL     1      -9.124   3.388  68.162  1.00  0.00    -0.125 OA 
HETATM   33  C   UNL     1      -9.628   2.924  69.421  1.00  0.00     0.009 C  
ENDBRANCH  28  32
BRANCH  31  34
HETATM   34  O   UNL     1      -9.950   4.584  65.643  1.00  0.00    -0.198 OA 
HETATM   35  C   UNL     1      -9.527   3.234  65.499  1.00  0.00    -0.107 C  
ENDBRANCH  31  34
BRANCH  29  36
HETATM   36  O   UNL     1      -9.769   7.469  65.490  1.00  0.00     0.526 OA 
HETATM   37  C   UNL     1      -9.442   8.856  65.512  1.00  0.00    -0.092 C  
ENDBRANCH  29  36
ENDBRANCH  24  26
ENDBRANCH  23  24
ENDBRANCH   3  23
BRANCH   5  38
HETATM   38  O   UNL     1      -6.512   4.825  72.384  1.00  0.00    -0.038 OA 
HETATM   39  C   UNL     1      -5.714   3.733  71.956  1.00  0.00    -0.008 C  
ENDBRANCH   5  38
BRANCH   7  40
HETATM   40  C   UNL     1      -5.995   6.108  69.061  1.00  0.00    -0.024 C  
HETATM   41  O   UNL     1      -6.109   5.026  68.498  1.00  0.00    -0.027 OA 
BRANCH  40  42
HETATM   42  O   UNL     1      -6.038   7.310  68.434  1.00  0.00    -0.029 OA 
HETATM   43  C   UNL     1      -5.944   7.279  67.011  1.00  0.00    -0.041 C  
ENDBRANCH  40  42
ENDBRANCH   7  40
BRANCH  15  44
HETATM   44  O   UNL     1      -5.438  16.925  67.566  1.00  0.00    -0.122 OA 
HETATM   45  C   UNL     1      -5.219  16.614  66.198  1.00  0.00     0.862 C  
ENDBRANCH  15  44
TORSDOF 10
ENDMDL
MODEL      154
REMARK 921   NORMALIZED FREE ENERGY PREDICTED BY IDOCK:    8.19 KCAL/MOL
REMARK 922        TOTAL FREE ENERGY PREDICTED BY IDOCK:   10.22 KCAL/MOL
REMARK 923 INTER-LIGAND FREE ENERGY PREDICTED BY IDOCK:    2.23 KCAL/MOL
REMARK 924 INTRA-LIGAND FREE ENERGY PREDICTED BY IDOCK:    7.99 KCAL/MOL
REMARK 927      BINDING AFFINITY PREDICTED BY RF-SCORE:    0.00 PKD
ROOT
HETATM    1  C   UNL     1     -11.448  11.456  65.012  1.00  0.00    -0.011 C  
HETATM    2  C   UNL     1     -10.204  11.599  64.129  1.00  0.00    -0.372 C  
HETATM    3  C   UNL     1      -8.878  11.061  64.750  1.00  0.00    -0.032 C  
HETATM    4  C   UNL     1     -11.845  15.519  67.110  1.00  0.00     0.267 C  
HETATM    5  C   UNL     1      -9.043   9.543  64.695  1.00  0.00    -0.210 C  
HETATM    6  C   UNL     1     -11.878  12.859  65.459  1.00  0.00    -0.411 C  
HETATM    7  C   UNL     1     -10.225   9.221  65.678  1.00  0.00     0.217 C  
HETATM    8  C   UNL     1     -10.735  14.876  66.259  1.00  0.00    -0.320 C  
HETATM    9  C   UNL     1     -11.841  14.860  68.446  1.00  0.00    -0.309 A  
HETATM   10  C   UNL     1     -11.201  10.447  66.146  1.00  0.00     0.487 C  
HETATM   11  C   UNL     1     -11.974  14.680  72.044  1.00  0.00    -0.303 A  
HETATM   12  C   UNL     1     -11.319  13.589  68.623  1.00  0.00    -0.288 A  
HETATM   13  N   UNL     1     -11.302  13.357  69.977  1.00  0.00    -0.497 NA 
HETATM   14  C   UNL     1     -11.080  11.217  67.531  1.00  0.00    -0.346 C  
HETATM   15  C   UNL     1     -12.536  15.902  72.448  1.00  0.00    -0.457 A  
HETATM   16  N   UNL     1     -10.783  13.404  66.229  1.00  0.00    -0.285 NA 
HETATM   17  C   UNL     1     -12.917  16.836  71.502  1.00  0.00     3.376 A  
HETATM   18  C   UNL     1     -10.655  12.745  67.541  1.00  0.00    -0.229 C  
HETATM   19  C   UNL     1     -12.751  16.620  70.125  1.00  0.00     2.906 A  
HETATM   20  C   UNL     1     -12.203  15.387  69.703  1.00  0.00    -0.312 A  
HETATM   21  H   UNL     1     -10.954  12.505  70.417  1.00  0.00     0.000 HD 
HETATM   22  C   UNL     1     -11.827  14.445  70.662  1.00  0.00    -0.295 A  
ENDROOT
BRANCH   3  23
HETATM   23  O   UNL     1      -8.585  11.402  66.152  1.00  0.00    -0.177 OA 
BRANCH  23  24
HETATM   24  C   UNL     1      -7.429  10.857  66.616  1.00  0.00    -0.139 C  
HETATM   25  O   UNL     1      -6.364  10.987  66.023  1.00  0.00    -0.125 OA 
BRANCH  24  26
HETATM   26  C   UNL     1      -7.429  10.084  67.917  1.00  0.00    -0.089 A  
HETATM   27  C   UNL     1      -6.579   9.086  68.384  1.00  0.00    -0.059 A  
HETATM   28  C   UNL     1      -8.917   9.580  69.793  1.00  0.00    -0.200 A  
HETATM   29  C   UNL     1      -6.907   8.280  69.505  1.00  0.00    -0.042 A  
HETATM   30  C   UNL     1      -8.508  10.398  68.737  1.00  0.00    -0.132 A  
HETATM   31  C   UNL     1      -8.133   8.477  70.177  1.00  0.00    -0.111 A  
BRANCH  28  32
HETATM   32  O   UNL     1     -10.095   9.869  70.439  1.00  0.00    -0.267 OA 
HETATM   33  C   UNL     1     -10.780   8.732  70.978  1.00  0.00    -0.229 C  
ENDBRANCH  28  32
BRANCH  31  34
HETATM   34  O   UNL     1      -8.470   7.561  71.136  1.00  0.00    -0.115 OA 
HETATM   35  C   UNL     1      -7.701   7.484  72.330  1.00  0.00    -0.090 C  
ENDBRANCH  31  34
BRANCH  29  36
HETATM   36  O   UNL     1      -5.935   7.332  69.758  1.00  0.00    -0.023 OA 
HETATM   37  C   UNL     1      -5.711   6.298  68.802  1.00  0.00    -0.019 C  
ENDBRANCH  29  36
ENDBRANCH  24  26
ENDBRANCH  23  24
ENDBRANCH   3  23
BRANCH   5  38
HETATM   38  O   UNL     1      -9.352   9.160  63.338  1.00  0.00     0.203 OA 
HETATM   39  C   UNL     1      -8.543   8.153  62.750  1.00  0.00     0.092 C  
ENDBRANCH   5  38
BRANCH   7  40
HETATM   40  C   UNL     1      -9.706   8.388  66.835  1.00  0.00    -0.227 C  
HETATM   41  O   UNL     1      -8.622   8.526  67.388  1.00  0.00    -0.125 OA 
BRANCH  40  42
HETATM   42  O   UNL     1     -10.606   7.419  67.137  1.00  0.00    -0.295 OA 
HETATM   43  C   UNL     1     -10.981   6.555  66.065  1.00  0.00     1.379 C  
ENDBRANCH  40  42
ENDBRANCH   7  40
BRANCH  15  44
HETATM   44  O   UNL     1     -12.765  16.295  73.740  1.00  0.00    -0.526 OA 
HETATM   45  C   UNL     1     -11.627  16.541  74.554  1.00  0.00     0.964 C  
ENDBRANCH  15  44
TORSDOF 10
ENDMDL
MODEL      155
REMARK 921   NORMALIZED FREE ENERGY PREDICTED BY IDOCK:    9.00 KCAL/MOL
REMARK 922        TOTAL FREE ENERGY PREDICTED BY IDOCK:   11.51 KCAL/MOL
REMARK 923 INTER-LIGAND FREE ENERGY PREDICTED BY IDOCK:    7.73 KCAL/MOL
REMARK 924 INTRA-LIGAND FREE ENERGY PREDICTED BY IDOCK:    3.78 KCAL/MOL
REMARK 927      BINDING AFFINITY PREDICTED BY RF-SCORE:    0.00 PKD
ROOT
HETATM    1  C   UNL     1      -5.180  13.866  67.433  1.00  0.00     0.345 C  
HETATM    2  C   UNL     1      -6.117  15.014  67.044  1.00  0.00     0.843 C  
HETATM    3  C   UNL     1      -7.128  15.456  68.147  1.00  0.00    -0.121 C  
HETATM    4  C   UNL     1      -7.227  10.100  65.791  1.00  0.00    -0.128 C  
HETATM    5  C   UNL     1      -6.255  16.188  69.165  1.00  0.00    -0.153 C  
HETATM    6  C   UNL     1      -5.577  12.629  66.616  1.00  0.00     0.998 C  
HETATM    7  C   UNL     1      -5.306  15.087  69.763  1.00  0.00    -0.096 C  
HETATM    8  C   UNL     1      -7.683  11.560  65.957  1.00  0.00     0.252 C  
HETATM    9  C   UNL     1      -7.207   9.468  67.140  1.00  0.00    -0.087 A  
HETATM   10  C   UNL     1      -5.158  13.671  68.959  1.00  0.00    -0.070 C  
HETATM   11  C   UNL     1      -7.789   6.890  69.592  1.00  0.00    -0.119 A  
HETATM   12  C   UNL     1      -7.087  10.227  68.292  1.00  0.00    -0.079 A  
HETATM   13  N   UNL     1      -7.285   9.373  69.349  1.00  0.00    -0.063 NA 
HETATM   14  C   UNL     1      -5.928  12.334  69.339  1.00  0.00    -0.100 C  
HETATM   15  C   UNL     1      -7.977   5.716  68.846  1.00  0.00    -0.097 A  
HETATM   16  N   UNL     1      -6.937  12.306  66.984  1.00  0.00    -0.090 NA 
HETATM   17  C   UNL     1      -7.891   5.750  67.467  1.00  0.00    -0.101 A  
HETATM   18  C   UNL     1      -7.018  11.750  68.346  1.00  0.00    -0.080 C  
HETATM   19  C   UNL     1      -7.631   6.934  66.760  1.00  0.00    -0.090 A  
HETATM   20  C   UNL     1      -7.421   8.121  67.499  1.00  0.00    -0.094 A  
HETATM   21  H   UNL     1      -7.273   9.649  70.331  1.00  0.00     0.000 HD 
HETATM   22  C   UNL     1      -7.503   8.080  68.892  1.00  0.00    -0.093 A  
ENDROOT
BRANCH   3  23
HETATM   23  O   UNL     1      -7.844  14.403  68.888  1.00  0.00    -0.138 OA 
BRANCH  23  24
HETATM   24  C   UNL     1      -9.078  14.128  68.388  1.00  0.00    -0.191 C  
HETATM   25  O   UNL     1      -9.368  14.346  67.216  1.00  0.00    -0.195 OA 
BRANCH  24  26
HETATM   26  C   UNL     1     -10.132  13.508  69.278  1.00  0.00     0.328 A  
HETATM   27  C   UNL     1     -11.081  14.094  70.111  1.00  0.00     0.044 A  
HETATM   28  C   UNL     1     -10.689  11.354  70.296  1.00  0.00     0.890 A  
HETATM   29  C   UNL     1     -11.792  13.347  71.086  1.00  0.00     0.427 A  
HETATM   30  C   UNL     1     -10.079  12.118  69.298  1.00  0.00     0.365 A  
HETATM   31  C   UNL     1     -11.537  11.966  71.236  1.00  0.00     1.591 A  
BRANCH  28  32
HETATM   32  O   UNL     1     -10.441  10.003  70.342  1.00  0.00    -0.281 OA 
HETATM   33  C   UNL     1      -9.804   9.550  71.544  1.00  0.00     0.227 C  
ENDBRANCH  28  32
BRANCH  31  34
HETATM   34  O   UNL     1     -12.123  11.339  72.302  1.00  0.00     1.113 OA 
HETATM   35  C   UNL     1     -12.921  10.183  72.081  1.00  0.00    -0.340 C  
ENDBRANCH  31  34
BRANCH  29  36
HETATM   36  O   UNL     1     -12.647  14.145  71.821  1.00  0.00    -0.332 OA 
HETATM   37  C   UNL     1     -14.046  14.095  71.549  1.00  0.00    -0.268 C  
ENDBRANCH  29  36
ENDBRANCH  24  26
ENDBRANCH  23  24
ENDBRANCH   3  23
BRANCH   5  38
HETATM   38  O   UNL     1      -5.514  17.222  68.480  1.00  0.00    -0.141 OA 
HETATM   39  C   UNL     1      -6.034  18.540  68.544  1.00  0.00    -0.198 C  
ENDBRANCH   5  38
BRANCH   7  40
HETATM   40  C   UNL     1      -5.605  14.914  71.240  1.00  0.00    -0.020 C  
HETATM   41  O   UNL     1      -5.176  15.619  72.146  1.00  0.00    -0.022 OA 
BRANCH  40  42
HETATM   42  O   UNL     1      -6.380  13.816  71.422  1.00  0.00    -0.069 OA 
HETATM   43  C   UNL     1      -7.763  13.964  71.103  1.00  0.00     4.293 C  
ENDBRANCH  40  42
ENDBRANCH   7  40
BRANCH  15  44
HETATM   44  O   UNL     1      -8.249   4.473  69.356  1.00  0.00    -0.068 OA 
HETATM   45  C   UNL     1      -8.119   3.368  68.473  1.00  0.00    -0.065 C  
ENDBRANCH  15  44
TORSDOF 10
ENDMDL
MODEL      156
REMARK 921   NORMALIZED FREE ENERGY PREDICTED BY IDOCK:    9.51 KCAL/MOL
REMARK 922        TOTAL FREE ENERGY PREDICTED BY IDOCK:   12.31 KCAL/MOL
REMARK 923 INTER-LIGAND FREE ENERGY PREDICTED BY IDOCK:    3.67 KCAL/MOL
REMARK 924 INTRA-LIGAND FREE ENERGY PREDICTED BY IDOCK:    8.64 KCAL/MOL
REMARK 927      BINDING AFFINITY PREDICTED BY RF-SCORE:    0.00 PKD
ROOT
HETATM    1  C   UNL     1      -6.268  12.860  67.685  1.00  0.00    -0.157 C  
HETATM    2  C   UNL     1      -6.227  14.067  66.742  1.00  0.00     2.068 C  
HETATM    3  C   UNL     1      -7.601  14.759  66.482  1.00  0.00     1.096 C  
HETATM    4  C   UNL     1      -6.545   9.225  64.896  1.00  0.00    -0.075 C  
HETATM    5  C   UNL     1      -7.895  15.484  67.794  1.00  0.00    -0.143 C  
HETATM    6  C   UNL     1      -5.984  11.599  66.858  1.00  0.00    -0.145 C  
HETATM    7  C   UNL     1      -8.098  14.347  68.858  1.00  0.00    -0.095 C  
HETATM    8  C   UNL     1      -6.676  10.742  64.668  1.00  0.00     0.301 C  
HETATM    9  C   UNL     1      -7.777   8.755  65.587  1.00  0.00    -0.091 A  
HETATM   10  C   UNL     1      -7.577  12.840  68.492  1.00  0.00    -0.120 C  
HETATM   11  C   UNL     1     -10.570   6.572  66.246  1.00  0.00     0.245 A  
HETATM   12  C   UNL     1      -8.565   9.620  66.330  1.00  0.00    -0.127 A  
HETATM   13  N   UNL     1      -9.699   8.924  66.671  1.00  0.00    -0.214 NA 
HETATM   14  C   UNL     1      -8.511  11.665  67.969  1.00  0.00    -0.151 C  
HETATM   15  C   UNL     1     -10.230   5.354  65.636  1.00  0.00     0.204 A  
HETATM   16  N   UNL     1      -7.040  11.498  65.878  1.00  0.00     0.339 NA 
HETATM   17  C   UNL     1      -9.015   5.218  64.989  1.00  0.00    -0.079 A  
HETATM   18  C   UNL     1      -8.324  11.117  66.493  1.00  0.00    -0.166 C  
HETATM   19  C   UNL     1      -8.090   6.270  64.901  1.00  0.00    -0.130 A  
HETATM   20  C   UNL     1      -8.412   7.497  65.525  1.00  0.00    -0.129 A  
HETATM   21  H   UNL     1     -10.476   9.307  67.209  1.00  0.00     0.000 HD 
HETATM   22  C   UNL     1      -9.637   7.626  66.182  1.00  0.00    -0.006 A  
ENDROOT
BRANCH   3  23
HETATM   23  O   UNL     1      -8.765  13.899  66.207  1.00  0.00     0.092 OA 
BRANCH  23  24
HETATM   24  C   UNL     1      -9.933  14.584  66.090  1.00  0.00    -0.311 C  
HETATM   25  O   UNL     1     -10.953  14.062  65.652  1.00  0.00    -0.292 OA 
BRANCH  24  26
HETATM   26  C   UNL     1     -10.008  16.028  66.535  1.00  0.00    -0.293 A  
HETATM   27  C   UNL     1      -9.446  17.180  65.992  1.00  0.00    -0.167 A  
HETATM   28  C   UNL     1     -10.605  17.349  68.506  1.00  0.00    -0.340 A  
HETATM   29  C   UNL     1      -9.389  18.402  66.710  1.00  0.00    -0.296 A  
HETATM   30  C   UNL     1     -10.709  16.196  67.725  1.00  0.00    -0.325 A  
HETATM   31  C   UNL     1      -9.909  18.471  68.022  1.00  0.00    -0.341 A  
BRANCH  28  32
HETATM   32  O   UNL     1     -11.188  17.363  69.750  1.00  0.00     0.580 OA 
HETATM   33  C   UNL     1     -11.826  16.137  70.129  1.00  0.00    -0.123 C  
ENDBRANCH  28  32
BRANCH  31  34
HETATM   34  O   UNL     1      -9.671  19.621  68.724  1.00  0.00    -0.403 OA 
HETATM   35  C   UNL     1     -10.692  20.606  68.818  1.00  0.00     0.705 C  
ENDBRANCH  31  34
BRANCH  29  36
HETATM   36  O   UNL     1      -8.752  19.392  65.989  1.00  0.00    -0.409 OA 
HETATM   37  C   UNL     1      -9.482  20.103  64.992  1.00  0.00     1.488 C  
ENDBRANCH  29  36
ENDBRANCH  24  26
ENDBRANCH  23  24
ENDBRANCH   3  23
BRANCH   5  38
HETATM   38  O   UNL     1      -6.769  16.329  68.117  1.00  0.00    -0.118 OA 
HETATM   39  C   UNL     1      -6.482  16.527  69.492  1.00  0.00    -0.223 C  
ENDBRANCH   5  38
BRANCH   7  40
HETATM   40  C   UNL     1      -9.526  14.384  69.368  1.00  0.00     0.258 C  
HETATM   41  O   UNL     1      -9.895  14.867  70.432  1.00  0.00     0.249 OA 
BRANCH  40  42
HETATM   42  O   UNL     1     -10.339  13.746  68.490  1.00  0.00    -0.238 OA 
HETATM   43  C   UNL     1     -11.309  12.866  69.057  1.00  0.00    -0.290 C  
ENDBRANCH  40  42
ENDBRANCH   7  40
BRANCH  15  44
HETATM   44  O   UNL     1     -11.003   4.223  65.609  1.00  0.00    -0.011 OA 
HETATM   45  C   UNL     1     -10.454   3.048  66.187  1.00  0.00     2.056 C  
ENDBRANCH  15  44
TORSDOF 10
ENDMDL
MODEL      157
REMARK 921   NORMALIZED FREE ENERGY PREDICTED BY IDOCK:    9.91 KCAL/MOL
REMARK 922        TOTAL FREE ENERGY PREDICTED BY IDOCK:   12.95 KCAL/MOL
REMARK 923 INTER-LIGAND FREE ENERGY PREDICTED BY IDOCK:   12.02 KCAL/MOL
REMARK 924 INTRA-LIGAND FREE ENERGY PREDICTED BY IDOCK:    0.93 KCAL/MOL
REMARK 927      BINDING AFFINITY PREDICTED BY RF-SCORE:    0.00 PKD
ROOT
HETATM    1  C   UNL     1     -10.036   8.714  71.520  1.00  0.00    -0.345 C  
HETATM    2  C   UNL     1     -10.784   7.766  70.577  1.00  0.00    -0.238 C  
HETATM    3  C   UNL     1     -10.253   7.727  69.110  1.00  0.00    -0.208 C  
HETATM    4  C   UNL     1     -12.520  12.574  71.480  1.00  0.00    -0.122 C  
HETATM    5  C   UNL     1      -8.932   6.968  69.223  1.00  0.00    -0.138 C  
HETATM    6  C   UNL     1     -10.973   9.879  71.865  1.00  0.00     0.848 C  
HETATM    7  C   UNL     1      -7.994   7.898  70.073  1.00  0.00    -0.111 C  
HETATM    8  C   UNL     1     -12.547  11.294  70.625  1.00  0.00    -0.288 C  
HETATM    9  C   UNL     1     -11.327  13.370  71.080  1.00  0.00     1.408 A  
HETATM   10  C   UNL     1      -8.674   9.114  70.928  1.00  0.00    -0.277 C  
HETATM   11  C   UNL     1      -9.473  16.335  70.202  1.00  0.00     0.901 A  
HETATM   12  C   UNL     1     -10.229  12.775  70.479  1.00  0.00     4.203 A  
HETATM   13  N   UNL     1      -9.400  13.794  70.078  1.00  0.00     1.347 NA 
HETATM   14  C   UNL     1      -8.719  10.632  70.458  1.00  0.00     1.891 C  
HETATM   15  C   UNL     1     -10.250  17.402  70.678  1.00  0.00     1.948 A  
HETATM   16  N   UNL     1     -11.275  10.552  70.622  1.00  0.00    -0.284 NA 
HETATM   17  C   UNL     1     -11.437  17.154  71.343  1.00  0.00     1.152 A  
HETATM   18  C   UNL     1     -10.114  11.300  70.108  1.00  0.00     1.358 C  
HETATM   19  C   UNL     1     -11.918  15.853  71.558  1.00  0.00    -0.537 A  
HETATM   20  C   UNL     1     -11.137  14.767  71.100  1.00  0.00     0.015 A  
HETATM   21  H   UNL     1      -8.516  13.665  69.588  1.00  0.00     0.000 HD 
HETATM   22  C   UNL     1      -9.937  15.024  70.435  1.00  0.00     0.381 A  
ENDROOT
BRANCH   3  23
HETATM   23  O   UNL     1      -9.947   9.009  68.453  1.00  0.00    -0.168 OA 
BRANCH  23  24
HETATM   24  C   UNL     1     -10.490   9.130  67.212  1.00  0.00    -0.265 C  
HETATM   25  O   UNL     1     -10.823   8.153  66.551  1.00  0.00     0.064 OA 
BRANCH  24  26
HETATM   26  C   UNL     1     -10.725  10.503  66.622  1.00  0.00    -0.222 A  
HETATM   27  C   UNL     1     -11.008  11.721  67.233  1.00  0.00    -0.318 A  
HETATM   28  C   UNL     1     -11.254  11.549  64.475  1.00  0.00    -0.231 A  
HETATM   29  C   UNL     1     -11.479  12.840  66.499  1.00  0.00    -0.355 A  
HETATM   30  C   UNL     1     -10.714  10.507  65.231  1.00  0.00    -0.019 A  
HETATM   31  C   UNL     1     -11.681  12.732  65.105  1.00  0.00    -0.360 A  
BRANCH  28  32
HETATM   32  O   UNL     1     -11.364  11.395  63.114  1.00  0.00    -0.176 OA 
HETATM   33  C   UNL     1     -10.120  11.212  62.427  1.00  0.00     0.431 C  
ENDBRANCH  28  32
BRANCH  31  34
HETATM   34  O   UNL     1     -12.298  13.784  64.484  1.00  0.00    -0.508 OA 
HETATM   35  C   UNL     1     -11.648  15.047  64.436  1.00  0.00    -0.276 C  
ENDBRANCH  31  34
BRANCH  29  36
HETATM   36  O   UNL     1     -11.731  13.923  67.319  1.00  0.00    -0.342 OA 
HETATM   37  C   UNL     1     -11.367  15.228  66.874  1.00  0.00    -0.209 C  
ENDBRANCH  29  36
ENDBRANCH  24  26
ENDBRANCH  23  24
ENDBRANCH   3  23
BRANCH   5  38
HETATM   38  O   UNL     1      -9.179   5.706  69.881  1.00  0.00    -0.141 OA 
HETATM   39  C   UNL     1      -8.047   4.979  70.331  1.00  0.00    -0.085 C  
ENDBRANCH   5  38
BRANCH   7  40
HETATM   40  C   UNL     1      -6.820   8.343  69.220  1.00  0.00    -0.047 C  
HETATM   41  O   UNL     1      -5.978   7.607  68.719  1.00  0.00    -0.029 OA 
BRANCH  40  42
HETATM   42  O   UNL     1      -6.806   9.697  69.139  1.00  0.00    -0.049 OA 
HETATM   43  C   UNL     1      -6.509  10.245  67.855  1.00  0.00    -0.061 C  
ENDBRANCH  40  42
ENDBRANCH   7  40
BRANCH  15  44
HETATM   44  O   UNL     1      -9.951  18.734  70.555  1.00  0.00     1.294 OA 
HETATM   45  C   UNL     1     -10.776  19.507  69.695  1.00  0.00     1.185 C  
ENDBRANCH  15  44
TORSDOF 10
ENDMDL
MODEL      158
REMARK 921   NORMALIZED FREE ENERGY PREDICTED BY IDOCK:   10.70 KCAL/MOL
REMARK 922        TOTAL FREE ENERGY PREDICTED BY IDOCK:   14.19 KCAL/MOL
REMARK 923 INTER-LIGAND FREE ENERGY PREDICTED BY IDOCK:    7.51 KCAL/MOL
REMARK 924 INTRA-LIGAND FREE ENERGY PREDICTED BY IDOCK:    6.69 KCAL/MOL
REMARK 927      BINDING AFFINITY PREDICTED BY RF-SCORE:    0.00 PKD
ROOT
HETATM    1  C   UNL     1      -5.969  12.369  66.709  1.00  0.00     0.391 C  
HETATM    2  C   UNL     1      -7.157  12.863  65.876  1.00  0.00     3.796 C  
HETATM    3  C   UNL     1      -8.325  13.502  66.691  1.00  0.00     0.270 C  
HETATM    4  C   UNL     1      -6.778   7.894  67.328  1.00  0.00    -0.069 C  
HETATM    5  C   UNL     1      -7.761  14.850  67.136  1.00  0.00    -0.142 C  
HETATM    6  C   UNL     1      -5.951  10.836  66.650  1.00  0.00    -0.089 C  
HETATM    7  C   UNL     1      -6.590  14.502  68.123  1.00  0.00    -0.140 C  
HETATM    8  C   UNL     1      -7.630   9.053  66.781  1.00  0.00    -0.090 C  
HETATM    9  C   UNL     1      -6.678   8.052  68.805  1.00  0.00    -0.057 A  
HETATM   10  C   UNL     1      -6.001  12.977  68.122  1.00  0.00    -0.092 C  
HETATM   11  C   UNL     1      -6.695   6.997  72.253  1.00  0.00    -0.057 A  
HETATM   12  C   UNL     1      -6.853   9.285  69.413  1.00  0.00    -0.049 A  
HETATM   13  N   UNL     1      -6.881   9.055  70.767  1.00  0.00    -0.065 NA 
HETATM   14  C   UNL     1      -6.396  11.856  69.177  1.00  0.00    -0.092 C  
HETATM   15  C   UNL     1      -6.500   5.608  72.207  1.00  0.00    -0.053 A  
HETATM   16  N   UNL     1      -7.191  10.383  67.238  1.00  0.00    -0.088 NA 
HETATM   17  C   UNL     1      -6.330   4.971  70.992  1.00  0.00    -0.023 A  
HETATM   18  C   UNL     1      -7.211  10.583  68.697  1.00  0.00    -0.087 C  
HETATM   19  C   UNL     1      -6.358   5.663  69.771  1.00  0.00    -0.034 A  
HETATM   20  C   UNL     1      -6.537   7.065  69.803  1.00  0.00    -0.044 A  
HETATM   21  H   UNL     1      -7.014   9.775  71.477  1.00  0.00     0.000 HD 
HETATM   22  C   UNL     1      -6.701   7.704  71.033  1.00  0.00    -0.042 A  
ENDROOT
BRANCH   3  23
HETATM   23  O   UNL     1      -8.773  12.810  67.912  1.00  0.00    -0.166 OA 
BRANCH  23  24
HETATM   24  C   UNL     1      -9.707  13.501  68.618  1.00  0.00    -0.101 C  
HETATM   25  O   UNL     1     -10.298  13.006  69.572  1.00  0.00     0.341 OA 
BRANCH  24  26
HETATM   26  C   UNL     1     -10.021  14.935  68.252  1.00  0.00    -0.222 A  
HETATM   27  C   UNL     1      -9.683  16.131  68.878  1.00  0.00    -0.242 A  
HETATM   28  C   UNL     1     -11.549  16.208  66.827  1.00  0.00     0.634 A  
HETATM   29  C   UNL     1     -10.310  17.359  68.546  1.00  0.00    -0.378 A  
HETATM   30  C   UNL     1     -10.842  15.043  67.134  1.00  0.00    -0.314 A  
HETATM   31  C   UNL     1     -11.317  17.389  67.556  1.00  0.00     0.446 A  
BRANCH  28  32
HETATM   32  O   UNL     1     -12.472  16.176  65.810  1.00  0.00     1.829 OA 
HETATM   33  C   UNL     1     -12.983  14.873  65.503  1.00  0.00     0.474 C  
ENDBRANCH  28  32
BRANCH  31  34
HETATM   34  O   UNL     1     -12.003  18.563  67.403  1.00  0.00     1.680 OA 
HETATM   35  C   UNL     1     -11.282  19.774  67.219  1.00  0.00     0.150 C  
ENDBRANCH  31  34
BRANCH  29  36
HETATM   36  O   UNL     1      -9.844  18.401  69.324  1.00  0.00    -0.213 OA 
HETATM   37  C   UNL     1     -10.134  19.741  68.933  1.00  0.00    -0.384 C  
ENDBRANCH  29  36
ENDBRANCH  24  26
ENDBRANCH  23  24
ENDBRANCH   3  23
BRANCH   5  38
HETATM   38  O   UNL     1      -7.289  15.561  65.970  1.00  0.00     1.026 OA 
HETATM   39  C   UNL     1      -7.399  16.975  65.986  1.00  0.00    -0.052 C  
ENDBRANCH   5  38
BRANCH   7  40
HETATM   40  C   UNL     1      -6.930  15.015  69.510  1.00  0.00    -0.187 C  
HETATM   41  O   UNL     1      -7.599  14.424  70.349  1.00  0.00     0.527 OA 
BRANCH  40  42
HETATM   42  O   UNL     1      -6.428  16.265  69.668  1.00  0.00    -0.196 OA 
HETATM   43  C   UNL     1      -5.199  16.362  70.387  1.00  0.00    -0.194 C  
ENDBRANCH  40  42
ENDBRANCH   7  40
BRANCH  15  44
HETATM   44  O   UNL     1      -6.453   4.765  73.287  1.00  0.00    -0.050 OA 
HETATM   45  C   UNL     1      -5.843   5.261  74.470  1.00  0.00    -0.048 C  
ENDBRANCH  15  44
TORSDOF 10
ENDMDL
MODEL      159
REMARK 921   NORMALIZED FREE ENERGY PREDICTED BY IDOCK:   11.50 KCAL/MOL
REMARK 922        TOTAL FREE ENERGY PREDICTED BY IDOCK:   15.46 KCAL/MOL
REMARK 923 INTER-LIGAND FREE ENERGY PREDICTED BY IDOCK:   14.32 KCAL/MOL
REMARK 924 INTRA-LIGAND FREE ENERGY PREDICTED BY IDOCK:    1.14 KCAL/MOL
REMARK 927      BINDING AFFINITY PREDICTED BY RF-SCORE:    0.00 PKD
ROOT
HETATM    1  C   UNL     1      -7.661  15.268  70.962  1.00  0.00     2.252 C  
HETATM    2  C   UNL     1      -6.542  15.990  70.204  1.00  0.00     0.141 C  
HETATM    3  C   UNL     1      -6.687  16.003  68.651  1.00  0.00    -0.125 C  
HETATM    4  C   UNL     1      -6.027  11.039  71.680  1.00  0.00     0.832 C  
HETATM    5  C   UNL     1      -7.827  16.991  68.403  1.00  0.00    -0.233 C  
HETATM    6  C   UNL     1      -7.076  13.987  71.571  1.00  0.00     2.848 C  
HETATM    7  C   UNL     1      -9.102  16.313  69.022  1.00  0.00    -0.255 C  
HETATM    8  C   UNL     1      -5.551  12.221  70.816  1.00  0.00    -0.139 C  
HETATM    9  C   UNL     1      -7.220  10.437  71.022  1.00  0.00     1.183 A  
HETATM   10  C   UNL     1      -8.893  15.069  70.062  1.00  0.00     0.424 C  
HETATM   11  C   UNL     1      -9.342   7.786  69.810  1.00  0.00    -0.153 A  
HETATM   12  C   UNL     1      -8.006  11.166  70.144  1.00  0.00     1.501 A  
HETATM   13  N   UNL     1      -8.894  10.281  69.584  1.00  0.00    -0.347 NA 
HETATM   14  C   UNL     1      -9.028  13.535  69.671  1.00  0.00     1.587 C  
HETATM   15  C   UNL     1      -8.921   6.640  70.502  1.00  0.00    -0.152 A  
HETATM   16  N   UNL     1      -6.619  13.173  70.468  1.00  0.00     0.301 NA 
HETATM   17  C   UNL     1      -7.904   6.728  71.435  1.00  0.00    -0.098 A  
HETATM   18  C   UNL     1      -7.744  12.604  69.705  1.00  0.00     1.408 C  
HETATM   19  C   UNL     1      -7.247   7.936  71.718  1.00  0.00    -0.071 A  
HETATM   20  C   UNL     1      -7.673   9.102  71.042  1.00  0.00    -0.132 A  
HETATM   21  H   UNL     1      -9.594  10.525  68.883  1.00  0.00     0.000 HD 
HETATM   22  C   UNL     1      -8.705   9.009  70.106  1.00  0.00    -0.173 A  
ENDROOT
BRANCH   3  23
HETATM   23  O   UNL     1      -7.067  14.746  67.983  1.00  0.00    -0.110 OA 
BRANCH  23  24
HETATM   24  C   UNL     1      -6.149  14.309  67.082  1.00  0.00     0.822 C  
HETATM   25  O   UNL     1      -5.304  15.055  66.600  1.00  0.00     0.939 OA 
BRANCH  24  26
HETATM   26  C   UNL     1      -6.133  12.854  66.666  1.00  0.00     1.449 A  
HETATM   27  C   UNL     1      -6.679  12.217  65.556  1.00  0.00     3.104 A  
HETATM   28  C   UNL     1      -5.698  10.642  67.618  1.00  0.00    -0.043 A  
HETATM   29  C   UNL     1      -6.809  10.806  65.484  1.00  0.00     0.015 A  
HETATM   30  C   UNL     1      -5.519  12.027  67.602  1.00  0.00    -0.082 A  
HETATM   31  C   UNL     1      -6.382  10.005  66.567  1.00  0.00    -0.072 A  
BRANCH  28  32
HETATM   32  O   UNL     1      -5.202   9.921  68.678  1.00  0.00    -0.036 OA 
HETATM   33  C   UNL     1      -5.622   8.551  68.721  1.00  0.00    -0.040 C  
ENDBRANCH  28  32
BRANCH  31  34
HETATM   34  O   UNL     1      -6.690   8.673  66.514  1.00  0.00    -0.068 OA 
HETATM   35  C   UNL     1      -6.118   7.864  65.494  1.00  0.00    -0.038 C  
ENDBRANCH  31  34
BRANCH  29  36
HETATM   36  O   UNL     1      -7.415  10.405  64.310  1.00  0.00    -0.108 OA 
HETATM   37  C   UNL     1      -8.827  10.548  64.175  1.00  0.00    -0.194 C  
ENDBRANCH  29  36
ENDBRANCH  24  26
ENDBRANCH  23  24
ENDBRANCH   3  23
BRANCH   5  38
HETATM   38  O   UNL     1      -7.508  18.238  69.058  1.00  0.00    -0.260 OA 
HETATM   39  C   UNL     1      -8.246  19.383  68.662  1.00  0.00    -0.364 C  
ENDBRANCH   5  38
BRANCH   7  40
HETATM   40  C   UNL     1     -10.100  16.016  67.918  1.00  0.00    -0.241 C  
HETATM   41  O   UNL     1     -10.724  14.970  67.779  1.00  0.00    -0.266 OA 
BRANCH  40  42
HETATM   42  O   UNL     1     -10.161  17.068  67.065  1.00  0.00    -0.279 OA 
HETATM   43  C   UNL     1      -9.704  16.826  65.735  1.00  0.00    -0.128 C  
ENDBRANCH  40  42
ENDBRANCH   7  40
BRANCH  15  44
HETATM   44  O   UNL     1      -9.432   5.377  70.354  1.00  0.00    -0.153 OA 
HETATM   45  C   UNL     1      -9.064   4.411  71.328  1.00  0.00    -0.127 C  
ENDBRANCH  15  44
TORSDOF 10
ENDMDL
MODEL      160
REMARK 921   NORMALIZED FREE ENERGY PREDICTED BY IDOCK:   11.57 KCAL/MOL
REMARK 922        TOTAL FREE ENERGY PREDICTED BY IDOCK:   15.58 KCAL/MOL
REMARK 923 INTER-LIGAND FREE ENERGY PREDICTED BY IDOCK:   10.72 KCAL/MOL
REMARK 924 INTRA-LIGAND FREE ENERGY PREDICTED BY IDOCK:    4.87 KCAL/MOL
REMARK 927      BINDING AFFINITY PREDICTED BY RF-SCORE:    0.00 PKD
ROOT
HETATM    1  C   UNL     1      -9.432   8.483  68.725  1.00  0.00    -0.143 C  
HETATM    2  C   UNL     1      -9.900   7.961  67.362  1.00  0.00    -0.237 C  
HETATM    3  C   UNL     1      -9.664   8.927  66.160  1.00  0.00    -0.268 C  
HETATM    4  C   UNL     1     -13.197  10.301  70.618  1.00  0.00    -0.202 C  
HETATM    5  C   UNL     1      -8.153   8.867  65.939  1.00  0.00    -0.109 C  
HETATM    6  C   UNL     1     -10.675   8.765  69.579  1.00  0.00    -0.188 C  
HETATM    7  C   UNL     1      -7.522   9.505  67.228  1.00  0.00    -0.091 C  
HETATM    8  C   UNL     1     -12.869   9.794  69.202  1.00  0.00     2.670 C  
HETATM    9  C   UNL     1     -12.503  11.604  70.813  1.00  0.00    -0.425 A  
HETATM   10  C   UNL     1      -8.463   9.666  68.555  1.00  0.00    -0.118 C  
HETATM   11  C   UNL     1     -12.148  15.040  71.849  1.00  0.00    -0.443 A  
HETATM   12  C   UNL     1     -11.384  11.946  70.070  1.00  0.00    -0.012 A  
HETATM   13  N   UNL     1     -11.106  13.260  70.358  1.00  0.00     0.079 NA 
HETATM   14  C   UNL     1      -9.183  11.014  68.993  1.00  0.00    -0.077 C  
HETATM   15  C   UNL     1     -13.185  15.249  72.772  1.00  0.00    -0.482 A  
HETATM   16  N   UNL     1     -11.430   9.787  68.890  1.00  0.00     0.056 NA 
HETATM   17  C   UNL     1     -14.042  14.214  73.098  1.00  0.00     1.106 A  
HETATM   18  C   UNL     1     -10.766  11.100  68.961  1.00  0.00    -0.225 C  
HETATM   19  C   UNL     1     -13.928  12.937  72.527  1.00  0.00    -0.229 A  
HETATM   20  C   UNL     1     -12.877  12.706  71.610  1.00  0.00    -0.367 A  
HETATM   21  H   UNL     1     -10.343  13.797  69.947  1.00  0.00     0.000 HD 
HETATM   22  C   UNL     1     -12.012  13.753  71.289  1.00  0.00     0.050 A  
ENDROOT
BRANCH   3  23
HETATM   23  O   UNL     1     -10.006  10.349  66.340  1.00  0.00    -0.204 OA 
BRANCH  23  24
HETATM   24  C   UNL     1      -9.337  11.181  65.499  1.00  0.00    -0.223 C  
HETATM   25  O   UNL     1      -8.355  10.813  64.864  1.00  0.00    -0.131 OA 
BRANCH  24  26
HETATM   26  C   UNL     1      -9.818  12.603  65.303  1.00  0.00    -0.136 A  
HETATM   27  C   UNL     1      -9.128  13.757  64.946  1.00  0.00     1.925 A  
HETATM   28  C   UNL     1     -11.740  14.017  65.844  1.00  0.00    -0.366 A  
HETATM   29  C   UNL     1      -9.694  15.050  65.093  1.00  0.00     0.000 A  
HETATM   30  C   UNL     1     -11.167  12.766  65.601  1.00  0.00    -0.335 A  
HETATM   31  C   UNL     1     -10.996  15.190  65.624  1.00  0.00    -0.355 A  
BRANCH  28  32
HETATM   32  O   UNL     1     -13.033  14.077  66.304  1.00  0.00    -0.217 OA 
HETATM   33  C   UNL     1     -14.028  14.218  65.283  1.00  0.00     2.804 C  
ENDBRANCH  28  32
BRANCH  31  34
HETATM   34  O   UNL     1     -11.418  16.461  65.903  1.00  0.00     0.350 OA 
HETATM   35  C   UNL     1     -12.206  17.161  64.948  1.00  0.00     3.727 C  
ENDBRANCH  31  34
BRANCH  29  36
HETATM   36  O   UNL     1      -8.813  16.043  64.714  1.00  0.00     1.920 OA 
HETATM   37  C   UNL     1      -7.620  16.236  65.470  1.00  0.00     2.609 C  
ENDBRANCH  29  36
ENDBRANCH  24  26
ENDBRANCH  23  24
ENDBRANCH   3  23
BRANCH   5  38
HETATM   38  O   UNL     1      -7.764   7.486  65.776  1.00  0.00    -0.089 OA 
HETATM   39  C   UNL     1      -7.151   7.126  64.548  1.00  0.00    -0.058 C  
ENDBRANCH   5  38
BRANCH   7  40
HETATM   40  C   UNL     1      -6.787  10.778  66.852  1.00  0.00    -0.101 C  
HETATM   41  O   UNL     1      -6.445  11.664  67.627  1.00  0.00    -0.062 OA 
BRANCH  40  42
HETATM   42  O   UNL     1      -6.610  10.820  65.508  1.00  0.00    -0.094 OA 
HETATM   43  C   UNL     1      -5.279  10.599  65.043  1.00  0.00    -0.152 C  
ENDBRANCH  40  42
ENDBRANCH   7  40
BRANCH  15  44
HETATM   44  O   UNL     1     -13.460  16.423  73.422  1.00  0.00    -0.531 OA 
HETATM   45  C   UNL     1     -12.599  16.789  74.490  1.00  0.00     0.091 C  
ENDBRANCH  15  44
TORSDOF 10
ENDMDL
MODEL      161
REMARK 921   NORMALIZED FREE ENERGY PREDICTED BY IDOCK:   11.71 KCAL/MOL
REMARK 922        TOTAL FREE ENERGY PREDICTED BY IDOCK:   15.80 KCAL/MOL
REMARK 923 INTER-LIGAND FREE ENERGY PREDICTED BY IDOCK:    6.36 KCAL/MOL
REMARK 924 INTRA-LIGAND FREE ENERGY PREDICTED BY IDOCK:    9.44 KCAL/MOL
REMARK 927      BINDING AFFINITY PREDICTED BY RF-SCORE:    0.00 PKD
ROOT
HETATM    1  C   UNL     1     -10.859   7.059  65.794  1.00  0.00     2.716 C  
HETATM    2  C   UNL     1      -9.558   6.250  65.761  1.00  0.00     0.206 C  
HETATM    3  C   UNL     1      -8.681   6.342  67.048  1.00  0.00    -0.108 C  
HETATM    4  C   UNL     1      -9.813  11.010  63.705  1.00  0.00    -0.397 C  
HETATM    5  C   UNL     1      -9.457   5.516  68.074  1.00  0.00    -0.114 C  
HETATM    6  C   UNL     1     -10.721   8.222  64.803  1.00  0.00     7.151 C  
HETATM    7  C   UNL     1     -10.792   6.308  68.316  1.00  0.00    -0.397 C  
HETATM    8  C   UNL     1      -8.965   9.829  64.213  1.00  0.00    -0.237 C  
HETATM    9  C   UNL     1     -10.274  11.788  64.887  1.00  0.00    -0.315 A  
HETATM   10  C   UNL     1     -11.220   7.457  67.235  1.00  0.00     0.160 C  
HETATM   11  C   UNL     1     -10.979  14.742  66.831  1.00  0.00    -0.328 A  
HETATM   12  C   UNL     1     -10.363  11.211  66.143  1.00  0.00    -0.250 A  
HETATM   13  N   UNL     1     -10.637  12.228  67.025  1.00  0.00    -0.220 NA 
HETATM   14  C   UNL     1     -10.985   9.016  67.435  1.00  0.00     0.040 C  
HETATM   15  C   UNL     1     -11.029  15.788  65.895  1.00  0.00    -0.191 A  
HETATM   16  N   UNL     1      -9.620   9.035  65.267  1.00  0.00    -0.048 NA 
HETATM   17  C   UNL     1     -10.846  15.525  64.550  1.00  0.00    -0.130 A  
HETATM   18  C   UNL     1      -9.966   9.780  66.490  1.00  0.00    -0.239 C  
HETATM   19  C   UNL     1     -10.593  14.232  64.066  1.00  0.00     0.863 A  
HETATM   20  C   UNL     1     -10.557  13.166  64.994  1.00  0.00    -0.347 A  
HETATM   21  H   UNL     1     -10.743  12.112  68.032  1.00  0.00     0.000 HD 
HETATM   22  C   UNL     1     -10.749  13.437  66.350  1.00  0.00    -0.286 A  
ENDROOT
BRANCH   3  23
HETATM   23  O   UNL     1      -8.474   7.671  67.648  1.00  0.00    -0.117 OA 
BRANCH  23  24
HETATM   24  C   UNL     1      -7.515   8.406  67.026  1.00  0.00    -0.088 C  
HETATM   25  O   UNL     1      -6.724   7.907  66.235  1.00  0.00    -0.053 OA 
BRANCH  24  26
HETATM   26  C   UNL     1      -7.421   9.895  67.283  1.00  0.00    -0.087 A  
HETATM   27  C   UNL     1      -6.381  10.793  67.063  1.00  0.00    -0.078 A  
HETATM   28  C   UNL     1      -8.561  11.649  68.552  1.00  0.00    -0.134 A  
HETATM   29  C   UNL     1      -6.376  12.093  67.632  1.00  0.00    -0.109 A  
HETATM   30  C   UNL     1      -8.554  10.413  67.901  1.00  0.00    -0.118 A  
HETATM   31  C   UNL     1      -7.448  12.504  68.456  1.00  0.00    -0.122 A  
BRANCH  28  32
HETATM   32  O   UNL     1      -9.665  12.007  69.287  1.00  0.00     0.260 OA 
HETATM   33  C   UNL     1     -10.267  10.937  70.026  1.00  0.00     0.432 C  
ENDBRANCH  28  32
BRANCH  31  34
HETATM   34  O   UNL     1      -7.305  13.696  69.113  1.00  0.00    -0.066 OA 
HETATM   35  C   UNL     1      -7.781  14.890  68.505  1.00  0.00    -0.123 C  
ENDBRANCH  31  34
BRANCH  29  36
HETATM   36  O   UNL     1      -5.227  12.789  67.313  1.00  0.00    -0.292 OA 
HETATM   37  C   UNL     1      -5.302  14.200  67.119  1.00  0.00     0.921 C  
ENDBRANCH  29  36
ENDBRANCH  24  26
ENDBRANCH  23  24
ENDBRANCH   3  23
BRANCH   5  38
HETATM   38  O   UNL     1      -9.702   4.204  67.521  1.00  0.00    -0.179 OA 
HETATM   39  C   UNL     1      -8.574   3.471  67.071  1.00  0.00    -0.111 C  
ENDBRANCH   5  38
BRANCH   7  40
HETATM   40  C   UNL     1     -10.839   6.786  69.756  1.00  0.00    -0.272 C  
HETATM   41  O   UNL     1     -10.759   7.951  70.126  1.00  0.00    -0.237 OA 
BRANCH  40  42
HETATM   42  O   UNL     1     -10.927   5.718  70.587  1.00  0.00    -0.288 OA 
HETATM   43  C   UNL     1     -10.539   5.943  71.941  1.00  0.00    -0.231 C  
ENDBRANCH  40  42
ENDBRANCH   7  40
BRANCH  15  44
HETATM   44  O   UNL     1     -11.253  17.110  66.177  1.00  0.00     0.286 OA 
HETATM   45  C   UNL     1     -10.135  17.885  66.583  1.00  0.00    -0.362 C  
ENDBRANCH  15  44
TORSDOF 10
ENDMDL
MODEL      162
REMARK 921   NORMALIZED FREE ENERGY PREDICTED BY IDOCK:   13.64 KCAL/MOL
REMARK 922        TOTAL FREE ENERGY PREDICTED BY IDOCK:   18.86 KCAL/MOL
REMARK 923 INTER-LIGAND FREE ENERGY PREDICTED BY IDOCK:   16.53 KCAL/MOL
REMARK 924 INTRA-LIGAND FREE ENERGY PREDICTED BY IDOCK:    2.34 KCAL/MOL
REMARK 927      BINDING AFFINITY PREDICTED BY RF-SCORE:    0.00 PKD
ROOT
HETATM    1  C   UNL     1      -7.055  17.665  68.505  1.00  0.00    -0.239 C  
HETATM    2  C   UNL     1      -6.986  18.106  67.039  1.00  0.00    -0.215 C  
HETATM    3  C   UNL     1      -8.336  18.046  66.258  1.00  0.00    -0.197 C  
HETATM    4  C   UNL     1      -5.776  13.257  68.442  1.00  0.00    -0.084 C  
HETATM    5  C   UNL     1      -9.136  19.215  66.828  1.00  0.00    -0.318 C  
HETATM    6  C   UNL     1      -6.297  16.338  68.639  1.00  0.00    -0.124 C  
HETATM    7  C   UNL     1      -9.406  18.838  68.329  1.00  0.00    -0.374 C  
HETATM    8  C   UNL     1      -6.138  14.266  67.337  1.00  0.00     0.250 C  
HETATM    9  C   UNL     1      -7.036  12.854  69.127  1.00  0.00    -0.015 A  
HETATM   10  C   UNL     1      -8.511  17.647  69.003  1.00  0.00    -0.021 C  
HETATM   11  C   UNL     1      -9.402  10.586  70.631  1.00  0.00     1.655 A  
HETATM   12  C   UNL     1      -8.161  13.661  69.105  1.00  0.00     0.381 A  
HETATM   13  N   UNL     1      -9.182  12.928  69.660  1.00  0.00     1.090 NA 
HETATM   14  C   UNL     1      -8.997  16.145  69.184  1.00  0.00    -0.237 C  
HETATM   15  C   UNL     1      -8.662   9.428  70.918  1.00  0.00    -0.081 A  
HETATM   16  N   UNL     1      -6.981  15.381  67.799  1.00  0.00    -0.146 NA 
HETATM   17  C   UNL     1      -7.311   9.380  70.629  1.00  0.00    -0.140 A  
HETATM   18  C   UNL     1      -8.284  14.989  68.365  1.00  0.00    -0.151 C  
HETATM   19  C   UNL     1      -6.631  10.455  70.036  1.00  0.00    -0.137 A  
HETATM   20  C   UNL     1      -7.359  11.634  69.758  1.00  0.00     0.461 A  
HETATM   21  H   UNL     1     -10.142  13.255  69.765  1.00  0.00     0.000 HD 
HETATM   22  C   UNL     1      -8.721  11.680  70.057  1.00  0.00     2.574 A  
ENDROOT
BRANCH   3  23
HETATM   23  O   UNL     1      -9.173  16.844  66.420  1.00  0.00    -0.255 OA 
BRANCH  23  24
HETATM   24  C   UNL     1      -8.840  15.831  65.577  1.00  0.00     0.724 C  
HETATM   25  O   UNL     1      -7.798  15.838  64.930  1.00  0.00     4.617 OA 
BRANCH  24  26
HETATM   26  C   UNL     1      -9.756  14.634  65.438  1.00  0.00    -0.176 A  
HETATM   27  C   UNL     1      -9.526  13.280  65.665  1.00  0.00     0.094 A  
HETATM   28  C   UNL     1     -11.878  14.015  64.390  1.00  0.00    -0.431 A  
HETATM   29  C   UNL     1     -10.419  12.277  65.206  1.00  0.00    -0.282 A  
HETATM   30  C   UNL     1     -11.010  14.964  64.936  1.00  0.00    -0.422 A  
HETATM   31  C   UNL     1     -11.578  12.644  64.487  1.00  0.00    -0.345 A  
BRANCH  28  32
HETATM   32  O   UNL     1     -13.018  14.446  63.756  1.00  0.00    -0.380 OA 
HETATM   33  C   UNL     1     -12.805  15.027  62.464  1.00  0.00     4.920 C  
ENDBRANCH  28  32
BRANCH  31  34
HETATM   34  O   UNL     1     -12.305  11.632  63.922  1.00  0.00    -0.300 OA 
HETATM   35  C   UNL     1     -13.684  11.500  64.241  1.00  0.00     2.761 C  
ENDBRANCH  31  34
BRANCH  29  36
HETATM   36  O   UNL     1      -9.966  11.009  65.509  1.00  0.00    -0.230 OA 
HETATM   37  C   UNL     1      -8.637  10.642  65.145  1.00  0.00    -0.167 C  
ENDBRANCH  29  36
ENDBRANCH  24  26
ENDBRANCH  23  24
ENDBRANCH   3  23
BRANCH   5  38
HETATM   38  O   UNL     1      -8.346  20.418  66.709  1.00  0.00    -0.282 OA 
HETATM   39  C   UNL     1      -7.405  20.472  65.649  1.00  0.00    -0.033 C  
ENDBRANCH   5  38
BRANCH   7  40
HETATM   40  C   UNL     1     -10.898  18.666  68.545  1.00  0.00     0.403 C  
HETATM   41  O   UNL     1     -11.772  18.880  67.713  1.00  0.00     0.802 OA 
BRANCH  40  42
HETATM   42  O   UNL     1     -11.132  18.289  69.827  1.00  0.00     1.488 OA 
HETATM   43  C   UNL     1     -11.282  16.888  70.052  1.00  0.00     0.352 C  
ENDBRANCH  40  42
ENDBRANCH   7  40
BRANCH  15  44
HETATM   44  O   UNL     1      -9.151   8.280  71.483  1.00  0.00    -0.147 OA 
HETATM   45  C   UNL     1      -8.423   7.083  71.253  1.00  0.00    -0.118 C  
ENDBRANCH  15  44
TORSDOF 10
ENDMDL
MODEL      163
REMARK 921   NORMALIZED FREE ENERGY PREDICTED BY IDOCK:   13.98 KCAL/MOL
REMARK 922        TOTAL FREE ENERGY PREDICTED BY IDOCK:   19.39 KCAL/MOL
REMARK 923 INTER-LIGAND FREE ENERGY PREDICTED BY IDOCK:    0.35 KCAL/MOL
REMARK 924 INTRA-LIGAND FREE ENERGY PREDICTED BY IDOCK:   19.04 KCAL/MOL
REMARK 927      BINDING AFFINITY PREDICTED BY RF-SCORE:    0.00 PKD
ROOT
HETATM    1  C   UNL     1     -11.277   6.622  70.650  1.00  0.00    -0.370 C  
HETATM    2  C   UNL     1     -11.238   5.507  69.600  1.00  0.00     0.295 C  
HETATM    3  C   UNL     1      -9.811   5.045  69.168  1.00  0.00    -0.192 C  
HETATM    4  C   UNL     1     -11.751  10.484  68.214  1.00  0.00    -0.051 C  
HETATM    5  C   UNL     1      -9.304   4.260  70.377  1.00  0.00    -0.148 C  
HETATM    6  C   UNL     1     -11.804   7.895  69.974  1.00  0.00     0.385 C  
HETATM    7  C   UNL     1      -9.163   5.320  71.527  1.00  0.00    -0.173 C  
HETATM    8  C   UNL     1     -11.436   9.027  67.830  1.00  0.00     1.240 C  
HETATM    9  C   UNL     1     -10.537  11.066  68.849  1.00  0.00    -0.239 A  
HETATM   10  C   UNL     1      -9.914   6.762  71.351  1.00  0.00    -0.191 C  
HETATM   11  C   UNL     1      -8.019  13.565  69.498  1.00  0.00     0.811 A  
HETATM   12  C   UNL     1      -9.575  10.263  69.441  1.00  0.00    -0.218 A  
HETATM   13  N   UNL     1      -8.520  11.083  69.760  1.00  0.00    -0.086 NA 
HETATM   14  C   UNL     1      -9.201   8.099  70.874  1.00  0.00    -0.171 C  
HETATM   15  C   UNL     1      -8.577  14.768  69.038  1.00  0.00    -0.137 A  
HETATM   16  N   UNL     1     -10.864   8.231  68.929  1.00  0.00    -0.049 NA 
HETATM   17  C   UNL     1      -9.852  14.782  68.504  1.00  0.00    -0.218 A  
HETATM   18  C   UNL     1      -9.594   8.738  69.477  1.00  0.00    -0.167 C  
HETATM   19  C   UNL     1     -10.629  13.619  68.385  1.00  0.00    -0.260 A  
HETATM   20  C   UNL     1     -10.088  12.403  68.861  1.00  0.00     0.020 A  
HETATM   21  H   UNL     1      -7.652  10.772  70.196  1.00  0.00     0.000 HD 
HETATM   22  C   UNL     1      -8.802  12.396  69.405  1.00  0.00     1.247 A  
ENDROOT
BRANCH   3  23
HETATM   23  O   UNL     1      -8.805   6.084  68.888  1.00  0.00    -0.120 OA 
BRANCH  23  24
HETATM   24  C   UNL     1      -9.234   7.038  68.020  1.00  0.00    -0.129 C  
HETATM   25  O   UNL     1     -10.147   7.807  68.298  1.00  0.00    -0.179 OA 
BRANCH  24  26
HETATM   26  C   UNL     1      -8.558   7.191  66.674  1.00  0.00    -0.124 A  
HETATM   27  C   UNL     1      -7.326   6.734  66.216  1.00  0.00    -0.073 A  
HETATM   28  C   UNL     1      -8.716   8.553  64.648  1.00  0.00     0.013 A  
HETATM   29  C   UNL     1      -6.740   7.221  65.019  1.00  0.00    -0.047 A  
HETATM   30  C   UNL     1      -9.284   7.980  65.788  1.00  0.00    -0.068 A  
HETATM   31  C   UNL     1      -7.409   8.205  64.259  1.00  0.00    -0.094 A  
BRANCH  28  32
HETATM   32  O   UNL     1      -9.451   9.460  63.924  1.00  0.00     0.045 OA 
HETATM   33  C   UNL     1     -10.147  10.435  64.710  1.00  0.00    -0.317 C  
ENDBRANCH  28  32
BRANCH  31  34
HETATM   34  O   UNL     1      -6.719   8.759  63.214  1.00  0.00    -0.090 OA 
HETATM   35  C   UNL     1      -6.826  10.155  62.968  1.00  0.00    -0.135 C  
ENDBRANCH  31  34
BRANCH  29  36
HETATM   36  O   UNL     1      -5.501   6.656  64.787  1.00  0.00    -0.025 OA 
HETATM   37  C   UNL     1      -5.417   5.258  64.519  1.00  0.00    -0.016 C  
ENDBRANCH  29  36
ENDBRANCH  24  26
ENDBRANCH  23  24
ENDBRANCH   3  23
BRANCH   5  38
HETATM   38  O   UNL     1     -10.271   3.238  70.703  1.00  0.00     0.262 OA 
HETATM   39  C   UNL     1     -10.143   1.991  70.037  1.00  0.00     0.678 C  
ENDBRANCH   5  38
BRANCH   7  40
HETATM   40  C   UNL     1      -7.702   5.446  71.920  1.00  0.00    -0.104 C  
HETATM   41  O   UNL     1      -6.810   5.915  71.222  1.00  0.00    -0.062 OA 
BRANCH  40  42
HETATM   42  O   UNL     1      -7.514   4.906  73.150  1.00  0.00    -0.084 OA 
HETATM   43  C   UNL     1      -8.687   4.726  73.942  1.00  0.00    -0.105 C  
ENDBRANCH  40  42
ENDBRANCH   7  40
BRANCH  15  44
HETATM   44  O   UNL     1      -7.970  15.997  69.061  1.00  0.00    -0.199 OA 
HETATM   45  C   UNL     1      -8.812  17.134  69.180  1.00  0.00    -0.002 C  
ENDBRANCH  15  44
TORSDOF 10
ENDMDL
MODEL      164
REMARK 921   NORMALIZED FREE ENERGY PREDICTED BY IDOCK:   14.43 KCAL/MOL
REMARK 922        TOTAL FREE ENERGY PREDICTED BY IDOCK:   20.11 KCAL/MOL
REMARK 923 INTER-LIGAND FREE ENERGY PREDICTED BY IDOCK:   15.55 KCAL/MOL
REMARK 924 INTRA-LIGAND FREE ENERGY PREDICTED BY IDOCK:    4.56 KCAL/MOL
REMARK 927      BINDING AFFINITY PREDICTED BY RF-SCORE:    0.00 PKD
ROOT
HETATM    1  C   UNL     1     -11.813  13.793  67.249  1.00  0.00    -0.436 C  
HETATM    2  C   UNL     1     -11.904  14.444  68.632  1.00  0.00    -0.366 C  
HETATM    3  C   UNL     1     -10.536  14.779  69.305  1.00  0.00    -0.240 C  
HETATM    4  C   UNL     1     -12.144   9.289  68.070  1.00  0.00     3.607 C  
HETATM    5  C   UNL     1     -10.024  15.976  68.505  1.00  0.00    -0.222 C  
HETATM    6  C   UNL     1     -12.285  12.338  67.375  1.00  0.00     0.327 C  
HETATM    7  C   UNL     1      -9.752  15.421  67.061  1.00  0.00    -0.231 C  
HETATM    8  C   UNL     1     -11.949  10.515  68.980  1.00  0.00    -0.023 C  
HETATM    9  C   UNL     1     -10.862   9.037  67.356  1.00  0.00    -0.116 A  
HETATM   10  C   UNL     1     -10.411  13.983  66.645  1.00  0.00    -0.272 C  
HETATM   11  C   UNL     1      -8.149   7.069  66.024  1.00  0.00    -0.122 A  
HETATM   12  C   UNL     1      -9.929  10.044  67.167  1.00  0.00    -0.201 A  
HETATM   13  N   UNL     1      -8.805   9.447  66.649  1.00  0.00    -0.133 NA 
HETATM   14  C   UNL     1      -9.632  12.598  66.652  1.00  0.00    -0.249 C  
HETATM   15  C   UNL     1      -8.645   5.757  65.973  1.00  0.00    -0.139 A  
HETATM   16  N   UNL     1     -11.378  11.685  68.291  1.00  0.00    -0.259 NA 
HETATM   17  C   UNL     1      -9.942   5.489  66.372  1.00  0.00    -0.203 A  
HETATM   18  C   UNL     1     -10.050  11.472  67.688  1.00  0.00    -0.184 C  
HETATM   19  C   UNL     1     -10.802   6.490  66.850  1.00  0.00    -0.427 A  
HETATM   20  C   UNL     1     -10.322   7.820  66.890  1.00  0.00    -0.396 A  
HETATM   21  H   UNL     1      -7.940   9.936  66.420  1.00  0.00     0.000 HD 
HETATM   22  C   UNL     1      -9.015   8.085  66.480  1.00  0.00    -0.157 A  
ENDROOT
BRANCH   3  23
HETATM   23  O   UNL     1      -9.476  13.757  69.258  1.00  0.00     0.252 OA 
BRANCH  23  24
HETATM   24  C   UNL     1      -9.459  12.940  70.345  1.00  0.00     5.296 C  
HETATM   25  O   UNL     1      -9.744  13.345  71.467  1.00  0.00     8.112 OA 
BRANCH  24  26
HETATM   26  C   UNL     1      -9.107  11.478  70.184  1.00  0.00     2.775 A  
HETATM   27  C   UNL     1      -9.779  10.328  70.590  1.00  0.00     0.676 A  
HETATM   28  C   UNL     1      -7.180  10.065  69.655  1.00  0.00    -0.119 A  
HETATM   29  C   UNL     1      -9.153   9.055  70.604  1.00  0.00    -0.235 A  
HETATM   30  C   UNL     1      -7.869  11.279  69.583  1.00  0.00     0.409 A  
HETATM   31  C   UNL     1      -7.805   8.930  70.202  1.00  0.00    -0.097 A  
BRANCH  28  32
HETATM   32  O   UNL     1      -5.889  10.005  69.189  1.00  0.00    -0.038 OA 
HETATM   33  C   UNL     1      -5.461   8.703  68.770  1.00  0.00    -0.036 C  
ENDBRANCH  28  32
BRANCH  31  34
HETATM   34  O   UNL     1      -7.208   7.715  70.401  1.00  0.00    -0.061 OA 
HETATM   35  C   UNL     1      -6.879   7.305  71.722  1.00  0.00    -0.058 C  
ENDBRANCH  31  34
BRANCH  29  36
HETATM   36  O   UNL     1      -9.998   8.073  71.083  1.00  0.00    -0.172 OA 
HETATM   37  C   UNL     1     -11.371   8.092  70.698  1.00  0.00    -0.252 C  
ENDBRANCH  29  36
ENDBRANCH  24  26
ENDBRANCH  23  24
ENDBRANCH   3  23
BRANCH   5  38
HETATM   38  O   UNL     1     -11.041  17.001  68.505  1.00  0.00    -0.300 OA 
HETATM   39  C   UNL     1     -11.073  17.880  67.391  1.00  0.00     0.121 C  
ENDBRANCH   5  38
BRANCH   7  40
HETATM   40  C   UNL     1      -8.269  15.514  66.756  1.00  0.00    -0.242 C  
HETATM   41  O   UNL     1      -7.371  14.976  67.392  1.00  0.00    -0.189 OA 
BRANCH  40  42
HETATM   42  O   UNL     1      -8.074  16.338  65.695  1.00  0.00     0.216 OA 
HETATM   43  C   UNL     1      -8.530  17.681  65.851  1.00  0.00     0.078 C  
ENDBRANCH  40  42
ENDBRANCH   7  40
BRANCH  15  44
HETATM   44  O   UNL     1      -7.955   4.652  65.548  1.00  0.00    -0.093 OA 
HETATM   45  C   UNL     1      -6.730   4.360  66.206  1.00  0.00    -0.046 C  
ENDBRANCH  15  44
TORSDOF 10
ENDMDL
MODEL      165
REMARK 921   NORMALIZED FREE ENERGY PREDICTED BY IDOCK:   14.57 KCAL/MOL
REMARK 922        TOTAL FREE ENERGY PREDICTED BY IDOCK:   20.33 KCAL/MOL
REMARK 923 INTER-LIGAND FREE ENERGY PREDICTED BY IDOCK:    5.63 KCAL/MOL
REMARK 924 INTRA-LIGAND FREE ENERGY PREDICTED BY IDOCK:   14.70 KCAL/MOL
REMARK 927      BINDING AFFINITY PREDICTED BY RF-SCORE:    0.00 PKD
ROOT
HETATM    1  C   UNL     1     -10.156  10.792  65.862  1.00  0.00    -0.314 C  
HETATM    2  C   UNL     1      -9.053   9.866  66.386  1.00  0.00    -0.179 C  
HETATM    3  C   UNL     1      -9.070   9.610  67.925  1.00  0.00    -0.125 C  
HETATM    4  C   UNL     1      -8.188  14.933  65.659  1.00  0.00     2.765 C  
HETATM    5  C   UNL     1     -10.275   8.691  68.125  1.00  0.00    -0.205 C  
HETATM    6  C   UNL     1      -9.502  12.103  65.407  1.00  0.00    -0.021 C  
HETATM    7  C   UNL     1     -11.526   9.563  67.746  1.00  0.00     0.754 C  
HETATM    8  C   UNL     1      -7.758  13.591  66.278  1.00  0.00     1.974 C  
HETATM    9  C   UNL     1      -9.258  15.514  66.517  1.00  0.00    -0.324 A  
HETATM   10  C   UNL     1     -11.284  10.940  66.898  1.00  0.00    -0.162 C  
HETATM   11  C   UNL     1     -11.008  18.094  68.328  1.00  0.00     0.140 A  
HETATM   12  C   UNL     1     -10.036  14.717  67.341  1.00  0.00    -0.223 A  
HETATM   13  N   UNL     1     -10.785  15.568  68.117  1.00  0.00    -0.273 NA 
HETATM   14  C   UNL     1     -11.238  12.395  67.535  1.00  0.00    -0.348 C  
HETATM   15  C   UNL     1     -10.537  19.300  67.786  1.00  0.00    -0.410 A  
HETATM   16  N   UNL     1      -8.880  12.685  66.575  1.00  0.00    -0.125 NA 
HETATM   17  C   UNL     1      -9.613  19.284  66.757  1.00  0.00    -0.398 A  
HETATM   18  C   UNL     1      -9.878  13.211  67.522  1.00  0.00    -0.216 C  
HETATM   19  C   UNL     1      -9.102  18.090  66.226  1.00  0.00    -0.197 A  
HETATM   20  C   UNL     1      -9.580  16.867  66.750  1.00  0.00    -0.273 A  
HETATM   21  H   UNL     1     -11.445  15.270  68.835  1.00  0.00     0.000 HD 
HETATM   22  C   UNL     1     -10.518  16.889  67.784  1.00  0.00    -0.340 A  
ENDROOT
BRANCH   3  23
HETATM   23  O   UNL     1      -9.271  10.766  68.814  1.00  0.00    -0.175 OA 
BRANCH  23  24
HETATM   24  C   UNL     1      -9.947  10.466  69.955  1.00  0.00    -0.047 C  
HETATM   25  O   UNL     1      -9.655   9.498  70.648  1.00  0.00    -0.258 OA 
BRANCH  24  26
HETATM   26  C   UNL     1     -11.081  11.355  70.416  1.00  0.00     0.406 A  
HETATM   27  C   UNL     1     -11.259  12.732  70.314  1.00  0.00     0.575 A  
HETATM   28  C   UNL     1     -13.002  11.302  71.930  1.00  0.00    -0.365 A  
HETATM   29  C   UNL     1     -12.251  13.421  71.059  1.00  0.00    -0.224 A  
HETATM   30  C   UNL     1     -12.067  10.664  71.112  1.00  0.00    -0.445 A  
HETATM   31  C   UNL     1     -13.089  12.706  71.943  1.00  0.00    -0.366 A  
BRANCH  28  32
HETATM   32  O   UNL     1     -13.826  10.536  72.720  1.00  0.00     0.450 OA 
HETATM   33  C   UNL     1     -13.256   9.297  73.160  1.00  0.00     0.873 C  
ENDBRANCH  28  32
BRANCH  31  34
HETATM   34  O   UNL     1     -13.904  13.443  72.758  1.00  0.00    -0.720 OA 
HETATM   35  C   UNL     1     -13.387  14.600  73.402  1.00  0.00     0.059 C  
ENDBRANCH  31  34
BRANCH  29  36
HETATM   36  O   UNL     1     -12.214  14.782  70.827  1.00  0.00    -0.272 OA 
HETATM   37  C   UNL     1     -11.117  15.541  71.331  1.00  0.00    -0.254 C  
ENDBRANCH  29  36
ENDBRANCH  24  26
ENDBRANCH  23  24
ENDBRANCH   3  23
BRANCH   5  38
HETATM   38  O   UNL     1     -10.133   7.547  67.255  1.00  0.00    -0.184 OA 
HETATM   39  C   UNL     1      -8.933   7.451  66.503  1.00  0.00    -0.159 C  
ENDBRANCH   5  38
BRANCH   7  40
HETATM   40  C   UNL     1     -12.396   9.756  68.974  1.00  0.00     1.586 C  
HETATM   41  O   UNL     1     -13.186  10.674  69.155  1.00  0.00     0.570 OA 
BRANCH  40  42
HETATM   42  O   UNL     1     -12.128   8.780  69.878  1.00  0.00     0.468 OA 
HETATM   43  C   UNL     1     -13.230   7.959  70.261  1.00  0.00     1.500 C  
ENDBRANCH  40  42
ENDBRANCH   7  40
BRANCH  15  44
HETATM   44  O   UNL     1     -10.910  20.559  68.179  1.00  0.00     0.121 OA 
HETATM   45  C   UNL     1     -10.561  20.956  69.497  1.00  0.00     0.994 C  
ENDBRANCH  15  44
TORSDOF 10
ENDMDL
MODEL      166
REMARK 921   NORMALIZED FREE ENERGY PREDICTED BY IDOCK:   15.34 KCAL/MOL
REMARK 922        TOTAL FREE ENERGY PREDICTED BY IDOCK:   21.55 KCAL/MOL
REMARK 923 INTER-LIGAND FREE ENERGY PREDICTED BY IDOCK:   12.12 KCAL/MOL
REMARK 924 INTRA-LIGAND FREE ENERGY PREDICTED BY IDOCK:    9.43 KCAL/MOL
REMARK 927      BINDING AFFINITY PREDICTED BY RF-SCORE:    0.00 PKD
ROOT
HETATM    1  C   UNL     1      -9.398   5.705  68.780  1.00  0.00    -0.145 C  
HETATM    2  C   UNL     1      -8.185   5.684  69.715  1.00  0.00    -0.106 C  
HETATM    3  C   UNL     1      -8.192   6.761  70.845  1.00  0.00    -0.123 C  
HETATM    4  C   UNL     1      -8.029   8.191  65.172  1.00  0.00    -0.126 C  
HETATM    5  C   UNL     1      -9.259   6.258  71.816  1.00  0.00    -0.144 C  
HETATM    6  C   UNL     1      -8.927   6.183  67.400  1.00  0.00    -0.112 C  
HETATM    7  C   UNL     1     -10.613   6.348  71.026  1.00  0.00    -0.282 C  
HETATM    8  C   UNL     1      -7.426   7.933  66.564  1.00  0.00    -0.088 C  
HETATM    9  C   UNL     1      -9.185   9.115  65.336  1.00  0.00    -0.266 A  
HETATM   10  C   UNL     1     -10.553   6.511  69.400  1.00  0.00    -0.291 C  
HETATM   11  C   UNL     1     -11.313  11.920  64.556  1.00  0.00    -0.382 A  
HETATM   12  C   UNL     1      -9.857   9.226  66.542  1.00  0.00    -0.263 A  
HETATM   13  N   UNL     1     -10.733  10.276  66.410  1.00  0.00    -0.094 NA 
HETATM   14  C   UNL     1     -10.724   7.887  68.623  1.00  0.00    -0.073 C  
HETATM   15  C   UNL     1     -11.007  12.248  63.226  1.00  0.00    -0.311 A  
HETATM   16  N   UNL     1      -8.414   7.523  67.576  1.00  0.00    -0.119 NA 
HETATM   17  C   UNL     1     -10.073  11.507  62.526  1.00  0.00     0.426 A  
HETATM   18  C   UNL     1      -9.493   8.494  67.830  1.00  0.00    -0.145 C  
HETATM   19  C   UNL     1      -9.389  10.425  63.102  1.00  0.00    -0.340 A  
HETATM   20  C   UNL     1      -9.699  10.072  64.436  1.00  0.00    -0.277 A  
HETATM   21  H   UNL     1     -11.356  10.610  67.145  1.00  0.00     0.000 HD 
HETATM   22  C   UNL     1     -10.648  10.820  65.135  1.00  0.00    -0.169 A  
ENDROOT
BRANCH   3  23
HETATM   23  O   UNL     1      -8.569   8.138  70.482  1.00  0.00    -0.125 OA 
BRANCH  23  24
HETATM   24  C   UNL     1      -9.236   8.797  71.466  1.00  0.00    -0.262 C  
HETATM   25  O   UNL     1      -9.214   8.420  72.632  1.00  0.00    -0.249 OA 
BRANCH  24  26
HETATM   26  C   UNL     1     -10.013  10.054  71.139  1.00  0.00     0.738 A  
HETATM   27  C   UNL     1     -11.383  10.298  71.116  1.00  0.00    -0.225 A  
HETATM   28  C   UNL     1      -9.691  12.222  70.052  1.00  0.00     2.872 A  
HETATM   29  C   UNL     1     -11.932  11.457  70.507  1.00  0.00    -0.356 A  
HETATM   30  C   UNL     1      -9.199  11.108  70.736  1.00  0.00     4.614 A  
HETATM   31  C   UNL     1     -11.077  12.400  69.895  1.00  0.00     0.293 A  
BRANCH  28  32
HETATM   32  O   UNL     1      -8.799  13.130  69.535  1.00  0.00     1.028 OA 
HETATM   33  C   UNL     1      -8.017  13.829  70.512  1.00  0.00     3.044 C  
ENDBRANCH  28  32
BRANCH  31  34
HETATM   34  O   UNL     1     -11.671  13.403  69.178  1.00  0.00    -0.284 OA 
HETATM   35  C   UNL     1     -12.146  14.560  69.854  1.00  0.00    -0.336 C  
ENDBRANCH  31  34
BRANCH  29  36
HETATM   36  O   UNL     1     -13.311  11.464  70.568  1.00  0.00     0.271 OA 
HETATM   37  C   UNL     1     -13.989  10.316  71.075  1.00  0.00     0.686 C  
ENDBRANCH  29  36
ENDBRANCH  24  26
ENDBRANCH  23  24
ENDBRANCH   3  23
BRANCH   5  38
HETATM   38  O   UNL     1      -8.942   4.898  72.187  1.00  0.00    -0.129 OA 
HETATM   39  C   UNL     1      -9.246   4.502  73.515  1.00  0.00    -0.111 C  
ENDBRANCH   5  38
BRANCH   7  40
HETATM   40  C   UNL     1     -11.523   7.359  71.699  1.00  0.00    -0.263 C  
HETATM   41  O   UNL     1     -11.639   8.538  71.388  1.00  0.00    -0.266 OA 
BRANCH  40  42
HETATM   42  O   UNL     1     -12.156   6.773  72.746  1.00  0.00     0.046 OA 
HETATM   43  C   UNL     1     -13.567   6.974  72.818  1.00  0.00     1.186 C  
ENDBRANCH  40  42
ENDBRANCH   7  40
BRANCH  15  44
HETATM   44  O   UNL     1     -11.560  13.272  62.502  1.00  0.00     1.097 OA 
HETATM   45  C   UNL     1     -12.963  13.461  62.614  1.00  0.00     2.276 C  
ENDBRANCH  15  44
TORSDOF 10
ENDMDL
MODEL      167
REMARK 921   NORMALIZED FREE ENERGY PREDICTED BY IDOCK:   15.48 KCAL/MOL
REMARK 922        TOTAL FREE ENERGY PREDICTED BY IDOCK:   21.77 KCAL/MOL
REMARK 923 INTER-LIGAND FREE ENERGY PREDICTED BY IDOCK:    1.10 KCAL/MOL
REMARK 924 INTRA-LIGAND FREE ENERGY PREDICTED BY IDOCK:   20.67 KCAL/MOL
REMARK 927      BINDING AFFINITY PREDICTED BY RF-SCORE:    0.00 PKD
ROOT
HETATM    1  C   UNL     1      -6.659  11.248  66.567  1.00  0.00    -0.108 C  
HETATM    2  C   UNL     1      -6.995  10.237  67.668  1.00  0.00    -0.084 C  
HETATM    3  C   UNL     1      -8.411   9.588  67.572  1.00  0.00    -0.125 C  
HETATM    4  C   UNL     1      -7.661  15.332  68.405  1.00  0.00    -0.124 C  
HETATM    5  C   UNL     1      -8.289   8.629  66.389  1.00  0.00    -0.113 C  
HETATM    6  C   UNL     1      -6.602  12.643  67.202  1.00  0.00    -0.007 C  
HETATM    7  C   UNL     1      -8.069   9.547  65.134  1.00  0.00    -0.126 C  
HETATM    8  C   UNL     1      -7.938  13.883  68.843  1.00  0.00     0.006 C  
HETATM    9  C   UNL     1      -8.569  15.651  67.268  1.00  0.00    -0.213 A  
HETATM   10  C   UNL     1      -7.624  11.101  65.377  1.00  0.00     0.369 C  
HETATM   11  C   UNL     1     -10.870  17.640  65.332  1.00  0.00     0.104 A  
HETATM   12  C   UNL     1      -9.108  14.654  66.471  1.00  0.00    -0.237 A  
HETATM   13  N   UNL     1     -10.028  15.260  65.650  1.00  0.00    -0.351 NA 
HETATM   14  C   UNL     1      -8.617  12.341  65.338  1.00  0.00     1.017 C  
HETATM   15  C   UNL     1     -10.690  18.954  65.792  1.00  0.00    -0.243 A  
HETATM   16  N   UNL     1      -7.918  12.911  67.736  1.00  0.00    -0.148 NA 
HETATM   17  C   UNL     1      -9.753  19.223  66.774  1.00  0.00    -0.413 A  
HETATM   18  C   UNL     1      -8.903  13.156  66.668  1.00  0.00    -0.064 C  
HETATM   19  C   UNL     1      -8.965  18.216  67.354  1.00  0.00    -0.256 A  
HETATM   20  C   UNL     1      -9.123  16.891  66.888  1.00  0.00    -0.248 A  
HETATM   21  H   UNL     1     -10.601  14.775  64.961  1.00  0.00     0.000 HD 
HETATM   22  C   UNL     1     -10.066  16.627  65.892  1.00  0.00    -0.320 A  
ENDROOT
BRANCH   3  23
HETATM   23  O   UNL     1      -9.555  10.470  67.282  1.00  0.00    -0.160 OA 
BRANCH  23  24
HETATM   24  C   UNL     1      -9.724  11.461  68.196  1.00  0.00    -0.192 C  
HETATM   25  O   UNL     1      -9.103  12.516  68.134  1.00  0.00    -0.196 OA 
BRANCH  24  26
HETATM   26  C   UNL     1     -10.725  11.290  69.318  1.00  0.00    -0.221 A  
HETATM   27  C   UNL     1     -11.386  10.157  69.785  1.00  0.00    -0.312 A  
HETATM   28  C   UNL     1     -12.218  12.635  70.714  1.00  0.00    -0.240 A  
HETATM   29  C   UNL     1     -12.502  10.241  70.656  1.00  0.00    -0.318 A  
HETATM   30  C   UNL     1     -11.074  12.492  69.925  1.00  0.00     0.246 A  
HETATM   31  C   UNL     1     -12.977  11.505  71.069  1.00  0.00    -0.159 A  
BRANCH  28  32
HETATM   32  O   UNL     1     -12.585  13.892  71.129  1.00  0.00    -0.334 OA 
HETATM   33  C   UNL     1     -11.989  14.317  72.361  1.00  0.00     0.273 C  
ENDBRANCH  28  32
BRANCH  31  34
HETATM   34  O   UNL     1     -14.155  11.529  71.765  1.00  0.00     0.631 OA 
HETATM   35  C   UNL     1     -14.324  12.465  72.822  1.00  0.00     1.331 C  
ENDBRANCH  31  34
BRANCH  29  36
HETATM   36  O   UNL     1     -13.018   8.995  70.952  1.00  0.00    -0.103 OA 
HETATM   37  C   UNL     1     -12.282   7.833  70.574  1.00  0.00     0.158 C  
ENDBRANCH  29  36
ENDBRANCH  24  26
ENDBRANCH  23  24
ENDBRANCH   3  23
BRANCH   5  38
HETATM   38  O   UNL     1      -7.164   7.753  66.619  1.00  0.00    -0.083 OA 
HETATM   39  C   UNL     1      -5.947   8.078  65.965  1.00  0.00    -0.038 C  
ENDBRANCH   5  38
BRANCH   7  40
HETATM   40  C   UNL     1      -9.247   9.398  64.188  1.00  0.00     0.018 C  
HETATM   41  O   UNL     1      -9.232   8.817  63.110  1.00  0.00     0.347 OA 
BRANCH  40  42
HETATM   42  O   UNL     1     -10.319  10.060  64.691  1.00  0.00    -0.091 OA 
HETATM   43  C   UNL     1     -10.299  11.480  64.559  1.00  0.00    -0.302 C  
ENDBRANCH  40  42
ENDBRANCH   7  40
BRANCH  15  44
HETATM   44  O   UNL     1     -11.370  20.061  65.356  1.00  0.00    -0.092 OA 
HETATM   45  C   UNL     1     -10.633  21.027  64.621  1.00  0.00     2.620 C  
ENDBRANCH  15  44
TORSDOF 10
ENDMDL
MODEL      168
REMARK 921   NORMALIZED FREE ENERGY PREDICTED BY IDOCK:   16.95 KCAL/MOL
REMARK 922        TOTAL FREE ENERGY PREDICTED BY IDOCK:   24.09 KCAL/MOL
REMARK 923 INTER-LIGAND FREE ENERGY PREDICTED BY IDOCK:   15.63 KCAL/MOL
REMARK 924 INTRA-LIGAND FREE ENERGY PREDICTED BY IDOCK:    8.46 KCAL/MOL
REMARK 927      BINDING AFFINITY PREDICTED BY RF-SCORE:    0.00 PKD
ROOT
HETATM    1  C   UNL     1     -12.118  12.953  68.709  1.00  0.00    -0.175 C  
HETATM    2  C   UNL     1     -10.969  13.964  68.785  1.00  0.00    -0.286 C  
HETATM    3  C   UNL     1      -9.720  13.625  67.914  1.00  0.00    -0.234 C  
HETATM    4  C   UNL     1     -11.470  10.199  72.324  1.00  0.00     1.762 C  
HETATM    5  C   UNL     1     -10.191  13.898  66.486  1.00  0.00    -0.280 C  
HETATM    6  C   UNL     1     -12.208  12.232  70.061  1.00  0.00    -0.196 C  
HETATM    7  C   UNL     1     -11.305  12.826  66.207  1.00  0.00    -0.365 C  
HETATM    8  C   UNL     1     -10.607  11.286  71.659  1.00  0.00     6.000 C  
HETATM    9  C   UNL     1     -11.459   8.999  71.442  1.00  0.00    -0.400 A  
HETATM   10  C   UNL     1     -11.961  12.038  67.482  1.00  0.00    -0.144 C  
HETATM   11  C   UNL     1     -11.250   5.491  70.634  1.00  0.00     0.037 A  
HETATM   12  C   UNL     1     -11.187   9.100  70.087  1.00  0.00    -0.187 A  
HETATM   13  N   UNL     1     -11.076   7.816  69.612  1.00  0.00    -0.439 NA 
HETATM   14  C   UNL     1     -11.544  10.578  67.951  1.00  0.00    -0.039 C  
HETATM   15  C   UNL     1     -11.510   4.825  71.842  1.00  0.00     0.756 A  
HETATM   16  N   UNL     1     -10.952  11.543  70.250  1.00  0.00     0.365 NA 
HETATM   17  C   UNL     1     -11.792   5.548  72.986  1.00  0.00    -0.055 A  
HETATM   18  C   UNL     1     -10.822  10.384  69.350  1.00  0.00    -0.248 C  
HETATM   19  C   UNL     1     -11.818   6.952  72.999  1.00  0.00     0.328 A  
HETATM   20  C   UNL     1     -11.575   7.636  71.786  1.00  0.00    -0.307 A  
HETATM   21  H   UNL     1     -10.862   7.569  68.646  1.00  0.00     0.000 HD 
HETATM   22  C   UNL     1     -11.297   6.901  70.633  1.00  0.00    -0.320 A  
ENDROOT
BRANCH   3  23
HETATM   23  O   UNL     1      -9.220  12.240  67.935  1.00  0.00    -0.176 OA 
BRANCH  23  24
HETATM   24  C   UNL     1      -7.878  12.142  67.746  1.00  0.00    -0.148 C  
HETATM   25  O   UNL     1      -7.085  12.875  68.328  1.00  0.00    -0.083 OA 
BRANCH  24  26
HETATM   26  C   UNL     1      -7.321  11.086  66.817  1.00  0.00    -0.139 A  
HETATM   27  C   UNL     1      -7.114  11.101  65.441  1.00  0.00     0.445 A  
HETATM   28  C   UNL     1      -6.866   8.682  66.777  1.00  0.00    -0.069 A  
HETATM   29  C   UNL     1      -6.852   9.916  64.705  1.00  0.00    -0.129 A  
HETATM   30  C   UNL     1      -7.038   9.887  67.463  1.00  0.00    -0.088 A  
HETATM   31  C   UNL     1      -6.803   8.672  65.372  1.00  0.00    -0.071 A  
BRANCH  28  32
HETATM   32  O   UNL     1      -6.767   7.516  67.497  1.00  0.00    -0.062 OA 
HETATM   33  C   UNL     1      -6.264   7.674  68.830  1.00  0.00    -0.036 C  
ENDBRANCH  28  32
BRANCH  31  34
HETATM   34  O   UNL     1      -6.721   7.551  64.590  1.00  0.00    -0.049 OA 
HETATM   35  C   UNL     1      -5.493   6.839  64.517  1.00  0.00    -0.027 C  
ENDBRANCH  31  34
BRANCH  29  36
HETATM   36  O   UNL     1      -6.722  10.169  63.354  1.00  0.00    -0.132 OA 
HETATM   37  C   UNL     1      -7.563  11.148  62.748  1.00  0.00     0.330 C  
ENDBRANCH  29  36
ENDBRANCH  24  26
ENDBRANCH  23  24
ENDBRANCH   3  23
BRANCH   5  38
HETATM   38  O   UNL     1     -10.711  15.243  66.419  1.00  0.00    -0.309 OA 
HETATM   39  C   UNL     1     -12.097  15.415  66.669  1.00  0.00     0.593 C  
ENDBRANCH   5  38
BRANCH   7  40
HETATM   40  C   UNL     1     -10.846  11.899  65.097  1.00  0.00    -0.300 C  
HETATM   41  O   UNL     1     -10.859  12.154  63.899  1.00  0.00    -0.331 OA 
BRANCH  40  42
HETATM   42  O   UNL     1     -10.467  10.709  65.627  1.00  0.00    -0.236 OA 
HETATM   43  C   UNL     1     -11.269  10.214  66.697  1.00  0.00     0.423 C  
ENDBRANCH  40  42
ENDBRANCH   7  40
BRANCH  15  44
HETATM   44  O   UNL     1     -11.519   3.467  72.026  1.00  0.00     1.298 OA 
HETATM   45  C   UNL     1     -11.966   2.668  70.941  1.00  0.00     9.354 C  
ENDBRANCH  15  44
TORSDOF 10
ENDMDL
MODEL      169
REMARK 921   NORMALIZED FREE ENERGY PREDICTED BY IDOCK:   18.42 KCAL/MOL
REMARK 922        TOTAL FREE ENERGY PREDICTED BY IDOCK:   26.43 KCAL/MOL
REMARK 923 INTER-LIGAND FREE ENERGY PREDICTED BY IDOCK:   20.11 KCAL/MOL
REMARK 924 INTRA-LIGAND FREE ENERGY PREDICTED BY IDOCK:    6.32 KCAL/MOL
REMARK 927      BINDING AFFINITY PREDICTED BY RF-SCORE:    0.00 PKD
ROOT
HETATM    1  C   UNL     1      -5.999  15.433  66.394  1.00  0.00     2.769 C  
HETATM    2  C   UNL     1      -7.211  16.281  65.994  1.00  0.00     1.019 C  
HETATM    3  C   UNL     1      -8.231  16.572  67.138  1.00  0.00    -0.179 C  
HETATM    4  C   UNL     1      -7.152  11.147  65.225  1.00  0.00     0.538 C  
HETATM    5  C   UNL     1      -7.505  17.586  68.020  1.00  0.00    -0.214 C  
HETATM    6  C   UNL     1      -6.128  14.065  65.712  1.00  0.00     8.781 C  
HETATM    7  C   UNL     1      -6.282  16.807  68.623  1.00  0.00    -0.151 C  
HETATM    8  C   UNL     1      -7.943  12.465  65.312  1.00  0.00     2.725 C  
HETATM    9  C   UNL     1      -6.896  10.671  66.613  1.00  0.00    -0.114 A  
HETATM   10  C   UNL     1      -5.838  15.397  67.924  1.00  0.00    -0.162 C  
HETATM   11  C   UNL     1      -6.679   8.276  69.300  1.00  0.00    -0.043 A  
HETATM   12  C   UNL     1      -6.898  11.544  67.689  1.00  0.00    -0.083 A  
HETATM   13  N   UNL     1      -6.816  10.772  68.822  1.00  0.00    -0.063 NA 
HETATM   14  C   UNL     1      -6.231  13.957  68.469  1.00  0.00    -0.093 C  
HETATM   15  C   UNL     1      -6.617   7.025  68.666  1.00  0.00    -0.054 A  
HETATM   16  N   UNL     1      -7.342  13.463  66.214  1.00  0.00     1.721 NA 
HETATM   17  C   UNL     1      -6.625   6.946  67.286  1.00  0.00    -0.051 A  
HETATM   18  C   UNL     1      -7.202  13.037  67.617  1.00  0.00    -0.151 C  
HETATM   19  C   UNL     1      -6.706   8.085  66.469  1.00  0.00    -0.062 A  
HETATM   20  C   UNL     1      -6.751   9.353  67.093  1.00  0.00    -0.076 A  
HETATM   21  H   UNL     1      -6.813  11.136  69.775  1.00  0.00     0.000 HD 
HETATM   22  C   UNL     1      -6.737   9.427  68.487  1.00  0.00    -0.058 A  
ENDROOT
BRANCH   3  23
HETATM   23  O   UNL     1      -8.621  15.454  68.015  1.00  0.00    -0.149 OA 
BRANCH  23  24
HETATM   24  C   UNL     1      -9.339  14.489  67.381  1.00  0.00    -0.197 C  
HETATM   25  O   UNL     1      -9.402  14.423  66.159  1.00  0.00    -0.269 OA 
BRANCH  24  26
HETATM   26  C   UNL     1     -10.068  13.438  68.190  1.00  0.00    -0.244 A  
HETATM   27  C   UNL     1     -10.296  12.089  67.935  1.00  0.00    -0.209 A  
HETATM   28  C   UNL     1     -11.656  13.273  70.043  1.00  0.00    -0.142 A  
HETATM   29  C   UNL     1     -11.245  11.333  68.671  1.00  0.00    -0.250 A  
HETATM   30  C   UNL     1     -10.652  13.947  69.344  1.00  0.00     0.019 A  
HETATM   31  C   UNL     1     -11.996  11.954  69.694  1.00  0.00    -0.298 A  
BRANCH  28  32
HETATM   32  O   UNL     1     -12.303  13.921  71.067  1.00  0.00    -0.346 OA 
HETATM   33  C   UNL     1     -12.559  13.114  72.223  1.00  0.00     0.178 C  
ENDBRANCH  28  32
BRANCH  31  34
HETATM   34  O   UNL     1     -13.012  11.224  70.248  1.00  0.00    -0.060 OA 
HETATM   35  C   UNL     1     -13.779  10.356  69.423  1.00  0.00     3.400 C  
ENDBRANCH  31  34
BRANCH  29  36
HETATM   36  O   UNL     1     -11.330  10.032  68.215  1.00  0.00    -0.192 OA 
HETATM   37  C   UNL     1     -10.604   9.011  68.895  1.00  0.00    -0.180 C  
ENDBRANCH  29  36
ENDBRANCH  24  26
ENDBRANCH  23  24
ENDBRANCH   3  23
BRANCH   5  38
HETATM   38  O   UNL     1      -7.084  18.696  67.198  1.00  0.00    -0.202 OA 
HETATM   39  C   UNL     1      -7.522  19.990  67.584  1.00  0.00    -0.292 C  
ENDBRANCH   5  38
BRANCH   7  40
HETATM   40  C   UNL     1      -6.439  16.710  70.129  1.00  0.00     0.255 C  
HETATM   41  O   UNL     1      -6.177  17.595  70.936  1.00  0.00     0.654 OA 
BRANCH  40  42
HETATM   42  O   UNL     1      -6.863  15.465  70.462  1.00  0.00     0.143 OA 
HETATM   43  C   UNL     1      -6.991  15.198  71.858  1.00  0.00     2.567 C  
ENDBRANCH  40  42
ENDBRANCH   7  40
BRANCH  15  44
HETATM   44  O   UNL     1      -6.544   5.808  69.292  1.00  0.00    -0.049 OA 
HETATM   45  C   UNL     1      -5.959   5.779  70.585  1.00  0.00    -0.029 C  
ENDBRANCH  15  44
TORSDOF 10
ENDMDL
MODEL      170
REMARK 921   NORMALIZED FREE ENERGY PREDICTED BY IDOCK:   19.30 KCAL/MOL
REMARK 922        TOTAL FREE ENERGY PREDICTED BY IDOCK:   27.82 KCAL/MOL
REMARK 923 INTER-LIGAND FREE ENERGY PREDICTED BY IDOCK:   10.58 KCAL/MOL
REMARK 924 INTRA-LIGAND FREE ENERGY PREDICTED BY IDOCK:   17.24 KCAL/MOL
REMARK 927      BINDING AFFINITY PREDICTED BY RF-SCORE:    0.00 PKD
ROOT
HETATM    1  C   UNL     1      -9.493  11.639  70.770  1.00  0.00     6.261 C  
HETATM    2  C   UNL     1      -9.801  12.160  69.362  1.00  0.00     0.741 C  
HETATM    3  C   UNL     1     -10.986  11.453  68.633  1.00  0.00    -0.220 C  
HETATM    4  C   UNL     1      -6.112   8.595  70.160  1.00  0.00    -0.033 C  
HETATM    5  C   UNL     1     -12.223  11.975  69.362  1.00  0.00    -0.097 C  
HETATM    6  C   UNL     1      -8.144  10.909  70.723  1.00  0.00     3.225 C  
HETATM    7  C   UNL     1     -12.115  11.401  70.820  1.00  0.00    -0.433 C  
HETATM    8  C   UNL     1      -7.048   9.340  69.191  1.00  0.00    -0.062 C  
HETATM    9  C   UNL     1      -6.905   7.537  70.844  1.00  0.00    -0.047 A  
HETATM   10  C   UNL     1     -10.671  10.817  71.320  1.00  0.00     2.045 C  
HETATM   11  C   UNL     1      -7.587   4.256  72.175  1.00  0.00    -0.079 A  
HETATM   12  C   UNL     1      -8.283   7.625  70.958  1.00  0.00    -0.107 A  
HETATM   13  N   UNL     1      -8.714   6.424  71.466  1.00  0.00    -0.134 NA 
HETATM   14  C   UNL     1     -10.282   9.277  71.349  1.00  0.00    -0.371 C  
HETATM   15  C   UNL     1      -6.328   3.647  72.300  1.00  0.00    -0.014 A  
HETATM   16  N   UNL     1      -8.303   9.801  69.809  1.00  0.00    -0.162 NA 
HETATM   17  C   UNL     1      -5.184   4.342  71.955  1.00  0.00    -0.004 A  
HETATM   18  C   UNL     1      -9.150   8.739  70.378  1.00  0.00    -0.176 C  
HETATM   19  C   UNL     1      -5.225   5.655  71.461  1.00  0.00    -0.009 A  
HETATM   20  C   UNL     1      -6.484   6.288  71.346  1.00  0.00    -0.050 A  
HETATM   21  H   UNL     1      -9.689   6.185  71.646  1.00  0.00     0.000 HD 
HETATM   22  C   UNL     1      -7.635   5.583  71.702  1.00  0.00    -0.098 A  
ENDROOT
BRANCH   3  23
HETATM   23  O   UNL     1     -11.053   9.983  68.691  1.00  0.00    -0.228 OA 
BRANCH  23  24
HETATM   24  C   UNL     1      -9.919   9.368  68.260  1.00  0.00    -0.174 C  
HETATM   25  O   UNL     1      -8.836   9.544  68.807  1.00  0.00    -0.128 OA 
BRANCH  24  26
HETATM   26  C   UNL     1      -9.978   8.412  67.088  1.00  0.00    -0.304 A  
HETATM   27  C   UNL     1     -10.551   7.149  66.970  1.00  0.00    -0.413 A  
HETATM   28  C   UNL     1      -8.890   8.030  64.930  1.00  0.00     0.233 A  
HETATM   29  C   UNL     1     -10.255   6.286  65.883  1.00  0.00     0.553 A  
HETATM   30  C   UNL     1      -9.279   8.870  65.976  1.00  0.00    -0.287 A  
HETATM   31  C   UNL     1      -9.349   6.701  64.883  1.00  0.00     1.140 A  
BRANCH  28  32
HETATM   32  O   UNL     1      -8.052   8.523  63.959  1.00  0.00    -0.153 OA 
HETATM   33  C   UNL     1      -7.866   9.944  63.990  1.00  0.00    -0.145 C  
ENDBRANCH  28  32
BRANCH  31  34
HETATM   34  O   UNL     1      -8.972   5.765  63.959  1.00  0.00     0.238 OA 
HETATM   35  C   UNL     1      -7.596   5.443  63.812  1.00  0.00    -0.073 C  
ENDBRANCH  31  34
BRANCH  29  36
HETATM   36  O   UNL     1     -10.905   5.073  66.000  1.00  0.00    -0.283 OA 
HETATM   37  C   UNL     1     -11.174   4.316  64.822  1.00  0.00     0.293 C  
ENDBRANCH  29  36
ENDBRANCH  24  26
ENDBRANCH  23  24
ENDBRANCH   3  23
BRANCH   5  38
HETATM   38  O   UNL     1     -12.192  13.419  69.349  1.00  0.00    -0.288 OA 
HETATM   39  C   UNL     1     -11.676  14.044  68.184  1.00  0.00    -0.352 C  
ENDBRANCH   5  38
BRANCH   7  40
HETATM   40  C   UNL     1     -13.270  10.449  71.073  1.00  0.00    -0.278 C  
HETATM   41  O   UNL     1     -13.319   9.274  70.730  1.00  0.00    -0.034 OA 
BRANCH  40  42
HETATM   42  O   UNL     1     -14.277  11.113  71.695  1.00  0.00     0.980 OA 
HETATM   43  C   UNL     1     -13.910  12.304  72.388  1.00  0.00     0.135 C  
ENDBRANCH  40  42
ENDBRANCH   7  40
BRANCH  15  44
HETATM   44  O   UNL     1      -6.090   2.375  72.751  1.00  0.00    -0.008 OA 
HETATM   45  C   UNL     1      -6.621   2.029  74.022  1.00  0.00    -0.021 C  
ENDBRANCH  15  44
TORSDOF 10
ENDMDL
MODEL      171
REMARK 921   NORMALIZED FREE ENERGY PREDICTED BY IDOCK:   19.68 KCAL/MOL
REMARK 922        TOTAL FREE ENERGY PREDICTED BY IDOCK:   28.43 KCAL/MOL
REMARK 923 INTER-LIGAND FREE ENERGY PREDICTED BY IDOCK:   22.80 KCAL/MOL
REMARK 924 INTRA-LIGAND FREE ENERGY PREDICTED BY IDOCK:    5.62 KCAL/MOL
REMARK 927      BINDING AFFINITY PREDICTED BY RF-SCORE:    0.00 PKD
ROOT
HETATM    1  C   UNL     1     -12.988  14.998  69.817  1.00  0.00     0.187 C  
HETATM    2  C   UNL     1     -11.654  15.753  69.843  1.00  0.00    -0.355 C  
HETATM    3  C   UNL     1     -10.619  15.320  68.759  1.00  0.00    -0.240 C  
HETATM    4  C   UNL     1     -12.484  11.664  72.931  1.00  0.00     4.093 C  
HETATM    5  C   UNL     1     -11.196  15.886  67.462  1.00  0.00    -0.171 C  
HETATM    6  C   UNL     1     -13.059  14.114  71.069  1.00  0.00    -0.302 C  
HETATM    7  C   UNL     1     -12.533  15.096  67.226  1.00  0.00     0.876 C  
HETATM    8  C   UNL     1     -11.503  12.656  72.281  1.00  0.00     5.290 C  
HETATM    9  C   UNL     1     -12.831  10.628  71.918  1.00  0.00    -0.487 A  
HETATM   10  C   UNL     1     -13.175  14.265  68.478  1.00  0.00     2.973 C  
HETATM   11  C   UNL     1     -13.452   7.305  70.666  1.00  0.00     0.451 A  
HETATM   12  C   UNL     1     -12.712  10.877  70.560  1.00  0.00    -0.280 A  
HETATM   13  N   UNL     1     -12.928   9.681  69.920  1.00  0.00     0.237 NA 
HETATM   14  C   UNL     1     -13.015  12.699  68.698  1.00  0.00     2.267 C  
HETATM   15  C   UNL     1     -13.694   6.526  71.809  1.00  0.00     0.246 A  
HETATM   16  N   UNL     1     -11.959  13.181  70.983  1.00  0.00    -0.018 NA 
HETATM   17  C   UNL     1     -13.678   7.111  73.062  1.00  0.00     1.759 A  
HETATM   18  C   UNL     1     -12.183  12.166  69.939  1.00  0.00    -0.170 C  
HETATM   19  C   UNL     1     -13.411   8.476  73.250  1.00  0.00     1.034 A  
HETATM   20  C   UNL     1     -13.183   9.276  72.107  1.00  0.00    -0.535 A  
HETATM   21  H   UNL     1     -12.890   9.546  68.910  1.00  0.00     0.000 HD 
HETATM   22  C   UNL     1     -13.207   8.682  70.844  1.00  0.00     0.246 A  
ENDROOT
BRANCH   3  23
HETATM   23  O   UNL     1     -10.418  13.878  68.535  1.00  0.00    -0.240 OA 
BRANCH  23  24
HETATM   24  C   UNL     1      -9.990  13.575  67.281  1.00  0.00    -0.236 C  
HETATM   25  O   UNL     1     -10.086  14.369  66.352  1.00  0.00    -0.268 OA 
BRANCH  24  26
HETATM   26  C   UNL     1      -9.346  12.233  67.007  1.00  0.00    -0.205 A  
HETATM   27  C   UNL     1      -8.807  11.287  67.874  1.00  0.00    -0.142 A  
HETATM   28  C   UNL     1      -8.363  10.975  65.154  1.00  0.00     0.090 A  
HETATM   29  C   UNL     1      -7.991  10.222  67.414  1.00  0.00    -0.107 A  
HETATM   30  C   UNL     1      -9.227  11.954  65.650  1.00  0.00    -0.060 A  
HETATM   31  C   UNL     1      -7.698  10.106  66.037  1.00  0.00    -0.120 A  
BRANCH  28  32
HETATM   32  O   UNL     1      -8.174  10.883  63.796  1.00  0.00     0.028 OA 
HETATM   33  C   UNL     1      -9.348  11.116  63.008  1.00  0.00    -0.350 C  
ENDBRANCH  28  32
BRANCH  31  34
HETATM   34  O   UNL     1      -6.770   9.167  65.677  1.00  0.00    -0.071 OA 
HETATM   35  C   UNL     1      -5.513   9.589  65.162  1.00  0.00    -0.046 C  
ENDBRANCH  31  34
BRANCH  29  36
HETATM   36  O   UNL     1      -7.537   9.436  68.455  1.00  0.00    -0.081 OA 
HETATM   37  C   UNL     1      -6.642  10.000  69.410  1.00  0.00    -0.053 C  
ENDBRANCH  29  36
ENDBRANCH  24  26
ENDBRANCH  23  24
ENDBRANCH   3  23
BRANCH   5  38
HETATM   38  O   UNL     1     -11.430  17.300  67.639  1.00  0.00     0.177 OA 
HETATM   39  C   UNL     1     -11.007  18.161  66.593  1.00  0.00     0.192 C  
ENDBRANCH   5  38
BRANCH   7  40
HETATM   40  C   UNL     1     -12.416  14.276  65.954  1.00  0.00    -0.383 C  
HETATM   41  O   UNL     1     -12.091  13.097  65.890  1.00  0.00    -0.406 OA 
BRANCH  40  42
HETATM   42  O   UNL     1     -12.671  15.064  64.880  1.00  0.00    -0.184 OA 
HETATM   43  C   UNL     1     -11.907  14.793  63.707  1.00  0.00     0.351 C  
ENDBRANCH  40  42
ENDBRANCH   7  40
BRANCH  15  44
HETATM   44  O   UNL     1     -13.961   5.182  71.826  1.00  0.00     2.901 OA 
HETATM   45  C   UNL     1     -14.228   4.590  73.089  1.00  0.00     4.914 C  
ENDBRANCH  15  44
TORSDOF 10
ENDMDL
MODEL      172
REMARK 921   NORMALIZED FREE ENERGY PREDICTED BY IDOCK:   19.71 KCAL/MOL
REMARK 922        TOTAL FREE ENERGY PREDICTED BY IDOCK:   28.48 KCAL/MOL
REMARK 923 INTER-LIGAND FREE ENERGY PREDICTED BY IDOCK:    6.07 KCAL/MOL
REMARK 924 INTRA-LIGAND FREE ENERGY PREDICTED BY IDOCK:   22.41 KCAL/MOL
REMARK 927      BINDING AFFINITY PREDICTED BY RF-SCORE:    0.00 PKD
ROOT
HETATM    1  C   UNL     1      -7.044  13.973  67.403  1.00  0.00    -0.096 C  
HETATM    2  C   UNL     1      -8.436  14.609  67.466  1.00  0.00    -0.200 C  
HETATM    3  C   UNL     1      -9.082  14.666  68.886  1.00  0.00    -0.148 C  
HETATM    4  C   UNL     1      -7.824   9.604  66.231  1.00  0.00    -0.101 C  
HETATM    5  C   UNL     1      -8.284  15.754  69.603  1.00  0.00    -0.010 C  
HETATM    6  C   UNL     1      -7.165  12.634  66.664  1.00  0.00     0.655 C  
HETATM    7  C   UNL     1      -6.828  15.179  69.734  1.00  0.00    -0.179 C  
HETATM    8  C   UNL     1      -8.742  10.756  66.676  1.00  0.00    -0.147 C  
HETATM    9  C   UNL     1      -7.078   9.122  67.427  1.00  0.00    -0.079 A  
HETATM   10  C   UNL     1      -6.411  13.900  68.804  1.00  0.00    -0.094 C  
HETATM   11  C   UNL     1      -5.666   6.691  69.685  1.00  0.00    -0.015 A  
HETATM   12  C   UNL     1      -6.881   9.934  68.532  1.00  0.00    -0.059 A  
HETATM   13  N   UNL     1      -6.331   9.141  69.510  1.00  0.00    -0.043 NA 
HETATM   14  C   UNL     1      -6.387  12.391  69.302  1.00  0.00    -0.106 C  
HETATM   15  C   UNL     1      -5.612   5.499  68.946  1.00  0.00    -0.011 A  
HETATM   16  N   UNL     1      -8.053  11.805  67.447  1.00  0.00    -0.152 NA 
HETATM   17  C   UNL     1      -6.037   5.478  67.630  1.00  0.00    -0.026 A  
HETATM   18  C   UNL     1      -7.420  11.352  68.697  1.00  0.00    -0.119 C  
HETATM   19  C   UNL     1      -6.544   6.619  66.988  1.00  0.00    -0.048 A  
HETATM   20  C   UNL     1      -6.588   7.831  67.714  1.00  0.00    -0.060 A  
HETATM   21  H   UNL     1      -6.089   9.459  70.448  1.00  0.00     0.000 HD 
HETATM   22  C   UNL     1      -6.152   7.847  69.040  1.00  0.00    -0.039 A  
ENDROOT
BRANCH   3  23
HETATM   23  O   UNL     1      -9.001  13.461  69.729  1.00  0.00     1.502 OA 
BRANCH  23  24
HETATM   24  C   UNL     1      -9.422  12.329  69.104  1.00  0.00     0.551 C  
HETATM   25  O   UNL     1      -9.017  11.218  69.428  1.00  0.00     0.155 OA 
BRANCH  24  26
HETATM   26  C   UNL     1     -10.441  12.418  67.989  1.00  0.00    -0.227 A  
HETATM   27  C   UNL     1     -10.726  11.545  66.943  1.00  0.00    -0.304 A  
HETATM   28  C   UNL     1     -11.871  14.071  66.890  1.00  0.00    -0.430 A  
HETATM   29  C   UNL     1     -11.519  11.933  65.832  1.00  0.00    -0.278 A  
HETATM   30  C   UNL     1     -11.155  13.612  67.998  1.00  0.00    -0.285 A  
HETATM   31  C   UNL     1     -12.039  13.245  65.764  1.00  0.00    -0.441 A  
BRANCH  28  32
HETATM   32  O   UNL     1     -12.399  15.339  66.920  1.00  0.00     0.375 OA 
HETATM   33  C   UNL     1     -13.299  15.642  65.846  1.00  0.00     3.263 C  
ENDBRANCH  28  32
BRANCH  31  34
HETATM   34  O   UNL     1     -12.646  13.612  64.594  1.00  0.00    -0.597 OA 
HETATM   35  C   UNL     1     -12.315  14.860  63.997  1.00  0.00    -0.059 C  
ENDBRANCH  31  34
BRANCH  29  36
HETATM   36  O   UNL     1     -11.631  10.919  64.902  1.00  0.00     0.387 OA 
HETATM   37  C   UNL     1     -10.628   9.907  64.856  1.00  0.00     1.037 C  
ENDBRANCH  29  36
ENDBRANCH  24  26
ENDBRANCH  23  24
ENDBRANCH   3  23
BRANCH   5  38
HETATM   38  O   UNL     1      -8.317  16.955  68.801  1.00  0.00    -0.242 OA 
HETATM   39  C   UNL     1      -9.464  17.161  67.992  1.00  0.00    -0.262 C  
ENDBRANCH   5  38
BRANCH   7  40
HETATM   40  C   UNL     1      -6.491  14.991  71.202  1.00  0.00     0.559 C  
HETATM   41  O   UNL     1      -7.132  14.324  72.005  1.00  0.00     1.619 OA 
BRANCH  40  42
HETATM   42  O   UNL     1      -5.394  15.725  71.513  1.00  0.00    -0.031 OA 
HETATM   43  C   UNL     1      -5.617  17.109  71.776  1.00  0.00     0.877 C  
ENDBRANCH  40  42
ENDBRANCH   7  40
BRANCH  15  44
HETATM   44  O   UNL     1      -5.160   4.288  69.403  1.00  0.00     0.000 OA 
HETATM   45  C   UNL     1      -6.138   3.349  69.825  1.00  0.00    -0.024 C  
ENDBRANCH  15  44
TORSDOF 10
ENDMDL
MODEL      173
REMARK 921   NORMALIZED FREE ENERGY PREDICTED BY IDOCK:   21.34 KCAL/MOL
REMARK 922        TOTAL FREE ENERGY PREDICTED BY IDOCK:   31.06 KCAL/MOL
REMARK 923 INTER-LIGAND FREE ENERGY PREDICTED BY IDOCK:   20.80 KCAL/MOL
REMARK 924 INTRA-LIGAND FREE ENERGY PREDICTED BY IDOCK:   10.26 KCAL/MOL
REMARK 927      BINDING AFFINITY PREDICTED BY RF-SCORE:    0.00 PKD
ROOT
HETATM    1  C   UNL     1     -11.815  12.147  69.474  1.00  0.00    -0.386 C  
HETATM    2  C   UNL     1     -11.440  13.341  70.357  1.00  0.00     0.157 C  
HETATM    3  C   UNL     1     -10.090  14.038  70.001  1.00  0.00     1.135 C  
HETATM    4  C   UNL     1     -10.349   8.478  71.810  1.00  0.00    -0.354 C  
HETATM    5  C   UNL     1     -10.399  14.782  68.703  1.00  0.00    -0.245 C  
HETATM    6  C   UNL     1     -11.710  10.874  70.324  1.00  0.00    -0.347 C  
HETATM    7  C   UNL     1     -10.681  13.659  67.641  1.00  0.00    -0.253 C  
HETATM    8  C   UNL     1     -10.131   9.993  71.980  1.00  0.00     3.088 C  
HETATM    9  C   UNL     1      -9.542   8.024  70.644  1.00  0.00    -0.172 A  
HETATM   10  C   UNL     1     -10.990  12.145  68.176  1.00  0.00    -0.271 C  
HETATM   11  C   UNL     1      -7.317   5.866  68.801  1.00  0.00    -0.084 A  
HETATM   12  C   UNL     1      -9.158   8.903  69.644  1.00  0.00    -0.151 A  
HETATM   13  N   UNL     1      -8.287   8.219  68.832  1.00  0.00    -0.126 NA 
HETATM   14  C   UNL     1      -9.922  10.969  68.222  1.00  0.00    -0.190 C  
HETATM   15  C   UNL     1      -7.358   4.639  69.481  1.00  0.00    -0.052 A  
HETATM   16  N   UNL     1     -10.331  10.766  70.743  1.00  0.00     1.141 NA 
HETATM   17  C   UNL     1      -8.168   4.487  70.591  1.00  0.00    -0.076 A  
HETATM   18  C   UNL     1      -9.445  10.401  69.623  1.00  0.00    -0.086 C  
HETATM   19  C   UNL     1      -8.961   5.533  71.090  1.00  0.00    -0.153 A  
HETATM   20  C   UNL     1      -8.944   6.769  70.405  1.00  0.00    -0.152 A  
HETATM   21  H   UNL     1      -7.822   8.614  68.014  1.00  0.00     0.000 HD 
HETATM   22  C   UNL     1      -8.129   6.915  69.281  1.00  0.00    -0.120 A  
ENDROOT
BRANCH   3  23
HETATM   23  O   UNL     1      -8.923  13.182  69.728  1.00  0.00     1.688 OA 
BRANCH  23  24
HETATM   24  C   UNL     1      -7.776  13.877  69.507  1.00  0.00     0.439 C  
HETATM   25  O   UNL     1      -6.734  13.324  69.175  1.00  0.00    -0.104 OA 
BRANCH  24  26
HETATM   26  C   UNL     1      -7.770  15.385  69.642  1.00  0.00    -0.156 A  
HETATM   27  C   UNL     1      -6.751  16.313  69.450  1.00  0.00    -0.209 A  
HETATM   28  C   UNL     1      -9.105  17.177  70.638  1.00  0.00     4.195 A  
HETATM   29  C   UNL     1      -6.858  17.653  69.903  1.00  0.00     0.410 A  
HETATM   30  C   UNL     1      -8.981  15.895  70.099  1.00  0.00     0.821 A  
HETATM   31  C   UNL     1      -8.024  18.076  70.578  1.00  0.00     3.821 A  
BRANCH  28  32
HETATM   32  O   UNL     1     -10.292  17.539  71.227  1.00  0.00     2.271 OA 
HETATM   33  C   UNL     1     -11.308  16.529  71.200  1.00  0.00    -0.007 C  
ENDBRANCH  28  32
BRANCH  31  34
HETATM   34  O   UNL     1      -7.998  19.323  71.141  1.00  0.00     2.721 OA 
HETATM   35  C   UNL     1      -8.695  20.389  70.510  1.00  0.00     1.861 C  
ENDBRANCH  31  34
BRANCH  29  36
HETATM   36  O   UNL     1      -5.712  18.377  69.639  1.00  0.00    -0.222 OA 
HETATM   37  C   UNL     1      -5.261  19.335  70.595  1.00  0.00    -0.218 C  
ENDBRANCH  29  36
ENDBRANCH  24  26
ENDBRANCH  23  24
ENDBRANCH   3  23
BRANCH   5  38
HETATM   38  O   UNL     1     -11.553  15.624  68.916  1.00  0.00    -0.343 OA 
HETATM   39  C   UNL     1     -11.531  16.914  68.324  1.00  0.00     0.188 C  
ENDBRANCH   5  38
BRANCH   7  40
HETATM   40  C   UNL     1      -9.619  13.711  66.558  1.00  0.00    -0.286 C  
HETATM   41  O   UNL     1      -9.745  13.302  65.411  1.00  0.00    -0.151 OA 
BRANCH  40  42
HETATM   42  O   UNL     1      -8.476  14.234  67.068  1.00  0.00    -0.210 OA 
HETATM   43  C   UNL     1      -7.259  13.765  66.490  1.00  0.00     2.046 C  
ENDBRANCH  40  42
ENDBRANCH   7  40
BRANCH  15  44
HETATM   44  O   UNL     1      -6.650   3.513  69.152  1.00  0.00    -0.033 OA 
HETATM   45  C   UNL     1      -5.706   3.625  68.096  1.00  0.00    -0.022 C  
ENDBRANCH  15  44
TORSDOF 10
ENDMDL
MODEL      174
REMARK 921   NORMALIZED FREE ENERGY PREDICTED BY IDOCK:   22.78 KCAL/MOL
REMARK 922        TOTAL FREE ENERGY PREDICTED BY IDOCK:   33.34 KCAL/MOL
REMARK 923 INTER-LIGAND FREE ENERGY PREDICTED BY IDOCK:   28.82 KCAL/MOL
REMARK 924 INTRA-LIGAND FREE ENERGY PREDICTED BY IDOCK:    4.53 KCAL/MOL
REMARK 927      BINDING AFFINITY PREDICTED BY RF-SCORE:    0.00 PKD
ROOT
HETATM    1  C   UNL     1      -7.786  15.317  71.058  1.00  0.00     2.406 C  
HETATM    2  C   UNL     1      -6.630  15.748  70.150  1.00  0.00     0.057 C  
HETATM    3  C   UNL     1      -6.990  15.904  68.639  1.00  0.00    -0.127 C  
HETATM    4  C   UNL     1      -7.337  10.763  71.414  1.00  0.00     3.485 C  
HETATM    5  C   UNL     1      -7.825  17.183  68.596  1.00  0.00    -0.265 C  
HETATM    6  C   UNL     1      -7.507  13.886  71.538  1.00  0.00     4.562 C  
HETATM    7  C   UNL     1      -9.136  16.847  69.394  1.00  0.00     0.169 C  
HETATM    8  C   UNL     1      -6.675  11.820  70.512  1.00  0.00     1.047 C  
HETATM    9  C   UNL     1      -8.733  10.561  70.939  1.00  0.00     2.709 A  
HETATM   10  C   UNL     1      -9.140  15.527  70.359  1.00  0.00     1.011 C  
HETATM   11  C   UNL     1     -11.675   8.689  70.019  1.00  0.00     0.283 A  
HETATM   12  C   UNL     1      -9.398  11.536  70.213  1.00  0.00     3.226 A  
HETATM   13  N   UNL     1     -10.573  10.971  69.780  1.00  0.00    -0.454 NA 
HETATM   14  C   UNL     1      -9.762  14.120  69.961  1.00  0.00     1.290 C  
HETATM   15  C   UNL     1     -11.501   7.428  70.610  1.00  0.00    -0.282 A  
HETATM   16  N   UNL     1      -7.467  13.053  70.358  1.00  0.00     1.952 NA 
HETATM   17  C   UNL     1     -10.377   7.168  71.372  1.00  0.00    -0.210 A  
HETATM   18  C   UNL     1      -8.805  12.869  69.771  1.00  0.00     2.491 C  
HETATM   19  C   UNL     1      -9.370   8.125  71.575  1.00  0.00    -0.210 A  
HETATM   20  C   UNL     1      -9.540   9.405  71.000  1.00  0.00    -0.272 A  
HETATM   21  H   UNL     1     -11.269  11.445  69.205  1.00  0.00     0.000 HD 
HETATM   22  C   UNL     1     -10.680   9.664  70.238  1.00  0.00    -0.281 A  
ENDROOT
BRANCH   3  23
HETATM   23  O   UNL     1      -7.804  14.849  68.012  1.00  0.00    -0.114 OA 
BRANCH  23  24
HETATM   24  C   UNL     1      -7.109  14.068  67.143  1.00  0.00     0.314 C  
HETATM   25  O   UNL     1      -6.163  14.500  66.494  1.00  0.00     1.580 OA 
BRANCH  24  26
HETATM   26  C   UNL     1      -7.481  12.610  66.975  1.00  0.00     0.030 A  
HETATM   27  C   UNL     1      -8.722  11.980  66.980  1.00  0.00    -0.188 A  
HETATM   28  C   UNL     1      -6.446  10.395  67.065  1.00  0.00    -0.074 A  
HETATM   29  C   UNL     1      -8.851  10.572  67.095  1.00  0.00    -0.136 A  
HETATM   30  C   UNL     1      -6.374  11.776  66.866  1.00  0.00    -0.131 A  
HETATM   31  C   UNL     1      -7.696   9.768  67.218  1.00  0.00    -0.095 A  
BRANCH  28  32
HETATM   32  O   UNL     1      -5.281   9.669  67.114  1.00  0.00    -0.035 OA 
HETATM   33  C   UNL     1      -5.427   8.329  67.601  1.00  0.00    -0.034 C  
ENDBRANCH  28  32
BRANCH  31  34
HETATM   34  O   UNL     1      -7.889   8.443  67.500  1.00  0.00    -0.097 OA 
HETATM   35  C   UNL     1      -8.510   8.072  68.724  1.00  0.00    -0.127 C  
ENDBRANCH  31  34
BRANCH  29  36
HETATM   36  O   UNL     1     -10.174  10.178  67.119  1.00  0.00    -0.201 OA 
HETATM   37  C   UNL     1     -10.533   8.919  66.553  1.00  0.00    -0.105 C  
ENDBRANCH  29  36
ENDBRANCH  24  26
ENDBRANCH  23  24
ENDBRANCH   3  23
BRANCH   5  38
HETATM   38  O   UNL     1      -7.073  18.246  69.220  1.00  0.00    -0.234 OA 
HETATM   39  C   UNL     1      -5.672  18.058  69.352  1.00  0.00    -0.221 C  
ENDBRANCH   5  38
BRANCH   7  40
HETATM   40  C   UNL     1     -10.326  16.912  68.455  1.00  0.00    -0.336 C  
HETATM   41  O   UNL     1     -10.602  16.090  67.589  1.00  0.00    -0.296 OA 
BRANCH  40  42
HETATM   42  O   UNL     1     -11.020  18.056  68.680  1.00  0.00     0.078 OA 
HETATM   43  C   UNL     1     -11.059  18.988  67.601  1.00  0.00    -0.064 C  
ENDBRANCH  40  42
ENDBRANCH   7  40
BRANCH  15  44
HETATM   44  O   UNL     1     -12.366   6.369  70.516  1.00  0.00    -0.149 OA 
HETATM   45  C   UNL     1     -13.420   6.474  69.570  1.00  0.00     6.866 C  
ENDBRANCH  15  44
TORSDOF 10
ENDMDL
MODEL      175
REMARK 921   NORMALIZED FREE ENERGY PREDICTED BY IDOCK:   24.70 KCAL/MOL
REMARK 922        TOTAL FREE ENERGY PREDICTED BY IDOCK:   36.39 KCAL/MOL
REMARK 923 INTER-LIGAND FREE ENERGY PREDICTED BY IDOCK:    1.50 KCAL/MOL
REMARK 924 INTRA-LIGAND FREE ENERGY PREDICTED BY IDOCK:   34.88 KCAL/MOL
REMARK 927      BINDING AFFINITY PREDICTED BY RF-SCORE:    0.00 PKD
ROOT
HETATM    1  C   UNL     1     -10.084  16.870  67.521  1.00  0.00    -0.282 C  
HETATM    2  C   UNL     1      -9.618  17.647  66.285  1.00  0.00    -0.259 C  
HETATM    3  C   UNL     1      -9.722  16.876  64.932  1.00  0.00     1.961 C  
HETATM    4  C   UNL     1      -6.238  15.088  69.282  1.00  0.00    -0.111 C  
HETATM    5  C   UNL     1     -11.223  16.845  64.649  1.00  0.00     0.250 C  
HETATM    6  C   UNL     1      -8.852  16.557  68.379  1.00  0.00    -0.218 C  
HETATM    7  C   UNL     1     -11.839  15.952  65.785  1.00  0.00     0.816 C  
HETATM    8  C   UNL     1      -6.561  15.793  67.952  1.00  0.00    -0.148 C  
HETATM    9  C   UNL     1      -6.817  13.717  69.229  1.00  0.00    -0.078 A  
HETATM   10  C   UNL     1     -10.934  15.654  67.114  1.00  0.00    -0.270 C  
HETATM   11  C   UNL     1      -6.894  10.141  69.679  1.00  0.00    -0.087 A  
HETATM   12  C   UNL     1      -7.873  13.410  68.386  1.00  0.00    -0.138 A  
HETATM   13  N   UNL     1      -8.040  12.048  68.444  1.00  0.00    -0.156 NA 
HETATM   14  C   UNL     1     -10.111  14.318  67.364  1.00  0.00    -0.247 C  
HETATM   15  C   UNL     1      -5.875   9.870  70.607  1.00  0.00    -0.081 A  
HETATM   16  N   UNL     1      -7.983  15.730  67.573  1.00  0.00    -0.139 NA 
HETATM   17  C   UNL     1      -5.129  10.906  71.138  1.00  0.00    -0.103 A  
HETATM   18  C   UNL     1      -8.526  14.372  67.398  1.00  0.00    -0.203 C  
HETATM   19  C   UNL     1      -5.338  12.246  70.775  1.00  0.00    -0.161 A  
HETATM   20  C   UNL     1      -6.373  12.535  69.856  1.00  0.00    -0.039 A  
HETATM   21  H   UNL     1      -8.736  11.524  67.914  1.00  0.00     0.000 HD 
HETATM   22  C   UNL     1      -7.127  11.486  69.327  1.00  0.00    -0.077 A  
ENDROOT
BRANCH   3  23
HETATM   23  O   UNL     1      -9.258  15.479  64.898  1.00  0.00     0.530 OA 
BRANCH  23  24
HETATM   24  C   UNL     1     -10.259  14.576  64.721  1.00  0.00    -0.199 C  
HETATM   25  O   UNL     1     -11.349  14.896  64.259  1.00  0.00    -0.226 OA 
BRANCH  24  26
HETATM   26  C   UNL     1     -10.034  13.122  65.072  1.00  0.00    -0.163 A  
HETATM   27  C   UNL     1      -9.723  12.028  64.269  1.00  0.00    -0.104 A  
HETATM   28  C   UNL     1     -10.449  11.555  66.905  1.00  0.00    -0.235 A  
HETATM   29  C   UNL     1      -9.834  10.693  64.738  1.00  0.00    -0.310 A  
HETATM   30  C   UNL     1     -10.243  12.848  66.420  1.00  0.00    -0.273 A  
HETATM   31  C   UNL     1     -10.279  10.446  66.056  1.00  0.00    -0.228 A  
BRANCH  28  32
HETATM   32  O   UNL     1     -10.823  11.389  68.216  1.00  0.00    -0.186 OA 
HETATM   33  C   UNL     1     -11.962  12.161  68.619  1.00  0.00    -0.237 C  
ENDBRANCH  28  32
BRANCH  31  34
HETATM   34  O   UNL     1     -10.531   9.144  66.393  1.00  0.00    -0.213 OA 
HETATM   35  C   UNL     1      -9.700   8.496  67.347  1.00  0.00    -0.170 C  
ENDBRANCH  31  34
BRANCH  29  36
HETATM   36  O   UNL     1      -9.514   9.776  63.757  1.00  0.00    -0.223 OA 
HETATM   37  C   UNL     1      -8.231   9.843  63.138  1.00  0.00    -0.155 C  
ENDBRANCH  29  36
ENDBRANCH  24  26
ENDBRANCH  23  24
ENDBRANCH   3  23
BRANCH   5  38
HETATM   38  O   UNL     1     -11.730  18.196  64.692  1.00  0.00     1.183 OA 
HETATM   39  C   UNL     1     -10.865  19.196  65.207  1.00  0.00     0.443 C  
ENDBRANCH   5  38
BRANCH   7  40
HETATM   40  C   UNL     1     -12.441  14.701  65.173  1.00  0.00    -0.206 C  
HETATM   41  O   UNL     1     -12.293  13.558  65.587  1.00  0.00    -0.425 OA 
BRANCH  40  42
HETATM   42  O   UNL     1     -13.130  15.030  64.052  1.00  0.00    -0.335 OA 
HETATM   43  C   UNL     1     -13.191  14.031  63.036  1.00  0.00     3.056 C  
ENDBRANCH  40  42
ENDBRANCH   7  40
BRANCH  15  44
HETATM   44  O   UNL     1      -5.518   8.632  71.072  1.00  0.00    -0.031 OA 
HETATM   45  C   UNL     1      -5.830   7.516  70.251  1.00  0.00    -0.023 C  
ENDBRANCH  15  44
TORSDOF 10
ENDMDL
MODEL      176
REMARK 921   NORMALIZED FREE ENERGY PREDICTED BY IDOCK:   24.94 KCAL/MOL
REMARK 922        TOTAL FREE ENERGY PREDICTED BY IDOCK:   36.76 KCAL/MOL
REMARK 923 INTER-LIGAND FREE ENERGY PREDICTED BY IDOCK:   31.91 KCAL/MOL
REMARK 924 INTRA-LIGAND FREE ENERGY PREDICTED BY IDOCK:    4.85 KCAL/MOL
REMARK 927      BINDING AFFINITY PREDICTED BY RF-SCORE:    0.00 PKD
ROOT
HETATM    1  C   UNL     1      -6.732   9.771  65.853  1.00  0.00    -0.091 C  
HETATM    2  C   UNL     1      -6.299   9.276  67.237  1.00  0.00    -0.059 C  
HETATM    3  C   UNL     1      -7.413   8.571  68.073  1.00  0.00    -0.097 C  
HETATM    4  C   UNL     1      -7.790  14.192  66.488  1.00  0.00     1.024 C  
HETATM    5  C   UNL     1      -7.589   7.223  67.376  1.00  0.00    -0.105 C  
HETATM    6  C   UNL     1      -6.744  11.305  65.878  1.00  0.00     0.218 C  
HETATM    7  C   UNL     1      -8.167   7.565  65.956  1.00  0.00    -0.130 C  
HETATM    8  C   UNL     1      -7.489  13.031  67.452  1.00  0.00    -0.131 C  
HETATM    9  C   UNL     1      -9.149  13.976  65.918  1.00  0.00     0.291 A  
HETATM   10  C   UNL     1      -8.051   9.106  65.421  1.00  0.00    -0.124 C  
HETATM   11  C   UNL     1     -12.469  14.890  64.847  1.00  0.00    -0.104 A  
HETATM   12  C   UNL     1      -9.722  12.716  65.871  1.00  0.00    -0.207 A  
HETATM   13  N   UNL     1     -11.023  12.889  65.467  1.00  0.00    -0.272 NA 
HETATM   14  C   UNL     1      -9.229  10.171  65.475  1.00  0.00    -0.237 C  
HETATM   15  C   UNL     1     -12.430  16.285  64.698  1.00  0.00     1.457 A  
HETATM   16  N   UNL     1      -7.718  11.697  66.871  1.00  0.00    -0.158 NA 
HETATM   17  C   UNL     1     -11.256  16.976  64.935  1.00  0.00     0.259 A  
HETATM   18  C   UNL     1      -9.096  11.437  66.420  1.00  0.00    -0.193 C  
HETATM   19  C   UNL     1     -10.076  16.333  65.342  1.00  0.00    -0.179 A  
HETATM   20  C   UNL     1     -10.095  14.926  65.480  1.00  0.00    -0.400 A  
HETATM   21  H   UNL     1     -11.703  12.138  65.355  1.00  0.00     0.000 HD 
HETATM   22  C   UNL     1     -11.282  14.233  65.232  1.00  0.00    -0.337 A  
ENDROOT
BRANCH   3  23
HETATM   23  O   UNL     1      -8.744   9.199  68.117  1.00  0.00    -0.128 OA 
BRANCH  23  24
HETATM   24  C   UNL     1      -9.066   9.710  69.335  1.00  0.00    -0.188 C  
HETATM   25  O   UNL     1      -9.101   9.013  70.343  1.00  0.00    -0.173 OA 
BRANCH  24  26
HETATM   26  C   UNL     1      -9.366  11.186  69.479  1.00  0.00     0.432 A  
HETATM   27  C   UNL     1      -8.547  12.301  69.329  1.00  0.00     0.836 A  
HETATM   28  C   UNL     1     -11.065  12.664  70.434  1.00  0.00     1.209 A  
HETATM   29  C   UNL     1      -8.935  13.588  69.785  1.00  0.00     1.986 A  
HETATM   30  C   UNL     1     -10.669  11.439  69.894  1.00  0.00     0.222 A  
HETATM   31  C   UNL     1     -10.185  13.761  70.420  1.00  0.00     2.232 A  
BRANCH  28  32
HETATM   32  O   UNL     1     -12.321  12.774  70.982  1.00  0.00    -0.356 OA 
HETATM   33  C   UNL     1     -12.369  13.450  72.244  1.00  0.00     0.465 C  
ENDBRANCH  28  32
BRANCH  31  34
HETATM   34  O   UNL     1     -10.428  14.981  70.990  1.00  0.00     0.062 OA 
HETATM   35  C   UNL     1     -10.201  16.163  70.234  1.00  0.00     0.200 C  
ENDBRANCH  31  34
BRANCH  29  36
HETATM   36  O   UNL     1      -7.948  14.529  69.568  1.00  0.00    -0.018 OA 
HETATM   37  C   UNL     1      -6.752  14.470  70.342  1.00  0.00     0.036 C  
ENDBRANCH  29  36
ENDBRANCH  24  26
ENDBRANCH  23  24
ENDBRANCH   3  23
BRANCH   5  38
HETATM   38  O   UNL     1      -6.301   6.574  67.291  1.00  0.00    -0.034 OA 
HETATM   39  C   UNL     1      -6.171   5.310  67.921  1.00  0.00    -0.038 C  
ENDBRANCH   5  38
BRANCH   7  40
HETATM   40  C   UNL     1      -9.563   6.986  65.827  1.00  0.00     0.427 C  
HETATM   41  O   UNL     1     -10.100   6.633  64.784  1.00  0.00     2.595 OA 
BRANCH  40  42
HETATM   42  O   UNL     1     -10.161   6.967  67.045  1.00  0.00    -0.210 OA 
HETATM   43  C   UNL     1     -11.106   5.921  67.264  1.00  0.00    -0.029 C  
ENDBRANCH  40  42
ENDBRANCH   7  40
BRANCH  15  44
HETATM   44  O   UNL     1     -13.478  17.084  64.320  1.00  0.00     5.090 OA 
HETATM   45  C   UNL     1     -13.477  17.566  62.985  1.00  0.00    16.863 C  
ENDBRANCH  15  44
TORSDOF 10
ENDMDL
MODEL      177
REMARK 921   NORMALIZED FREE ENERGY PREDICTED BY IDOCK:   25.31 KCAL/MOL
REMARK 922        TOTAL FREE ENERGY PREDICTED BY IDOCK:   37.36 KCAL/MOL
REMARK 923 INTER-LIGAND FREE ENERGY PREDICTED BY IDOCK:   23.01 KCAL/MOL
REMARK 924 INTRA-LIGAND FREE ENERGY PREDICTED BY IDOCK:   14.34 KCAL/MOL
REMARK 927      BINDING AFFINITY PREDICTED BY RF-SCORE:    0.00 PKD
ROOT
HETATM    1  C   UNL     1      -8.037   9.556  67.524  1.00  0.00    -0.110 C  
HETATM    2  C   UNL     1      -8.662   8.990  68.804  1.00  0.00    -0.136 C  
HETATM    3  C   UNL     1     -10.140   9.413  69.069  1.00  0.00    -0.194 C  
HETATM    4  C   UNL     1      -5.763  13.295  68.909  1.00  0.00    -0.074 C  
HETATM    5  C   UNL     1     -10.936   8.617  68.036  1.00  0.00     0.158 C  
HETATM    6  C   UNL     1      -6.963  10.575  67.929  1.00  0.00    -0.077 C  
HETATM    7  C   UNL     1     -10.491   9.190  66.643  1.00  0.00    -0.237 C  
HETATM    8  C   UNL     1      -6.779  12.364  69.596  1.00  0.00     0.065 C  
HETATM    9  C   UNL     1      -6.502  14.140  67.930  1.00  0.00    -0.174 A  
HETATM   10  C   UNL     1      -9.123  10.084  66.571  1.00  0.00    -0.172 C  
HETATM   11  C   UNL     1      -7.405  17.169  66.195  1.00  0.00    -0.281 A  
HETATM   12  C   UNL     1      -7.718  13.738  67.401  1.00  0.00    -0.143 A  
HETATM   13  N   UNL     1      -8.209  14.806  66.689  1.00  0.00    -0.370 NA 
HETATM   14  C   UNL     1      -9.084  11.672  66.541  1.00  0.00    -0.200 C  
HETATM   15  C   UNL     1      -6.333  18.048  66.419  1.00  0.00    -0.212 A  
HETATM   16  N   UNL     1      -7.640  11.624  68.657  1.00  0.00    -0.129 NA 
HETATM   17  C   UNL     1      -5.240  17.634  67.157  1.00  0.00    -0.155 A  
HETATM   18  C   UNL     1      -8.466  12.461  67.770  1.00  0.00    -0.169 C  
HETATM   19  C   UNL     1      -5.155  16.350  67.718  1.00  0.00    -0.138 A  
HETATM   20  C   UNL     1      -6.219  15.448  67.486  1.00  0.00    -0.120 A  
HETATM   21  H   UNL     1      -9.102  14.815  66.197  1.00  0.00     0.000 HD 
HETATM   22  C   UNL     1      -7.317  15.869  66.734  1.00  0.00    -0.105 A  
ENDROOT
BRANCH   3  23
HETATM   23  O   UNL     1     -10.497  10.829  68.876  1.00  0.00    -0.184 OA 
BRANCH  23  24
HETATM   24  C   UNL     1     -11.824  11.032  68.658  1.00  0.00    -0.247 C  
HETATM   25  O   UNL     1     -12.685  10.503  69.352  1.00  0.00    -0.160 OA 
BRANCH  24  26
HETATM   26  C   UNL     1     -12.274  11.957  67.549  1.00  0.00     0.424 A  
HETATM   27  C   UNL     1     -12.122  11.866  66.168  1.00  0.00     0.255 A  
HETATM   28  C   UNL     1     -13.045  14.257  67.229  1.00  0.00     2.218 A  
HETATM   29  C   UNL     1     -12.357  12.971  65.309  1.00  0.00    -0.486 A  
HETATM   30  C   UNL     1     -12.881  13.117  68.019  1.00  0.00     1.704 A  
HETATM   31  C   UNL     1     -12.751  14.212  65.854  1.00  0.00    -0.354 A  
BRANCH  28  32
HETATM   32  O   UNL     1     -13.490  15.415  67.819  1.00  0.00     3.658 OA 
HETATM   33  C   UNL     1     -12.467  16.211  68.431  1.00  0.00     1.232 C  
ENDBRANCH  28  32
BRANCH  31  34
HETATM   34  O   UNL     1     -12.794  15.280  65.000  1.00  0.00     0.229 OA 
HETATM   35  C   UNL     1     -11.660  15.577  64.195  1.00  0.00    -0.078 C  
ENDBRANCH  31  34
BRANCH  29  36
HETATM   36  O   UNL     1     -12.102  12.657  63.989  1.00  0.00    -0.393 OA 
HETATM   37  C   UNL     1     -10.750  12.565  63.547  1.00  0.00    -0.376 C  
ENDBRANCH  29  36
ENDBRANCH  24  26
ENDBRANCH  23  24
ENDBRANCH   3  23
BRANCH   5  38
HETATM   38  O   UNL     1     -10.603   7.219  68.174  1.00  0.00    -0.203 OA 
HETATM   39  C   UNL     1     -11.041   6.345  67.145  1.00  0.00    -0.341 C  
ENDBRANCH   5  38
BRANCH   7  40
HETATM   40  C   UNL     1     -11.679   9.851  65.967  1.00  0.00     3.525 C  
HETATM   41  O   UNL     1     -12.832   9.845  66.380  1.00  0.00     8.771 OA 
BRANCH  40  42
HETATM   42  O   UNL     1     -11.282  10.410  64.797  1.00  0.00     0.693 OA 
HETATM   43  C   UNL     1     -12.096  10.127  63.659  1.00  0.00     6.441 C  
ENDBRANCH  40  42
ENDBRANCH   7  40
BRANCH  15  44
HETATM   44  O   UNL     1      -6.240  19.337  65.963  1.00  0.00    -0.174 OA 
HETATM   45  C   UNL     1      -5.415  20.227  66.700  1.00  0.00    -0.169 C  
ENDBRANCH  15  44
TORSDOF 10
ENDMDL
MODEL      178
REMARK 921   NORMALIZED FREE ENERGY PREDICTED BY IDOCK:   25.49 KCAL/MOL
REMARK 922        TOTAL FREE ENERGY PREDICTED BY IDOCK:   37.64 KCAL/MOL
REMARK 923 INTER-LIGAND FREE ENERGY PREDICTED BY IDOCK:   -0.96 KCAL/MOL
REMARK 924 INTRA-LIGAND FREE ENERGY PREDICTED BY IDOCK:   38.60 KCAL/MOL
REMARK 927      BINDING AFFINITY PREDICTED BY RF-SCORE:    0.00 PKD
ROOT
HETATM    1  C   UNL     1     -11.955  10.579  66.304  1.00  0.00     2.727 C  
HETATM    2  C   UNL     1     -11.280   9.588  65.350  1.00  0.00     3.410 C  
HETATM    3  C   UNL     1      -9.804   9.224  65.699  1.00  0.00    -0.167 C  
HETATM    4  C   UNL     1     -11.423  14.668  64.287  1.00  0.00    -0.174 C  
HETATM    5  C   UNL     1      -9.934   8.328  66.930  1.00  0.00    -0.273 C  
HETATM    6  C   UNL     1     -12.161  11.900  65.551  1.00  0.00     0.366 C  
HETATM    7  C   UNL     1     -10.504   9.259  68.060  1.00  0.00    -0.275 C  
HETATM    8  C   UNL     1     -10.830  13.273  64.016  1.00  0.00    -0.259 C  
HETATM    9  C   UNL     1     -10.773  15.216  65.509  1.00  0.00    -0.379 A  
HETATM   10  C   UNL     1     -11.175  10.685  67.625  1.00  0.00    -0.361 C  
HETATM   11  C   UNL     1      -9.187  17.710  67.575  1.00  0.00    -0.243 A  
HETATM   12  C   UNL     1     -10.194  14.385  66.455  1.00  0.00    -0.289 A  
HETATM   13  N   UNL     1      -9.534  15.199  67.343  1.00  0.00    -0.202 NA 
HETATM   14  C   UNL     1     -10.436  12.090  67.699  1.00  0.00    -0.226 C  
HETATM   15  C   UNL     1      -9.524  18.938  66.984  1.00  0.00    -0.310 A  
HETATM   16  N   UNL     1     -10.847  12.380  65.187  1.00  0.00    -0.288 NA 
HETATM   17  C   UNL     1     -10.331  18.969  65.861  1.00  0.00    -0.435 A  
HETATM   18  C   UNL     1     -10.097  12.866  66.358  1.00  0.00    -0.269 C  
HETATM   19  C   UNL     1     -10.829  17.801  65.263  1.00  0.00     0.264 A  
HETATM   20  C   UNL     1     -10.512  16.558  65.857  1.00  0.00    -0.335 A  
HETATM   21  H   UNL     1      -8.997  14.871  68.145  1.00  0.00     0.000 HD 
HETATM   22  C   UNL     1      -9.703  16.533  66.994  1.00  0.00    -0.250 A  
ENDROOT
BRANCH   3  23
HETATM   23  O   UNL     1      -8.893  10.320  66.072  1.00  0.00    -0.143 OA 
BRANCH  23  24
HETATM   24  C   UNL     1      -9.005  10.705  67.371  1.00  0.00    -0.136 C  
HETATM   25  O   UNL     1     -10.067  10.636  67.980  1.00  0.00    -0.152 OA 
BRANCH  24  26
HETATM   26  C   UNL     1      -7.789  11.210  68.116  1.00  0.00    -0.118 A  
HETATM   27  C   UNL     1      -6.882  10.546  68.937  1.00  0.00    -0.063 A  
HETATM   28  C   UNL     1      -6.796  13.318  68.861  1.00  0.00    -0.103 A  
HETATM   29  C   UNL     1      -5.975  11.244  69.776  1.00  0.00    -0.103 A  
HETATM   30  C   UNL     1      -7.608  12.584  67.994  1.00  0.00    -0.127 A  
HETATM   31  C   UNL     1      -5.982  12.656  69.799  1.00  0.00    -0.129 A  
BRANCH  28  32
HETATM   32  O   UNL     1      -6.811  14.690  68.784  1.00  0.00    -0.086 OA 
HETATM   33  C   UNL     1      -6.026  15.241  67.719  1.00  0.00    -0.137 C  
ENDBRANCH  28  32
BRANCH  31  34
HETATM   34  O   UNL     1      -5.211  13.266  70.750  1.00  0.00    -0.112 OA 
HETATM   35  C   UNL     1      -5.528  13.090  72.125  1.00  0.00     0.249 C  
ENDBRANCH  31  34
BRANCH  29  36
HETATM   36  O   UNL     1      -5.204  10.380  70.529  1.00  0.00    -0.048 OA 
HETATM   37  C   UNL     1      -5.754   9.817  71.718  1.00  0.00     0.038 C  
ENDBRANCH  29  36
ENDBRANCH  24  26
ENDBRANCH  23  24
ENDBRANCH   3  23
BRANCH   5  38
HETATM   38  O   UNL     1     -10.837   7.244  66.619  1.00  0.00    -0.220 OA 
HETATM   39  C   UNL     1     -10.856   6.142  67.512  1.00  0.00    -0.332 C  
ENDBRANCH   5  38
BRANCH   7  40
HETATM   40  C   UNL     1      -9.478   9.389  69.170  1.00  0.00    -0.163 C  
HETATM   41  O   UNL     1      -9.596  10.074  70.179  1.00  0.00    -0.225 OA 
BRANCH  40  42
HETATM   42  O   UNL     1      -8.373   8.669  68.854  1.00  0.00    -0.121 OA 
HETATM   43  C   UNL     1      -8.597   7.321  68.444  1.00  0.00    -0.124 C  
ENDBRANCH  40  42
ENDBRANCH   7  40
BRANCH  15  44
HETATM   44  O   UNL     1      -9.126  20.175  67.416  1.00  0.00    -0.337 OA 
HETATM   45  C   UNL     1      -7.729  20.406  67.526  1.00  0.00    -0.299 C  
ENDBRANCH  15  44
TORSDOF 10
ENDMDL
MODEL      179
REMARK 921   NORMALIZED FREE ENERGY PREDICTED BY IDOCK:   27.33 KCAL/MOL
REMARK 922        TOTAL FREE ENERGY PREDICTED BY IDOCK:   40.54 KCAL/MOL
REMARK 923 INTER-LIGAND FREE ENERGY PREDICTED BY IDOCK:   17.04 KCAL/MOL
REMARK 924 INTRA-LIGAND FREE ENERGY PREDICTED BY IDOCK:   23.51 KCAL/MOL
REMARK 927      BINDING AFFINITY PREDICTED BY RF-SCORE:    0.00 PKD
ROOT
HETATM    1  C   UNL     1      -5.882  15.140  67.906  1.00  0.00    -0.158 C  
HETATM    2  C   UNL     1      -6.931  16.072  67.292  1.00  0.00    -0.240 C  
HETATM    3  C   UNL     1      -7.773  16.897  68.314  1.00  0.00    -0.205 C  
HETATM    4  C   UNL     1      -7.956  11.051  68.116  1.00  0.00    -0.119 C  
HETATM    5  C   UNL     1      -6.789  17.944  68.833  1.00  0.00    -0.250 C  
HETATM    6  C   UNL     1      -6.336  13.693  67.673  1.00  0.00    -0.138 C  
HETATM    7  C   UNL     1      -5.698  17.132  69.618  1.00  0.00    -0.220 C  
HETATM    8  C   UNL     1      -8.459  12.474  67.815  1.00  0.00    -0.171 C  
HETATM    9  C   UNL     1      -7.684  10.957  69.577  1.00  0.00    -0.022 A  
HETATM   10  C   UNL     1      -5.604  15.518  69.371  1.00  0.00    -0.109 C  
HETATM   11  C   UNL     1      -7.720   9.464  72.859  1.00  0.00     1.594 A  
HETATM   12  C   UNL     1      -7.422  12.086  70.337  1.00  0.00     2.761 A  
HETATM   13  N   UNL     1      -7.400  11.680  71.649  1.00  0.00     5.374 NA 
HETATM   14  C   UNL     1      -6.227  14.420  70.335  1.00  0.00    -0.173 C  
HETATM   15  C   UNL     1      -7.962   8.099  72.633  1.00  0.00    -0.146 A  
HETATM   16  N   UNL     1      -7.599  13.538  68.359  1.00  0.00    -0.127 NA 
HETATM   17  C   UNL     1      -8.101   7.624  71.342  1.00  0.00    -0.096 A  
HETATM   18  C   UNL     1      -7.429  13.522  69.822  1.00  0.00     0.763 C  
HETATM   19  C   UNL     1      -8.023   8.465  70.220  1.00  0.00    -0.102 A  
HETATM   20  C   UNL     1      -7.763   9.838  70.431  1.00  0.00    -0.159 A  
HETATM   21  H   UNL     1      -7.245  12.297  72.446  1.00  0.00     0.000 HD 
HETATM   22  C   UNL     1      -7.617  10.311  71.736  1.00  0.00     3.321 A  
ENDROOT
BRANCH   3  23
HETATM   23  O   UNL     1      -8.302  16.195  69.497  1.00  0.00    -0.161 OA 
BRANCH  23  24
HETATM   24  C   UNL     1      -9.616  15.861  69.390  1.00  0.00    -0.265 C  
HETATM   25  O   UNL     1     -10.385  15.938  70.341  1.00  0.00    -0.198 OA 
BRANCH  24  26
HETATM   26  C   UNL     1     -10.172  15.404  68.059  1.00  0.00    -0.235 A  
HETATM   27  C   UNL     1     -11.485  15.284  67.614  1.00  0.00    -0.287 A  
HETATM   28  C   UNL     1      -9.467  14.193  66.054  1.00  0.00    -0.160 A  
HETATM   29  C   UNL     1     -11.819  14.567  66.436  1.00  0.00    -0.349 A  
HETATM   30  C   UNL     1      -9.187  14.979  67.174  1.00  0.00    -0.229 A  
HETATM   31  C   UNL     1     -10.800  13.943  65.681  1.00  0.00    -0.292 A  
BRANCH  28  32
HETATM   32  O   UNL     1      -8.422  13.668  65.333  1.00  0.00     2.028 OA 
HETATM   33  C   UNL     1      -8.689  12.399  64.723  1.00  0.00     1.647 C  
ENDBRANCH  28  32
BRANCH  31  34
HETATM   34  O   UNL     1     -11.197  13.125  64.659  1.00  0.00    -0.314 OA 
HETATM   35  C   UNL     1     -12.585  12.944  64.408  1.00  0.00    -0.317 C  
ENDBRANCH  31  34
BRANCH  29  36
HETATM   36  O   UNL     1     -13.182  14.546  66.215  1.00  0.00     0.419 OA 
HETATM   37  C   UNL     1     -13.666  14.471  64.876  1.00  0.00     2.075 C  
ENDBRANCH  29  36
ENDBRANCH  24  26
ENDBRANCH  23  24
ENDBRANCH   3  23
BRANCH   5  38
HETATM   38  O   UNL     1      -6.227  18.649  67.704  1.00  0.00    -0.188 OA 
HETATM   39  C   UNL     1      -6.623  18.219  66.411  1.00  0.00    -0.211 C  
ENDBRANCH   5  38
BRANCH   7  40
HETATM   40  C   UNL     1      -5.744  17.515  71.086  1.00  0.00     0.498 C  
HETATM   41  O   UNL     1      -5.604  18.646  71.536  1.00  0.00    -0.174 OA 
BRANCH  40  42
HETATM   42  O   UNL     1      -5.910  16.401  71.841  1.00  0.00     0.914 OA 
HETATM   43  C   UNL     1      -6.816  15.425  71.330  1.00  0.00     1.614 C  
ENDBRANCH  40  42
ENDBRANCH   7  40
BRANCH  15  44
HETATM   44  O   UNL     1      -8.079   7.133  73.597  1.00  0.00    -0.111 OA 
HETATM   45  C   UNL     1      -9.184   7.232  74.483  1.00  0.00    -0.051 C  
ENDBRANCH  15  44
TORSDOF 10
ENDMDL
MODEL      180
REMARK 921   NORMALIZED FREE ENERGY PREDICTED BY IDOCK:   28.63 KCAL/MOL
REMARK 922        TOTAL FREE ENERGY PREDICTED BY IDOCK:   42.61 KCAL/MOL
REMARK 923 INTER-LIGAND FREE ENERGY PREDICTED BY IDOCK:    2.86 KCAL/MOL
REMARK 924 INTRA-LIGAND FREE ENERGY PREDICTED BY IDOCK:   39.75 KCAL/MOL
REMARK 927      BINDING AFFINITY PREDICTED BY RF-SCORE:    0.00 PKD
ROOT
HETATM    1  C   UNL     1     -12.191   7.142  69.527  1.00  0.00     0.913 C  
HETATM    2  C   UNL     1     -11.281   6.033  68.988  1.00  0.00    -0.298 C  
HETATM    3  C   UNL     1      -9.861   5.963  69.630  1.00  0.00    -0.167 C  
HETATM    4  C   UNL     1     -11.671  10.605  66.560  1.00  0.00     1.266 C  
HETATM    5  C   UNL     1     -10.123   5.405  71.028  1.00  0.00    -0.216 C  
HETATM    6  C   UNL     1     -12.376   8.187  68.419  1.00  0.00     4.924 C  
HETATM    7  C   UNL     1     -10.954   6.515  71.765  1.00  0.00    -0.287 C  
HETATM    8  C   UNL     1     -10.924   9.276  66.770  1.00  0.00     0.274 C  
HETATM    9  C   UNL     1     -11.287  11.529  67.664  1.00  0.00    -0.358 A  
HETATM   10  C   UNL     1     -11.660   7.684  70.865  1.00  0.00    -0.299 C  
HETATM   11  C   UNL     1     -10.294  14.652  69.167  1.00  0.00    -0.222 A  
HETATM   12  C   UNL     1     -10.811  11.051  68.874  1.00  0.00    -0.217 A  
HETATM   13  N   UNL     1     -10.383  12.144  69.588  1.00  0.00    -0.002 NA 
HETATM   14  C   UNL     1     -11.065   9.142  70.654  1.00  0.00    -0.320 C  
HETATM   15  C   UNL     1     -10.628  15.633  68.220  1.00  0.00    -0.262 A  
HETATM   16  N   UNL     1     -11.065   8.720  68.127  1.00  0.00     0.173 NA 
HETATM   17  C   UNL     1     -11.231  15.270  67.030  1.00  0.00    -0.275 A  
HETATM   18  C   UNL     1     -10.570   9.583  69.213  1.00  0.00    -0.220 C  
HETATM   19  C   UNL     1     -11.519  13.933  66.711  1.00  0.00    -0.369 A  
HETATM   20  C   UNL     1     -11.204  12.937  67.663  1.00  0.00    -0.317 A  
HETATM   21  H   UNL     1      -9.965  12.104  70.517  1.00  0.00     0.000 HD 
HETATM   22  C   UNL     1     -10.602  13.309  68.866  1.00  0.00    -0.140 A  
ENDROOT
BRANCH   3  23
HETATM   23  O   UNL     1      -9.123   7.225  69.812  1.00  0.00    -0.142 OA 
BRANCH  23  24
HETATM   24  C   UNL     1      -9.541   8.224  68.990  1.00  0.00    -0.156 C  
HETATM   25  O   UNL     1     -10.568   8.858  69.208  1.00  0.00    -0.227 OA 
BRANCH  24  26
HETATM   26  C   UNL     1      -8.715   8.600  67.779  1.00  0.00    -0.137 A  
HETATM   27  C   UNL     1      -8.897   8.317  66.428  1.00  0.00    -0.180 A  
HETATM   28  C   UNL     1      -6.477   9.418  67.223  1.00  0.00    -0.070 A  
HETATM   29  C   UNL     1      -7.865   8.509  65.473  1.00  0.00    -0.104 A  
HETATM   30  C   UNL     1      -7.552   9.288  68.106  1.00  0.00    -0.084 A  
HETATM   31  C   UNL     1      -6.606   8.996  65.887  1.00  0.00    -0.064 A  
BRANCH  28  32
HETATM   32  O   UNL     1      -5.300   9.957  67.684  1.00  0.00    -0.036 OA 
HETATM   33  C   UNL     1      -5.192  11.378  67.538  1.00  0.00    -0.050 C  
ENDBRANCH  28  32
BRANCH  31  34
HETATM   34  O   UNL     1      -5.603   8.996  64.956  1.00  0.00    -0.052 OA 
HETATM   35  C   UNL     1      -5.432  10.129  64.114  1.00  0.00    -0.120 C  
ENDBRANCH  31  34
BRANCH  29  36
HETATM   36  O   UNL     1      -8.259   8.122  64.207  1.00  0.00    -0.153 OA 
HETATM   37  C   UNL     1      -8.869   6.845  64.032  1.00  0.00     0.890 C  
ENDBRANCH  29  36
ENDBRANCH  24  26
ENDBRANCH  23  24
ENDBRANCH   3  23
BRANCH   5  38
HETATM   38  O   UNL     1     -10.864   4.172  70.902  1.00  0.00     0.700 OA 
HETATM   39  C   UNL     1     -10.304   3.016  71.504  1.00  0.00     0.412 C  
ENDBRANCH   5  38
BRANCH   7  40
HETATM   40  C   UNL     1     -10.148   7.057  72.931  1.00  0.00    -0.196 C  
HETATM   41  O   UNL     1      -9.801   6.421  73.919  1.00  0.00    -0.184 OA 
BRANCH  40  42
HETATM   42  O   UNL     1      -9.912   8.380  72.745  1.00  0.00    -0.284 OA 
HETATM   43  C   UNL     1      -8.549   8.753  72.547  1.00  0.00     0.117 C  
ENDBRANCH  40  42
ENDBRANCH   7  40
BRANCH  15  44
HETATM   44  O   UNL     1     -10.417  16.980  68.348  1.00  0.00    -0.327 OA 
HETATM   45  C   UNL     1      -9.069  17.418  68.449  1.00  0.00    -0.274 C  
ENDBRANCH  15  44
TORSDOF 10
ENDMDL
MODEL      181
REMARK 921   NORMALIZED FREE ENERGY PREDICTED BY IDOCK:   29.32 KCAL/MOL
REMARK 922        TOTAL FREE ENERGY PREDICTED BY IDOCK:   43.71 KCAL/MOL
REMARK 923 INTER-LIGAND FREE ENERGY PREDICTED BY IDOCK:    7.10 KCAL/MOL
REMARK 924 INTRA-LIGAND FREE ENERGY PREDICTED BY IDOCK:   36.61 KCAL/MOL
REMARK 927      BINDING AFFINITY PREDICTED BY RF-SCORE:    0.00 PKD
ROOT
HETATM    1  C   UNL     1      -6.062   9.340  68.873  1.00  0.00    -0.043 C  
HETATM    2  C   UNL     1      -6.130   9.577  70.385  1.00  0.00    -0.059 C  
HETATM    3  C   UNL     1      -7.299   8.853  71.124  1.00  0.00    -0.105 C  
HETATM    4  C   UNL     1      -8.244  12.938  67.041  1.00  0.00    -0.086 C  
HETATM    5  C   UNL     1      -6.871   7.386  71.126  1.00  0.00    -0.050 C  
HETATM    6  C   UNL     1      -6.425  10.653  68.168  1.00  0.00    -0.062 C  
HETATM    7  C   UNL     1      -6.883   6.951  69.616  1.00  0.00    -0.051 C  
HETATM    8  C   UNL     1      -8.110  12.407  68.480  1.00  0.00    -0.096 C  
HETATM    9  C   UNL     1      -9.170  12.036  66.302  1.00  0.00    -0.208 A  
HETATM   10  C   UNL     1      -6.907   8.118  68.472  1.00  0.00    -0.068 C  
HETATM   11  C   UNL     1     -11.881  11.174  64.086  1.00  0.00     0.600 A  
HETATM   12  C   UNL     1      -9.376  10.726  66.704  1.00  0.00    -0.166 A  
HETATM   13  N   UNL     1     -10.405  10.236  65.936  1.00  0.00    -0.211 NA 
HETATM   14  C   UNL     1      -8.211   8.599  67.701  1.00  0.00    -0.110 C  
HETATM   15  C   UNL     1     -12.097  12.326  63.314  1.00  0.00    -0.418 A  
HETATM   16  N   UNL     1      -7.779  10.974  68.558  1.00  0.00    -0.114 NA 
HETATM   17  C   UNL     1     -11.307  13.445  63.501  1.00  0.00     0.030 A  
HETATM   18  C   UNL     1      -8.759  10.069  67.934  1.00  0.00    -0.125 C  
HETATM   19  C   UNL     1     -10.283  13.489  64.460  1.00  0.00    -0.296 A  
HETATM   20  C   UNL     1     -10.042  12.330  65.234  1.00  0.00    -0.295 A  
HETATM   21  H   UNL     1     -10.794   9.297  66.015  1.00  0.00     0.000 HD 
HETATM   22  C   UNL     1     -10.838  11.201  65.036  1.00  0.00    -0.173 A  
ENDROOT
BRANCH   3  23
HETATM   23  O   UNL     1      -8.637   8.900  70.510  1.00  0.00    -0.147 OA 
BRANCH  23  24
HETATM   24  C   UNL     1      -8.834   9.985  69.715  1.00  0.00    -0.183 C  
HETATM   25  O   UNL     1      -8.067  10.270  68.802  1.00  0.00    -0.105 OA 
BRANCH  24  26
HETATM   26  C   UNL     1     -10.046  10.866  69.928  1.00  0.00     0.310 A  
HETATM   27  C   UNL     1     -10.191  12.248  69.855  1.00  0.00     1.587 A  
HETATM   28  C   UNL     1     -12.280  10.765  70.919  1.00  0.00    -0.384 A  
HETATM   29  C   UNL     1     -11.335  12.914  70.367  1.00  0.00     0.602 A  
HETATM   30  C   UNL     1     -11.173  10.155  70.325  1.00  0.00    -0.387 A  
HETATM   31  C   UNL     1     -12.365  12.168  70.981  1.00  0.00    -0.230 A  
BRANCH  28  32
HETATM   32  O   UNL     1     -13.273   9.973  71.442  1.00  0.00    -0.379 OA 
HETATM   33  C   UNL     1     -13.492   8.741  70.742  1.00  0.00     0.433 C  
ENDBRANCH  28  32
BRANCH  31  34
HETATM   34  O   UNL     1     -13.355  12.875  71.608  1.00  0.00    -0.369 OA 
HETATM   35  C   UNL     1     -13.431  12.862  73.027  1.00  0.00     1.200 C  
ENDBRANCH  31  34
BRANCH  29  36
HETATM   36  O   UNL     1     -11.240  14.284  70.222  1.00  0.00    -0.144 OA 
HETATM   37  C   UNL     1     -12.368  15.008  69.735  1.00  0.00    -0.240 C  
ENDBRANCH  29  36
ENDBRANCH  24  26
ENDBRANCH  23  24
ENDBRANCH   3  23
BRANCH   5  38
HETATM   38  O   UNL     1      -5.551   7.290  71.703  1.00  0.00    -0.035 OA 
HETATM   39  C   UNL     1      -5.409   6.486  72.863  1.00  0.00    -0.037 C  
ENDBRANCH   5  38
BRANCH   7  40
HETATM   40  C   UNL     1      -7.940   5.881  69.409  1.00  0.00    -0.102 C  
HETATM   41  O   UNL     1      -9.146   6.026  69.564  1.00  0.00    -0.135 OA 
BRANCH  40  42
HETATM   42  O   UNL     1      -7.341   4.710  69.076  1.00  0.00    -0.052 OA 
HETATM   43  C   UNL     1      -5.930   4.762  68.870  1.00  0.00    -0.025 C  
ENDBRANCH  40  42
ENDBRANCH   7  40
BRANCH  15  44
HETATM   44  O   UNL     1     -13.051  12.475  62.341  1.00  0.00     1.110 OA 
HETATM   45  C   UNL     1     -14.395  12.635  62.770  1.00  0.00     6.920 C  
ENDBRANCH  15  44
TORSDOF 10
ENDMDL
MODEL      182
REMARK 921   NORMALIZED FREE ENERGY PREDICTED BY IDOCK:   30.41 KCAL/MOL
REMARK 922        TOTAL FREE ENERGY PREDICTED BY IDOCK:   45.43 KCAL/MOL
REMARK 923 INTER-LIGAND FREE ENERGY PREDICTED BY IDOCK:    4.23 KCAL/MOL
REMARK 924 INTRA-LIGAND FREE ENERGY PREDICTED BY IDOCK:   41.20 KCAL/MOL
REMARK 927      BINDING AFFINITY PREDICTED BY RF-SCORE:    0.00 PKD
ROOT
HETATM    1  C   UNL     1      -7.898  13.420  68.114  1.00  0.00    -0.145 C  
HETATM    2  C   UNL     1      -7.731  13.293  66.597  1.00  0.00     0.731 C  
HETATM    3  C   UNL     1      -8.883  12.543  65.858  1.00  0.00     0.378 C  
HETATM    4  C   UNL     1      -5.492   9.911  69.837  1.00  0.00    -0.037 C  
HETATM    5  C   UNL     1     -10.043  13.536  65.894  1.00  0.00    -0.303 C  
HETATM    6  C   UNL     1      -6.841  12.534  68.786  1.00  0.00    -0.096 C  
HETATM    7  C   UNL     1     -10.423  13.672  67.412  1.00  0.00    -0.251 C  
HETATM    8  C   UNL     1      -5.941  10.283  68.412  1.00  0.00    -0.040 C  
HETATM    9  C   UNL     1      -6.685   9.424  70.583  1.00  0.00    -0.097 A  
HETATM   10  C   UNL     1      -9.353  13.144  68.530  1.00  0.00    -0.085 C  
HETATM   11  C   UNL     1      -8.556   7.261  72.779  1.00  0.00    -0.141 A  
HETATM   12  C   UNL     1      -7.969   9.783  70.207  1.00  0.00    -0.162 A  
HETATM   13  N   UNL     1      -8.828   9.032  70.971  1.00  0.00    -0.221 NA 
HETATM   14  C   UNL     1      -9.441  11.742  69.272  1.00  0.00     0.498 C  
HETATM   15  C   UNL     1      -7.584   6.573  73.524  1.00  0.00    -0.088 A  
HETATM   16  N   UNL     1      -7.111  11.176  68.369  1.00  0.00    -0.071 NA 
HETATM   17  C   UNL     1      -6.242   6.836  73.323  1.00  0.00    -0.062 A  
HETATM   18  C   UNL     1      -8.331  10.643  69.000  1.00  0.00    -0.152 C  
HETATM   19  C   UNL     1      -5.794   7.772  72.377  1.00  0.00    -0.040 A  
HETATM   20  C   UNL     1      -6.761   8.485  71.632  1.00  0.00    -0.079 A  
HETATM   21  H   UNL     1      -9.845   9.065  70.907  1.00  0.00     0.000 HD 
HETATM   22  C   UNL     1      -8.115   8.220  71.844  1.00  0.00    -0.141 A  
ENDROOT
BRANCH   3  23
HETATM   23  O   UNL     1      -9.382  11.291  66.452  1.00  0.00    -0.181 OA 
BRANCH  23  24
HETATM   24  C   UNL     1     -10.677  11.360  66.860  1.00  0.00    -0.265 C  
HETATM   25  O   UNL     1     -11.555  11.847  66.157  1.00  0.00    -0.415 OA 
BRANCH  24  26
HETATM   26  C   UNL     1     -11.075  10.799  68.208  1.00  0.00    -0.327 A  
HETATM   27  C   UNL     1     -11.178   9.484  68.653  1.00  0.00     0.060 A  
HETATM   28  C   UNL     1     -12.192  11.498  70.269  1.00  0.00    -0.332 A  
HETATM   29  C   UNL     1     -11.842   9.148  69.862  1.00  0.00     0.369 A  
HETATM   30  C   UNL     1     -11.457  11.781  69.116  1.00  0.00    -0.358 A  
HETATM   31  C   UNL     1     -12.428  10.164  70.648  1.00  0.00    -0.284 A  
BRANCH  28  32
HETATM   32  O   UNL     1     -12.681  12.542  71.017  1.00  0.00    -0.326 OA 
HETATM   33  C   UNL     1     -12.547  12.379  72.435  1.00  0.00     0.815 C  
ENDBRANCH  28  32
BRANCH  31  34
HETATM   34  O   UNL     1     -13.200   9.765  71.705  1.00  0.00    -0.371 OA 
HETATM   35  C   UNL     1     -12.723   8.743  72.570  1.00  0.00    -0.311 C  
ENDBRANCH  31  34
BRANCH  29  36
HETATM   36  O   UNL     1     -11.856   7.784  70.077  1.00  0.00     0.108 OA 
HETATM   37  C   UNL     1     -12.829   7.232  70.962  1.00  0.00    -0.208 C  
ENDBRANCH  29  36
ENDBRANCH  24  26
ENDBRANCH  23  24
ENDBRANCH   3  23
BRANCH   5  38
HETATM   38  O   UNL     1      -9.595  14.791  65.337  1.00  0.00    -0.241 OA 
HETATM   39  C   UNL     1      -9.993  15.976  66.009  1.00  0.00    -0.339 C  
ENDBRANCH   5  38
BRANCH   7  40
HETATM   40  C   UNL     1     -11.830  13.145  67.628  1.00  0.00    -0.359 C  
HETATM   41  O   UNL     1     -12.171  12.343  68.490  1.00  0.00    -0.186 OA 
BRANCH  40  42
HETATM   42  O   UNL     1     -12.656  13.655  66.681  1.00  0.00    -0.306 OA 
HETATM   43  C   UNL     1     -14.018  13.833  67.066  1.00  0.00     8.457 C  
ENDBRANCH  40  42
ENDBRANCH   7  40
BRANCH  15  44
HETATM   44  O   UNL     1      -7.827   5.622  74.479  1.00  0.00    -0.097 OA 
HETATM   45  C   UNL     1      -6.956   4.501  74.514  1.00  0.00    -0.068 C  
ENDBRANCH  15  44
TORSDOF 10
ENDMDL
MODEL      183
REMARK 921   NORMALIZED FREE ENERGY PREDICTED BY IDOCK:   31.27 KCAL/MOL
REMARK 922        TOTAL FREE ENERGY PREDICTED BY IDOCK:   46.79 KCAL/MOL
REMARK 923 INTER-LIGAND FREE ENERGY PREDICTED BY IDOCK:    0.75 KCAL/MOL
REMARK 924 INTRA-LIGAND FREE ENERGY PREDICTED BY IDOCK:   46.04 KCAL/MOL
REMARK 927      BINDING AFFINITY PREDICTED BY RF-SCORE:    0.00 PKD
ROOT
HETATM    1  C   UNL     1     -11.483   7.906  69.796  1.00  0.00     0.216 C  
HETATM    2  C   UNL     1     -10.601   6.863  69.103  1.00  0.00    -0.245 C  
HETATM    3  C   UNL     1      -9.119   6.812  69.589  1.00  0.00    -0.143 C  
HETATM    4  C   UNL     1     -11.391  11.540  66.993  1.00  0.00    -0.340 C  
HETATM    5  C   UNL     1      -9.214   6.171  70.973  1.00  0.00    -0.157 C  
HETATM    6  C   UNL     1     -11.818   9.001  68.774  1.00  0.00     1.619 C  
HETATM    7  C   UNL     1      -9.997   7.208  71.854  1.00  0.00    -0.180 C  
HETATM    8  C   UNL     1     -10.584  10.230  67.048  1.00  0.00    -0.239 C  
HETATM    9  C   UNL     1     -10.922  12.417  68.101  1.00  0.00    -0.263 A  
HETATM   10  C   UNL     1     -10.831   8.396  71.100  1.00  0.00    -0.286 C  
HETATM   11  C   UNL     1      -9.876  15.491  69.669  1.00  0.00    -0.281 A  
HETATM   12  C   UNL     1     -10.306  11.893  69.226  1.00  0.00     0.166 A  
HETATM   13  N   UNL     1      -9.840  12.962  69.953  1.00  0.00     1.362 NA 
HETATM   14  C   UNL     1     -10.309   9.885  70.912  1.00  0.00    -0.119 C  
HETATM   15  C   UNL     1     -10.340  16.507  68.819  1.00  0.00    -0.286 A  
HETATM   16  N   UNL     1     -10.563   9.598  68.378  1.00  0.00    -0.223 NA 
HETATM   17  C   UNL     1     -11.054  16.186  67.679  1.00  0.00    -0.212 A  
HETATM   18  C   UNL     1      -9.984  10.420  69.455  1.00  0.00    -0.202 C  
HETATM   19  C   UNL     1     -11.331  14.858  67.317  1.00  0.00    -0.355 A  
HETATM   20  C   UNL     1     -10.885  13.825  68.172  1.00  0.00    -0.261 A  
HETATM   21  H   UNL     1      -9.325  12.889  70.830  1.00  0.00     0.000 HD 
HETATM   22  C   UNL     1     -10.171  14.156  69.325  1.00  0.00     0.039 A  
ENDROOT
BRANCH   3  23
HETATM   23  O   UNL     1      -8.407   8.090  69.765  1.00  0.00    -0.119 OA 
BRANCH  23  24
HETATM   24  C   UNL     1      -9.048   9.152  69.209  1.00  0.00    -0.146 C  
HETATM   25  O   UNL     1     -10.260   9.305  69.310  1.00  0.00    -0.192 OA 
BRANCH  24  26
HETATM   26  C   UNL     1      -8.257  10.204  68.463  1.00  0.00    -0.111 A  
HETATM   27  C   UNL     1      -8.116  10.441  67.099  1.00  0.00    -0.115 A  
HETATM   28  C   UNL     1      -6.441  11.798  68.845  1.00  0.00    -0.076 A  
HETATM   29  C   UNL     1      -7.106  11.293  66.582  1.00  0.00    -0.127 A  
HETATM   30  C   UNL     1      -7.503  11.017  69.304  1.00  0.00    -0.100 A  
HETATM   31  C   UNL     1      -6.201  11.925  67.464  1.00  0.00    -0.102 A  
BRANCH  28  32
HETATM   32  O   UNL     1      -5.637  12.432  69.762  1.00  0.00    -0.083 OA 
HETATM   33  C   UNL     1      -6.225  12.606  71.057  1.00  0.00     0.903 C  
ENDBRANCH  28  32
BRANCH  31  34
HETATM   34  O   UNL     1      -5.147  12.592  66.900  1.00  0.00    -0.335 OA 
HETATM   35  C   UNL     1      -5.232  13.998  66.711  1.00  0.00     2.088 C  
ENDBRANCH  31  34
BRANCH  29  36
HETATM   36  O   UNL     1      -7.132  11.344  65.203  1.00  0.00     0.699 OA 
HETATM   37  C   UNL     1      -7.866  10.352  64.487  1.00  0.00    -0.066 C  
ENDBRANCH  29  36
ENDBRANCH  24  26
ENDBRANCH  23  24
ENDBRANCH   3  23
BRANCH   5  38
HETATM   38  O   UNL     1      -9.924   4.920  70.854  1.00  0.00    -0.192 OA 
HETATM   39  C   UNL     1      -9.357   3.790  71.499  1.00  0.00    -0.135 C  
ENDBRANCH   5  38
BRANCH   7  40
HETATM   40  C   UNL     1      -9.090   7.717  72.959  1.00  0.00    -0.211 C  
HETATM   41  O   UNL     1      -9.378   7.787  74.148  1.00  0.00    -0.174 OA 
BRANCH  40  42
HETATM   42  O   UNL     1      -7.918   8.142  72.425  1.00  0.00    -0.117 OA 
HETATM   43  C   UNL     1      -6.791   7.291  72.626  1.00  0.00    -0.067 C  
ENDBRANCH  40  42
ENDBRANCH   7  40
BRANCH  15  44
HETATM   44  O   UNL     1     -10.159  17.853  69.000  1.00  0.00    -0.359 OA 
HETATM   45  C   UNL     1      -8.831  18.305  69.221  1.00  0.00     0.276 C  
ENDBRANCH  15  44
TORSDOF 10
ENDMDL
MODEL      184
REMARK 921   NORMALIZED FREE ENERGY PREDICTED BY IDOCK:   33.14 KCAL/MOL
REMARK 922        TOTAL FREE ENERGY PREDICTED BY IDOCK:   49.75 KCAL/MOL
REMARK 923 INTER-LIGAND FREE ENERGY PREDICTED BY IDOCK:    8.30 KCAL/MOL
REMARK 924 INTRA-LIGAND FREE ENERGY PREDICTED BY IDOCK:   41.45 KCAL/MOL
REMARK 927      BINDING AFFINITY PREDICTED BY RF-SCORE:    0.00 PKD
ROOT
HETATM    1  C   UNL     1      -9.432  14.174  65.387  1.00  0.00     0.212 C  
HETATM    2  C   UNL     1     -10.859  14.730  65.354  1.00  0.00    -0.372 C  
HETATM    3  C   UNL     1     -11.330  15.440  66.661  1.00  0.00    -0.103 C  
HETATM    4  C   UNL     1      -9.942   9.756  66.522  1.00  0.00    -0.304 C  
HETATM    5  C   UNL     1     -10.555  16.756  66.658  1.00  0.00    -0.198 C  
HETATM    6  C   UNL     1      -9.518  12.642  65.386  1.00  0.00     0.142 C  
HETATM    7  C   UNL     1      -9.047  16.347  66.823  1.00  0.00    -0.259 C  
HETATM    8  C   UNL     1     -10.903  10.959  66.509  1.00  0.00    -0.171 C  
HETATM    9  C   UNL     1      -9.017   9.918  67.677  1.00  0.00    -0.133 A  
HETATM   10  C   UNL     1      -8.630  14.790  66.546  1.00  0.00    -0.075 C  
HETATM   11  C   UNL     1      -7.124   8.886  70.567  1.00  0.00    -0.064 A  
HETATM   12  C   UNL     1      -8.762  11.162  68.231  1.00  0.00    -0.151 A  
HETATM   13  N   UNL     1      -8.028  10.942  69.371  1.00  0.00    -0.357 NA 
HETATM   14  C   UNL     1      -8.407  13.701  67.681  1.00  0.00    -0.182 C  
HETATM   15  C   UNL     1      -7.050   7.487  70.472  1.00  0.00    -0.056 A  
HETATM   16  N   UNL     1     -10.225  12.264  66.588  1.00  0.00    -0.214 NA 
HETATM   17  C   UNL     1      -7.627   6.834  69.398  1.00  0.00    -0.096 A  
HETATM   18  C   UNL     1      -9.405  12.474  67.794  1.00  0.00    -0.198 C  
HETATM   19  C   UNL     1      -8.311   7.520  68.382  1.00  0.00    -0.125 A  
HETATM   20  C   UNL     1      -8.378   8.930  68.456  1.00  0.00    -0.125 A  
HETATM   21  H   UNL     1      -7.703  11.673  70.004  1.00  0.00     0.000 HD 
HETATM   22  C   UNL     1      -7.789   9.584  69.539  1.00  0.00    -0.103 A  
ENDROOT
BRANCH   3  23
HETATM   23  O   UNL     1     -11.038  14.782  67.947  1.00  0.00    -0.272 OA 
BRANCH  23  24
HETATM   24  C   UNL     1     -12.146  14.344  68.600  1.00  0.00    -0.239 C  
HETATM   25  O   UNL     1     -12.987  15.117  69.045  1.00  0.00     0.523 OA 
BRANCH  24  26
HETATM   26  C   UNL     1     -12.384  12.859  68.769  1.00  0.00     0.175 A  
HETATM   27  C   UNL     1     -13.006  12.146  69.790  1.00  0.00     0.939 A  
HETATM   28  C   UNL     1     -11.594  10.724  67.871  1.00  0.00    -0.128 A  
HETATM   29  C   UNL     1     -12.879  10.738  69.911  1.00  0.00     0.080 A  
HETATM   30  C   UNL     1     -11.820  12.097  67.751  1.00  0.00    -0.327 A  
HETATM   31  C   UNL     1     -12.096  10.020  68.981  1.00  0.00     0.649 A  
BRANCH  28  32
HETATM   32  O   UNL     1     -10.873  10.082  66.894  1.00  0.00    -0.186 OA 
HETATM   33  C   UNL     1     -11.659   9.532  65.830  1.00  0.00     4.385 C  
ENDBRANCH  28  32
BRANCH  31  34
HETATM   34  O   UNL     1     -11.870   8.697  69.249  1.00  0.00     0.836 OA 
HETATM   35  C   UNL     1     -12.257   7.716  68.296  1.00  0.00     3.864 C  
ENDBRANCH  31  34
BRANCH  29  36
HETATM   36  O   UNL     1     -13.546  10.256  71.021  1.00  0.00    -0.236 OA 
HETATM   37  C   UNL     1     -14.104  11.183  71.950  1.00  0.00     0.963 C  
ENDBRANCH  29  36
ENDBRANCH  24  26
ENDBRANCH  23  24
ENDBRANCH   3  23
BRANCH   5  38
HETATM   38  O   UNL     1     -10.796  17.431  65.405  1.00  0.00    -0.512 OA 
HETATM   39  C   UNL     1     -11.851  16.937  64.596  1.00  0.00     1.356 C  
ENDBRANCH   5  38
BRANCH   7  40
HETATM   40  C   UNL     1      -8.519  16.888  68.139  1.00  0.00    -0.217 C  
HETATM   41  O   UNL     1      -7.401  16.690  68.598  1.00  0.00    -0.179 OA 
BRANCH  40  42
HETATM   42  O   UNL     1      -9.498  17.585  68.769  1.00  0.00    -0.279 OA 
HETATM   43  C   UNL     1      -9.114  18.840  69.328  1.00  0.00     0.117 C  
ENDBRANCH  40  42
ENDBRANCH   7  40
BRANCH  15  44
HETATM   44  O   UNL     1      -6.437   6.650  71.367  1.00  0.00    -0.044 OA 
HETATM   45  C   UNL     1      -5.233   7.110  71.965  1.00  0.00    -0.036 C  
ENDBRANCH  15  44
TORSDOF 10
ENDMDL
MODEL      185
REMARK 921   NORMALIZED FREE ENERGY PREDICTED BY IDOCK:   33.22 KCAL/MOL
REMARK 922        TOTAL FREE ENERGY PREDICTED BY IDOCK:   49.89 KCAL/MOL
REMARK 923 INTER-LIGAND FREE ENERGY PREDICTED BY IDOCK:    5.02 KCAL/MOL
REMARK 924 INTRA-LIGAND FREE ENERGY PREDICTED BY IDOCK:   44.86 KCAL/MOL
REMARK 927      BINDING AFFINITY PREDICTED BY RF-SCORE:    0.00 PKD
ROOT
HETATM    1  C   UNL     1      -9.376   4.110  69.207  1.00  0.00    -0.237 C  
HETATM    2  C   UNL     1      -8.799   3.882  70.608  1.00  0.00    -0.135 C  
HETATM    3  C   UNL     1      -9.195   4.949  71.676  1.00  0.00    -0.142 C  
HETATM    4  C   UNL     1      -6.047   6.302  66.931  1.00  0.00    -0.025 C  
HETATM    5  C   UNL     1     -10.664   4.644  71.964  1.00  0.00    -0.002 C  
HETATM    6  C   UNL     1      -8.221   4.492  68.272  1.00  0.00    -0.090 C  
HETATM    7  C   UNL     1     -11.423   4.965  70.626  1.00  0.00     2.152 C  
HETATM    8  C   UNL     1      -6.254   5.949  68.415  1.00  0.00    -0.029 C  
HETATM    9  C   UNL     1      -6.976   7.414  66.589  1.00  0.00    -0.070 A  
HETATM   10  C   UNL     1     -10.547   5.107  69.253  1.00  0.00    -0.089 C  
HETATM   11  C   UNL     1      -7.985  10.543  65.107  1.00  0.00    -0.094 A  
HETATM   12  C   UNL     1      -8.128   7.646  67.323  1.00  0.00    -0.119 A  
HETATM   13  N   UNL     1      -8.652   8.832  66.869  1.00  0.00    -0.114 NA 
HETATM   14  C   UNL     1     -10.100   6.488  68.606  1.00  0.00    -0.175 C  
HETATM   15  C   UNL     1      -7.019  10.806  64.124  1.00  0.00     0.410 A  
HETATM   16  N   UNL     1      -7.661   5.722  68.784  1.00  0.00    -0.089 NA 
HETATM   17  C   UNL     1      -5.988   9.910  63.907  1.00  0.00    -0.121 A  
HETATM   18  C   UNL     1      -8.561   6.867  68.561  1.00  0.00    -0.123 C  
HETATM   19  C   UNL     1      -5.852   8.729  64.652  1.00  0.00    -0.064 A  
HETATM   20  C   UNL     1      -6.827   8.441  65.634  1.00  0.00    -0.066 A  
HETATM   21  H   UNL     1      -9.496   9.272  67.234  1.00  0.00     0.000 HD 
HETATM   22  C   UNL     1      -7.869   9.346  65.844  1.00  0.00    -0.099 A  
ENDROOT
BRANCH   3  23
HETATM   23  O   UNL     1      -9.128   6.369  71.289  1.00  0.00    -0.148 OA 
BRANCH  23  24
HETATM   24  C   UNL     1     -10.246   6.815  70.656  1.00  0.00    -0.195 C  
HETATM   25  O   UNL     1     -11.255   6.125  70.555  1.00  0.00    -0.320 OA 
BRANCH  24  26
HETATM   26  C   UNL     1     -10.277   8.211  70.075  1.00  0.00    -0.202 A  
HETATM   27  C   UNL     1      -9.412   8.850  69.191  1.00  0.00    -0.157 A  
HETATM   28  C   UNL     1     -11.340  10.379  70.473  1.00  0.00    -0.341 A  
HETATM   29  C   UNL     1      -9.446  10.254  68.986  1.00  0.00    -0.200 A  
HETATM   30  C   UNL     1     -11.318   8.986  70.575  1.00  0.00    -0.282 A  
HETATM   31  C   UNL     1     -10.375  11.046  69.697  1.00  0.00     0.043 A  
BRANCH  28  32
HETATM   32  O   UNL     1     -12.311  11.079  71.146  1.00  0.00    -0.361 OA 
HETATM   33  C   UNL     1     -13.372  10.276  71.679  1.00  0.00    -0.353 C  
ENDBRANCH  28  32
BRANCH  31  34
HETATM   34  O   UNL     1     -10.244  12.403  69.588  1.00  0.00     0.602 OA 
HETATM   35  C   UNL     1     -11.157  13.130  68.776  1.00  0.00    -0.269 C  
ENDBRANCH  31  34
BRANCH  29  36
HETATM   36  O   UNL     1      -8.471  10.666  68.099  1.00  0.00    -0.116 OA 
HETATM   37  C   UNL     1      -8.591  11.947  67.484  1.00  0.00    -0.160 C  
ENDBRANCH  29  36
ENDBRANCH  24  26
ENDBRANCH  23  24
ENDBRANCH   3  23
BRANCH   5  38
HETATM   38  O   UNL     1     -10.784   3.252  72.330  1.00  0.00     0.055 OA 
HETATM   39  C   UNL     1     -11.101   2.963  73.682  1.00  0.00    -0.229 C  
ENDBRANCH   5  38
BRANCH   7  40
HETATM   40  C   UNL     1     -12.378   6.122  70.854  1.00  0.00     0.568 C  
HETATM   41  O   UNL     1     -13.031   6.693  69.989  1.00  0.00     0.934 OA 
BRANCH  40  42
HETATM   42  O   UNL     1     -12.362   6.472  72.164  1.00  0.00    -0.297 OA 
HETATM   43  C   UNL     1     -13.517   6.116  72.923  1.00  0.00     1.508 C  
ENDBRANCH  40  42
ENDBRANCH   7  40
BRANCH  15  44
HETATM   44  O   UNL     1      -6.979  11.907  63.308  1.00  0.00     2.335 OA 
HETATM   45  C   UNL     1      -8.034  12.056  62.370  1.00  0.00     1.931 C  
ENDBRANCH  15  44
TORSDOF 10
ENDMDL
MODEL      186
REMARK 921   NORMALIZED FREE ENERGY PREDICTED BY IDOCK:   33.64 KCAL/MOL
REMARK 922        TOTAL FREE ENERGY PREDICTED BY IDOCK:   50.55 KCAL/MOL
REMARK 923 INTER-LIGAND FREE ENERGY PREDICTED BY IDOCK:   41.21 KCAL/MOL
REMARK 924 INTRA-LIGAND FREE ENERGY PREDICTED BY IDOCK:    9.34 KCAL/MOL
REMARK 927      BINDING AFFINITY PREDICTED BY RF-SCORE:    0.00 PKD
ROOT
HETATM    1  C   UNL     1      -8.824  18.307  69.399  1.00  0.00     0.433 C  
HETATM    2  C   UNL     1      -7.439  18.710  69.915  1.00  0.00     0.698 C  
HETATM    3  C   UNL     1      -6.232  18.074  69.157  1.00  0.00    -0.237 C  
HETATM    4  C   UNL     1     -10.107  14.843  72.122  1.00  0.00     3.250 C  
HETATM    5  C   UNL     1      -6.218  18.811  67.818  1.00  0.00    -0.198 C  
HETATM    6  C   UNL     1      -9.491  17.424  70.462  1.00  0.00     3.207 C  
HETATM    7  C   UNL     1      -7.546  18.383  67.098  1.00  0.00    -0.232 C  
HETATM    8  C   UNL     1      -8.775  15.586  71.919  1.00  0.00     6.380 C  
HETATM    9  C   UNL     1     -10.328  13.961  70.942  1.00  0.00     3.077 A  
HETATM   10  C   UNL     1      -8.727  17.691  67.993  1.00  0.00    -0.253 C  
HETATM   11  C   UNL     1     -11.231  10.939  69.195  1.00  0.00    -0.318 A  
HETATM   12  C   UNL     1      -9.724  14.221  69.723  1.00  0.00     0.712 A  
HETATM   13  N   UNL     1      -9.981  13.139  68.917  1.00  0.00    -0.434 NA 
HETATM   14  C   UNL     1      -8.997  16.127  68.074  1.00  0.00    -0.185 C  
HETATM   15  C   UNL     1     -11.995  10.204  70.115  1.00  0.00    -0.185 A  
HETATM   16  N   UNL     1      -8.657  16.253  70.611  1.00  0.00     2.676 NA 
HETATM   17  C   UNL     1     -12.256  10.721  71.370  1.00  0.00    -0.374 A  
HETATM   18  C   UNL     1      -8.751  15.361  69.441  1.00  0.00    -0.252 C  
HETATM   19  C   UNL     1     -11.769  11.971  71.783  1.00  0.00     2.398 A  
HETATM   20  C   UNL     1     -11.012  12.731  70.862  1.00  0.00     2.953 A  
HETATM   21  H   UNL     1      -9.649  13.035  67.959  1.00  0.00     0.000 HD 
HETATM   22  C   UNL     1     -10.758  12.206  69.593  1.00  0.00     0.378 A  
ENDROOT
BRANCH   3  23
HETATM   23  O   UNL     1      -6.294  16.636  68.846  1.00  0.00    -0.148 OA 
BRANCH  23  24
HETATM   24  C   UNL     1      -5.922  15.838  69.881  1.00  0.00    -0.166 C  
HETATM   25  O   UNL     1      -5.427  16.291  70.906  1.00  0.00    -0.120 OA 
BRANCH  24  26
HETATM   26  C   UNL     1      -6.141  14.343  69.797  1.00  0.00    -0.131 A  
HETATM   27  C   UNL     1      -6.223  13.494  68.697  1.00  0.00    -0.088 A  
HETATM   28  C   UNL     1      -6.929  12.488  71.184  1.00  0.00     3.995 A  
HETATM   29  C   UNL     1      -6.718  12.168  68.803  1.00  0.00    -0.088 A  
HETATM   30  C   UNL     1      -6.357  13.754  71.038  1.00  0.00     0.291 A  
HETATM   31  C   UNL     1      -7.152  11.679  70.055  1.00  0.00     0.602 A  
BRANCH  28  32
HETATM   32  O   UNL     1      -7.272  12.055  72.442  1.00  0.00     7.867 OA 
HETATM   33  C   UNL     1      -6.490  10.959  72.934  1.00  0.00     3.889 C  
ENDBRANCH  28  32
BRANCH  31  34
HETATM   34  O   UNL     1      -7.778  10.462  70.063  1.00  0.00    -0.136 OA 
HETATM   35  C   UNL     1      -8.937  10.277  70.865  1.00  0.00     1.821 C  
ENDBRANCH  31  34
BRANCH  29  36
HETATM   36  O   UNL     1      -6.746  11.531  67.578  1.00  0.00    -0.073 OA 
HETATM   37  C   UNL     1      -8.003  11.306  66.943  1.00  0.00    -0.155 C  
ENDBRANCH  29  36
ENDBRANCH  24  26
ENDBRANCH  23  24
ENDBRANCH   3  23
BRANCH   5  38
HETATM   38  O   UNL     1      -6.177  20.232  68.073  1.00  0.00    -0.230 OA 
HETATM   39  C   UNL     1      -7.352  20.974  67.788  1.00  0.00    -0.082 C  
ENDBRANCH   5  38
BRANCH   7  40
HETATM   40  C   UNL     1      -7.209  17.605  65.840  1.00  0.00    -0.200 C  
HETATM   41  O   UNL     1      -6.101  17.522  65.324  1.00  0.00     0.153 OA 
BRANCH  40  42
HETATM   42  O   UNL     1      -8.339  17.052  65.331  1.00  0.00     0.115 OA 
HETATM   43  C   UNL     1      -9.303  16.606  66.283  1.00  0.00    -0.292 C  
ENDBRANCH  40  42
ENDBRANCH   7  40
BRANCH  15  44
HETATM   44  O   UNL     1     -12.544   8.967  69.898  1.00  0.00     1.009 OA 
HETATM   45  C   UNL     1     -12.520   8.049  70.981  1.00  0.00    -0.111 C  
ENDBRANCH  15  44
TORSDOF 10
ENDMDL
MODEL      187
REMARK 921   NORMALIZED FREE ENERGY PREDICTED BY IDOCK:   33.94 KCAL/MOL
REMARK 922        TOTAL FREE ENERGY PREDICTED BY IDOCK:   51.03 KCAL/MOL
REMARK 923 INTER-LIGAND FREE ENERGY PREDICTED BY IDOCK:   29.83 KCAL/MOL
REMARK 924 INTRA-LIGAND FREE ENERGY PREDICTED BY IDOCK:   21.20 KCAL/MOL
REMARK 927      BINDING AFFINITY PREDICTED BY RF-SCORE:    0.00 PKD
ROOT
HETATM    1  C   UNL     1      -8.294  17.210  69.283  1.00  0.00     0.137 C  
HETATM    2  C   UNL     1      -7.937  17.585  67.841  1.00  0.00    -0.227 C  
HETATM    3  C   UNL     1      -8.967  17.136  66.759  1.00  0.00    -0.241 C  
HETATM    4  C   UNL     1      -6.025  13.294  70.051  1.00  0.00    -0.134 C  
HETATM    5  C   UNL     1     -10.149  18.080  66.971  1.00  0.00    -0.346 C  
HETATM    6  C   UNL     1      -7.304  16.136  69.755  1.00  0.00     0.156 C  
HETATM    7  C   UNL     1     -10.718  17.716  68.389  1.00  0.00    -0.246 C  
HETATM    8  C   UNL     1      -6.304  14.120  68.782  1.00  0.00    -0.088 C  
HETATM    9  C   UNL     1      -7.288  12.607  70.440  1.00  0.00     2.555 A  
HETATM   10  C   UNL     1      -9.781  16.835  69.399  1.00  0.00    -0.046 C  
HETATM   11  C   UNL     1      -9.357   9.872  71.553  1.00  0.00     1.778 A  
HETATM   12  C   UNL     1      -8.525  13.089  70.043  1.00  0.00     3.210 A  
HETATM   13  N   UNL     1      -9.451  12.141  70.405  1.00  0.00     3.634 NA 
HETATM   14  C   UNL     1      -9.922  15.268  69.623  1.00  0.00    -0.236 C  
HETATM   15  C   UNL     1      -8.467   8.963  72.147  1.00  0.00     0.144 A  
HETATM   16  N   UNL     1      -7.484  14.995  68.887  1.00  0.00    -0.132 NA 
HETATM   17  C   UNL     1      -7.118   9.257  72.215  1.00  0.00     0.518 A  
HETATM   18  C   UNL     1      -8.758  14.302  69.149  1.00  0.00     0.165 C  
HETATM   19  C   UNL     1      -6.581  10.444  71.691  1.00  0.00     1.282 A  
HETATM   20  C   UNL     1      -7.468  11.377  71.106  1.00  0.00     4.864 A  
HETATM   21  H   UNL     1     -10.453  12.209  70.228  1.00  0.00     0.000 HD 
HETATM   22  C   UNL     1      -8.830  11.077  71.046  1.00  0.00     5.644 A  
ENDROOT
BRANCH   3  23
HETATM   23  O   UNL     1      -9.502  15.766  66.842  1.00  0.00    -0.216 OA 
BRANCH  23  24
HETATM   24  C   UNL     1      -8.539  14.808  66.908  1.00  0.00    -0.224 C  
HETATM   25  O   UNL     1      -7.348  15.087  66.975  1.00  0.00    -0.143 OA 
BRANCH  24  26
HETATM   26  C   UNL     1      -8.930  13.346  66.927  1.00  0.00    -0.216 A  
HETATM   27  C   UNL     1      -8.728  12.362  67.890  1.00  0.00    -0.175 A  
HETATM   28  C   UNL     1      -9.647  11.582  65.391  1.00  0.00    -0.224 A  
HETATM   29  C   UNL     1      -8.911  10.983  67.608  1.00  0.00    -0.131 A  
HETATM   30  C   UNL     1      -9.533  12.928  65.745  1.00  0.00    -0.002 A  
HETATM   31  C   UNL     1      -9.303  10.577  66.313  1.00  0.00    -0.170 A  
BRANCH  28  32
HETATM   32  O   UNL     1     -10.092  11.262  64.131  1.00  0.00    -0.265 OA 
HETATM   33  C   UNL     1     -11.010  12.204  63.561  1.00  0.00    -0.453 C  
ENDBRANCH  28  32
BRANCH  31  34
HETATM   34  O   UNL     1      -9.294   9.233  66.054  1.00  0.00    -0.186 OA 
HETATM   35  C   UNL     1      -8.745   8.761  64.831  1.00  0.00    -0.125 C  
ENDBRANCH  31  34
BRANCH  29  36
HETATM   36  O   UNL     1      -8.613  10.192  68.700  1.00  0.00    -0.113 OA 
HETATM   37  C   UNL     1      -9.060   8.838  68.716  1.00  0.00    -0.138 C  
ENDBRANCH  29  36
ENDBRANCH  24  26
ENDBRANCH  23  24
ENDBRANCH   3  23
BRANCH   5  38
HETATM   38  O   UNL     1      -9.670  19.441  66.917  1.00  0.00    -0.312 OA 
HETATM   39  C   UNL     1     -10.435  20.367  66.162  1.00  0.00    -0.046 C  
ENDBRANCH   5  38
BRANCH   7  40
HETATM   40  C   UNL     1     -12.126  17.168  68.242  1.00  0.00     1.794 C  
HETATM   41  O   UNL     1     -12.950  17.526  67.409  1.00  0.00     4.826 OA 
BRANCH  40  42
HETATM   42  O   UNL     1     -12.361  16.252  69.214  1.00  0.00     0.012 OA 
HETATM   43  C   UNL     1     -13.606  16.373  69.902  1.00  0.00     4.165 C  
ENDBRANCH  40  42
ENDBRANCH   7  40
BRANCH  15  44
HETATM   44  O   UNL     1      -8.801   7.755  72.700  1.00  0.00    -0.132 OA 
HETATM   45  C   UNL     1      -7.738   6.856  72.985  1.00  0.00    -0.088 C  
ENDBRANCH  15  44
TORSDOF 10
ENDMDL
MODEL      188
REMARK 921   NORMALIZED FREE ENERGY PREDICTED BY IDOCK:   34.57 KCAL/MOL
REMARK 922        TOTAL FREE ENERGY PREDICTED BY IDOCK:   52.03 KCAL/MOL
REMARK 923 INTER-LIGAND FREE ENERGY PREDICTED BY IDOCK:   12.33 KCAL/MOL
REMARK 924 INTRA-LIGAND FREE ENERGY PREDICTED BY IDOCK:   39.70 KCAL/MOL
REMARK 927      BINDING AFFINITY PREDICTED BY RF-SCORE:    0.00 PKD
ROOT
HETATM    1  C   UNL     1      -5.168  13.931  67.439  1.00  0.00     0.345 C  
HETATM    2  C   UNL     1      -6.117  14.939  66.783  1.00  0.00     1.773 C  
HETATM    3  C   UNL     1      -7.153  15.604  67.742  1.00  0.00    -0.153 C  
HETATM    4  C   UNL     1      -7.125   9.848  66.689  1.00  0.00    -0.087 C  
HETATM    5  C   UNL     1      -6.308  16.569  68.574  1.00  0.00    -0.131 C  
HETATM    6  C   UNL     1      -5.531  12.531  66.926  1.00  0.00     0.291 C  
HETATM    7  C   UNL     1      -5.352  15.655  69.421  1.00  0.00    -0.106 C  
HETATM    8  C   UNL     1      -7.608  11.298  66.507  1.00  0.00    -0.111 C  
HETATM    9  C   UNL     1      -7.117   9.545  68.147  1.00  0.00    -0.079 A  
HETATM   10  C   UNL     1      -5.168  14.095  68.969  1.00  0.00    -0.078 C  
HETATM   11  C   UNL     1      -7.696   7.593  71.123  1.00  0.00    -0.085 A  
HETATM   12  C   UNL     1      -7.029  10.553  69.094  1.00  0.00    -0.080 A  
HETATM   13  N   UNL     1      -7.230   9.962  70.318  1.00  0.00    -0.147 NA 
HETATM   14  C   UNL     1      -5.921  12.867  69.639  1.00  0.00    -0.120 C  
HETATM   15  C   UNL     1      -7.853   6.275  70.667  1.00  0.00    -0.107 A  
HETATM   16  N   UNL     1      -6.891  12.275  67.342  1.00  0.00    -0.135 NA 
HETATM   17  C   UNL     1      -7.745   5.991  69.318  1.00  0.00    -0.095 A  
HETATM   18  C   UNL     1      -6.985  12.048  68.795  1.00  0.00    -0.101 C  
HETATM   19  C   UNL     1      -7.493   6.984  68.359  1.00  0.00    -0.102 A  
HETATM   20  C   UNL     1      -7.315   8.314  68.806  1.00  0.00    -0.088 A  
HETATM   21  H   UNL     1      -7.238  10.457  71.209  1.00  0.00     0.000 HD 
HETATM   22  C   UNL     1      -7.419   8.594  70.169  1.00  0.00    -0.054 A  
ENDROOT
BRANCH   3  23
HETATM   23  O   UNL     1      -7.864  14.737  68.698  1.00  0.00    -0.126 OA 
BRANCH  23  24
HETATM   24  C   UNL     1      -7.995  13.452  68.275  1.00  0.00    -0.147 C  
HETATM   25  O   UNL     1      -7.026  12.768  67.964  1.00  0.00    -0.083 OA 
BRANCH  24  26
HETATM   26  C   UNL     1      -9.366  12.817  68.204  1.00  0.00    -0.214 A  
HETATM   27  C   UNL     1     -10.307  12.791  67.178  1.00  0.00    -0.237 A  
HETATM   28  C   UNL     1     -11.081  11.901  69.689  1.00  0.00    -0.037 A  
HETATM   29  C   UNL     1     -11.651  12.393  67.398  1.00  0.00    -0.365 A  
HETATM   30  C   UNL     1      -9.753  12.222  69.400  1.00  0.00     0.885 A  
HETATM   31  C   UNL     1     -12.068  12.014  68.693  1.00  0.00    -0.088 A  
BRANCH  28  32
HETATM   32  O   UNL     1     -11.403  11.482  70.957  1.00  0.00     0.671 OA 
HETATM   33  C   UNL     1     -12.274  12.361  71.679  1.00  0.00     0.575 C  
ENDBRANCH  28  32
BRANCH  31  34
HETATM   34  O   UNL     1     -13.409  11.809  68.878  1.00  0.00     2.111 OA 
HETATM   35  C   UNL     1     -13.859  10.566  69.402  1.00  0.00     3.989 C  
ENDBRANCH  31  34
BRANCH  29  36
HETATM   36  O   UNL     1     -12.409  12.487  66.248  1.00  0.00    -0.570 OA 
HETATM   37  C   UNL     1     -12.733  11.297  65.532  1.00  0.00     3.753 C  
ENDBRANCH  29  36
ENDBRANCH  24  26
ENDBRANCH  23  24
ENDBRANCH   3  23
BRANCH   5  38
HETATM   38  O   UNL     1      -5.574  17.431  67.677  1.00  0.00    -0.119 OA 
HETATM   39  C   UNL     1      -6.116  18.719  67.429  1.00  0.00    -0.171 C  
ENDBRANCH   5  38
BRANCH   7  40
HETATM   40  C   UNL     1      -5.671  15.822  70.895  1.00  0.00     0.119 C  
HETATM   41  O   UNL     1      -5.305  16.749  71.607  1.00  0.00    -0.080 OA 
BRANCH  40  42
HETATM   42  O   UNL     1      -6.385  14.754  71.329  1.00  0.00     0.124 OA 
HETATM   43  C   UNL     1      -7.746  14.694  70.907  1.00  0.00     2.019 C  
ENDBRANCH  40  42
ENDBRANCH   7  40
BRANCH  15  44
HETATM   44  O   UNL     1      -8.113   5.179  71.447  1.00  0.00    -0.108 OA 
HETATM   45  C   UNL     1      -8.762   5.406  72.690  1.00  0.00    -0.123 C  
ENDBRANCH  15  44
TORSDOF 10
ENDMDL
MODEL      189
REMARK 921   NORMALIZED FREE ENERGY PREDICTED BY IDOCK:   36.60 KCAL/MOL
REMARK 922        TOTAL FREE ENERGY PREDICTED BY IDOCK:   55.23 KCAL/MOL
REMARK 923 INTER-LIGAND FREE ENERGY PREDICTED BY IDOCK:   30.72 KCAL/MOL
REMARK 924 INTRA-LIGAND FREE ENERGY PREDICTED BY IDOCK:   24.51 KCAL/MOL
REMARK 927      BINDING AFFINITY PREDICTED BY RF-SCORE:    0.00 PKD
ROOT
HETATM    1  C   UNL     1      -8.347  11.316  67.645  1.00  0.00    -0.123 C  
HETATM    2  C   UNL     1      -9.809  10.883  67.802  1.00  0.00    -0.194 C  
HETATM    3  C   UNL     1     -10.571  10.607  66.469  1.00  0.00    -0.193 C  
HETATM    4  C   UNL     1      -8.476  15.900  67.826  1.00  0.00    -0.165 C  
HETATM    5  C   UNL     1      -9.977   9.287  65.979  1.00  0.00    -0.255 C  
HETATM    6  C   UNL     1      -8.239  12.788  68.064  1.00  0.00    -0.168 C  
HETATM    7  C   UNL     1      -8.477   9.610  65.643  1.00  0.00    -0.141 C  
HETATM    8  C   UNL     1      -9.565  14.819  67.706  1.00  0.00    -0.209 C  
HETATM    9  C   UNL     1      -7.778  15.999  66.515  1.00  0.00    -0.167 A  
HETATM   10  C   UNL     1      -7.829  10.990  66.233  1.00  0.00    -0.141 C  
HETATM   11  C   UNL     1      -6.265  17.653  63.690  1.00  0.00     5.642 A  
HETATM   12  C   UNL     1      -7.775  14.945  65.616  1.00  0.00     4.754 A  
HETATM   13  N   UNL     1      -7.214  15.418  64.455  1.00  0.00    11.719 NA 
HETATM   14  C   UNL     1      -7.657  12.334  65.403  1.00  0.00     2.806 C  
HETATM   15  C   UNL     1      -6.002  18.958  64.133  1.00  0.00     0.072 A  
HETATM   16  N   UNL     1      -9.078  13.541  67.160  1.00  0.00    -0.223 NA 
HETATM   17  C   UNL     1      -6.310  19.326  65.430  1.00  0.00    -0.303 A  
HETATM   18  C   UNL     1      -8.499  13.615  65.808  1.00  0.00     1.832 C  
HETATM   19  C   UNL     1      -6.901  18.437  66.342  1.00  0.00    -0.252 A  
HETATM   20  C   UNL     1      -7.156  17.114  65.915  1.00  0.00     0.057 A  
HETATM   21  H   UNL     1      -7.091  14.872  63.603  1.00  0.00     0.000 HD 
HETATM   22  C   UNL     1      -6.837  16.746  64.607  1.00  0.00     7.123 A  
ENDROOT
BRANCH   3  23
HETATM   23  O   UNL     1     -10.411  11.574  65.370  1.00  0.00    -0.252 OA 
BRANCH  23  24
HETATM   24  C   UNL     1     -10.750  12.846  65.709  1.00  0.00    -0.273 C  
HETATM   25  O   UNL     1     -10.779  13.754  64.885  1.00  0.00    -0.351 OA 
BRANCH  24  26
HETATM   26  C   UNL     1     -11.133  13.169  67.137  1.00  0.00    -0.305 A  
HETATM   27  C   UNL     1     -11.649  12.362  68.147  1.00  0.00    -0.395 A  
HETATM   28  C   UNL     1     -11.617  15.106  68.551  1.00  0.00    -0.335 A  
HETATM   29  C   UNL     1     -12.215  12.904  69.330  1.00  0.00    -0.065 A  
HETATM   30  C   UNL     1     -10.998  14.519  67.445  1.00  0.00    -0.306 A  
HETATM   31  C   UNL     1     -12.271  14.305  69.504  1.00  0.00    -0.297 A  
BRANCH  28  32
HETATM   32  O   UNL     1     -11.579  16.473  68.684  1.00  0.00    -0.261 OA 
HETATM   33  C   UNL     1     -12.703  17.163  68.122  1.00  0.00     4.087 C  
ENDBRANCH  28  32
BRANCH  31  34
HETATM   34  O   UNL     1     -12.980  14.769  70.578  1.00  0.00    -0.350 OA 
HETATM   35  C   UNL     1     -12.512  15.911  71.283  1.00  0.00    -0.387 C  
ENDBRANCH  31  34
BRANCH  29  36
HETATM   36  O   UNL     1     -12.698  11.917  70.166  1.00  0.00    -0.004 OA 
HETATM   37  C   UNL     1     -12.035  10.656  70.206  1.00  0.00    -0.339 C  
ENDBRANCH  29  36
ENDBRANCH  24  26
ENDBRANCH  23  24
ENDBRANCH   3  23
BRANCH   5  38
HETATM   38  O   UNL     1     -10.094   8.308  67.034  1.00  0.00    -0.226 OA 
HETATM   39  C   UNL     1     -11.125   7.342  66.908  1.00  0.00     0.119 C  
ENDBRANCH   5  38
BRANCH   7  40
HETATM   40  C   UNL     1      -8.242   9.422  64.156  1.00  0.00    -0.158 C  
HETATM   41  O   UNL     1      -9.081   9.563  63.274  1.00  0.00    -0.236 OA 
BRANCH  40  42
HETATM   42  O   UNL     1      -6.965   9.015  63.946  1.00  0.00    -0.088 OA 
HETATM   43  C   UNL     1      -6.803   7.686  63.451  1.00  0.00    -0.059 C  
ENDBRANCH  40  42
ENDBRANCH   7  40
BRANCH  15  44
HETATM   44  O   UNL     1      -5.442  19.963  63.389  1.00  0.00    -0.227 OA 
HETATM   45  C   UNL     1      -6.237  20.525  62.356  1.00  0.00    -0.045 C  
ENDBRANCH  15  44
TORSDOF 10
ENDMDL
MODEL      190
REMARK 921   NORMALIZED FREE ENERGY PREDICTED BY IDOCK:   36.99 KCAL/MOL
REMARK 922        TOTAL FREE ENERGY PREDICTED BY IDOCK:   55.86 KCAL/MOL
REMARK 923 INTER-LIGAND FREE ENERGY PREDICTED BY IDOCK:    7.49 KCAL/MOL
REMARK 924 INTRA-LIGAND FREE ENERGY PREDICTED BY IDOCK:   48.37 KCAL/MOL
REMARK 927      BINDING AFFINITY PREDICTED BY RF-SCORE:    0.00 PKD
ROOT
HETATM    1  C   UNL     1     -12.930  10.004  71.911  1.00  0.00    -0.547 C  
HETATM    2  C   UNL     1     -12.309  11.230  72.588  1.00  0.00     2.914 C  
HETATM    3  C   UNL     1     -11.283  12.025  71.721  1.00  0.00     5.005 C  
HETATM    4  C   UNL     1     -10.365   6.476  73.339  1.00  0.00    -0.278 C  
HETATM    5  C   UNL     1     -12.156  12.733  70.687  1.00  0.00    -0.228 C  
HETATM    6  C   UNL     1     -12.390   8.749  72.610  1.00  0.00    -0.184 C  
HETATM    7  C   UNL     1     -12.772  11.584  69.811  1.00  0.00     0.143 C  
HETATM    8  C   UNL     1     -10.206   8.003  73.439  1.00  0.00     0.015 C  
HETATM    9  C   UNL     1     -10.085   6.075  71.932  1.00  0.00    -0.223 A  
HETATM   10  C   UNL     1     -12.721  10.055  70.388  1.00  0.00    -0.111 C  
HETATM   11  C   UNL     1      -8.678   4.077  69.280  1.00  0.00    -0.124 A  
HETATM   12  C   UNL     1     -10.216   6.973  70.885  1.00  0.00    -0.197 A  
HETATM   13  N   UNL     1      -9.714   6.350  69.768  1.00  0.00    -0.154 NA 
HETATM   14  C   UNL     1     -11.649   8.964  69.958  1.00  0.00     0.111 C  
HETATM   15  C   UNL     1      -8.344   2.856  69.886  1.00  0.00    -0.044 A  
HETATM   16  N   UNL     1     -10.958   8.750  72.416  1.00  0.00    -0.259 NA 
HETATM   17  C   UNL     1      -8.607   2.652  71.228  1.00  0.00    -0.103 A  
HETATM   18  C   UNL     1     -10.593   8.444  71.022  1.00  0.00    -0.214 C  
HETATM   19  C   UNL     1      -9.194   3.638  72.036  1.00  0.00    -0.169 A  
HETATM   20  C   UNL     1      -9.552   4.867  71.436  1.00  0.00    -0.226 A  
HETATM   21  H   UNL     1      -9.661   6.772  68.841  1.00  0.00     0.000 HD 
HETATM   22  C   UNL     1      -9.291   5.065  70.079  1.00  0.00    -0.150 A  
ENDROOT
BRANCH   3  23
HETATM   23  O   UNL     1     -10.277  11.257  70.968  1.00  0.00     2.841 OA 
BRANCH  23  24
HETATM   24  C   UNL     1     -10.726  10.799  69.769  1.00  0.00    -0.186 C  
HETATM   25  O   UNL     1     -11.877  10.986  69.392  1.00  0.00    -0.287 OA 
BRANCH  24  26
HETATM   26  C   UNL     1      -9.785  10.058  68.845  1.00  0.00    -0.181 A  
HETATM   27  C   UNL     1      -9.964   8.892  68.105  1.00  0.00    -0.208 A  
HETATM   28  C   UNL     1      -7.400   9.930  68.314  1.00  0.00    -0.079 A  
HETATM   29  C   UNL     1      -8.875   8.194  67.523  1.00  0.00    -0.135 A  
HETATM   30  C   UNL     1      -8.514  10.622  68.794  1.00  0.00    -0.149 A  
HETATM   31  C   UNL     1      -7.559   8.678  67.694  1.00  0.00    -0.098 A  
BRANCH  28  32
HETATM   32  O   UNL     1      -6.155  10.492  68.463  1.00  0.00    -0.044 OA 
HETATM   33  C   UNL     1      -6.142  11.755  69.140  1.00  0.00    -0.076 C  
ENDBRANCH  28  32
BRANCH  31  34
HETATM   34  O   UNL     1      -6.540   7.873  67.260  1.00  0.00    -0.057 OA 
HETATM   35  C   UNL     1      -6.154   7.910  65.892  1.00  0.00    -0.038 C  
ENDBRANCH  31  34
BRANCH  29  36
HETATM   36  O   UNL     1      -9.288   7.047  66.874  1.00  0.00    -0.141 OA 
HETATM   37  C   UNL     1      -8.459   5.888  66.922  1.00  0.00    -0.108 C  
ENDBRANCH  29  36
ENDBRANCH  24  26
ENDBRANCH  23  24
ENDBRANCH   3  23
BRANCH   5  38
HETATM   38  O   UNL     1     -13.175  13.487  71.380  1.00  0.00    -0.331 OA 
HETATM   39  C   UNL     1     -13.616  14.690  70.771  1.00  0.00    -0.069 C  
ENDBRANCH   5  38
BRANCH   7  40
HETATM   40  C   UNL     1     -12.263  11.708  68.387  1.00  0.00     0.192 C  
HETATM   41  O   UNL     1     -12.952  11.911  67.394  1.00  0.00     2.165 OA 
BRANCH  40  42
HETATM   42  O   UNL     1     -10.922  11.503  68.364  1.00  0.00    -0.192 OA 
HETATM   43  C   UNL     1     -10.108  12.673  68.323  1.00  0.00    -0.233 C  
ENDBRANCH  40  42
ENDBRANCH   7  40
BRANCH  15  44
HETATM   44  O   UNL     1      -7.758   1.784  69.265  1.00  0.00    -0.043 OA 
HETATM   45  C   UNL     1      -6.340   1.779  69.182  1.00  0.00    -0.025 C  
ENDBRANCH  15  44
TORSDOF 10
ENDMDL
MODEL      191
REMARK 921   NORMALIZED FREE ENERGY PREDICTED BY IDOCK:   37.05 KCAL/MOL
REMARK 922        TOTAL FREE ENERGY PREDICTED BY IDOCK:   55.94 KCAL/MOL
REMARK 923 INTER-LIGAND FREE ENERGY PREDICTED BY IDOCK:    5.00 KCAL/MOL
REMARK 924 INTRA-LIGAND FREE ENERGY PREDICTED BY IDOCK:   50.95 KCAL/MOL
REMARK 927      BINDING AFFINITY PREDICTED BY RF-SCORE:    0.00 PKD
ROOT
HETATM    1  C   UNL     1      -7.432  14.792  69.839  1.00  0.00     0.060 C  
HETATM    2  C   UNL     1      -6.563  15.756  69.026  1.00  0.00    -0.134 C  
HETATM    3  C   UNL     1      -7.145  16.174  67.640  1.00  0.00    -0.147 C  
HETATM    4  C   UNL     1      -5.738  10.633  68.891  1.00  0.00    -0.040 C  
HETATM    5  C   UNL     1      -8.290  17.120  67.999  1.00  0.00    -0.218 C  
HETATM    6  C   UNL     1      -6.720  13.433  69.887  1.00  0.00     0.174 C  
HETATM    7  C   UNL     1      -9.347  16.226  68.740  1.00  0.00    -0.235 C  
HETATM    8  C   UNL     1      -5.507  12.028  68.284  1.00  0.00    -0.048 C  
HETATM    9  C   UNL     1      -7.079  10.156  68.453  1.00  0.00    -0.071 A  
HETATM   10  C   UNL     1      -8.873  14.765  69.299  1.00  0.00    -0.030 C  
HETATM   11  C   UNL     1      -9.507   7.799  67.207  1.00  0.00    -0.187 A  
HETATM   12  C   UNL     1      -8.070  11.043  68.064  1.00  0.00    -0.121 A  
HETATM   13  N   UNL     1      -9.097  10.287  67.554  1.00  0.00    -0.137 NA 
HETATM   14  C   UNL     1      -9.141  13.384  68.559  1.00  0.00    -0.077 C  
HETATM   15  C   UNL     1      -8.926   6.537  67.414  1.00  0.00    -0.110 A  
HETATM   16  N   UNL     1      -6.613  12.972  68.521  1.00  0.00    -0.080 NA 
HETATM   17  C   UNL     1      -7.684   6.436  68.013  1.00  0.00    -0.104 A  
HETATM   18  C   UNL     1      -7.919  12.558  67.978  1.00  0.00    -0.153 C  
HETATM   19  C   UNL     1      -6.952   7.563  68.420  1.00  0.00    -0.079 A  
HETATM   20  C   UNL     1      -7.532   8.838  68.234  1.00  0.00    -0.092 A  
HETATM   21  H   UNL     1      -9.963  10.664  67.171  1.00  0.00     0.000 HD 
HETATM   22  C   UNL     1      -8.789   8.935  67.635  1.00  0.00    -0.134 A  
ENDROOT
BRANCH   3  23
HETATM   23  O   UNL     1      -7.722  15.119  66.788  1.00  0.00    -0.108 OA 
BRANCH  23  24
HETATM   24  C   UNL     1      -9.081  15.140  66.741  1.00  0.00    -0.256 C  
HETATM   25  O   UNL     1      -9.704  16.132  66.379  1.00  0.00    -0.250 OA 
BRANCH  24  26
HETATM   26  C   UNL     1      -9.868  13.903  67.114  1.00  0.00    -0.241 A  
HETATM   27  C   UNL     1     -10.333  12.848  66.333  1.00  0.00    -0.277 A  
HETATM   28  C   UNL     1     -11.238  13.041  68.948  1.00  0.00    -0.278 A  
HETATM   29  C   UNL     1     -11.298  11.924  66.812  1.00  0.00    -0.330 A  
HETATM   30  C   UNL     1     -10.228  13.871  68.457  1.00  0.00    -0.240 A  
HETATM   31  C   UNL     1     -11.819  12.067  68.117  1.00  0.00    -0.286 A  
BRANCH  28  32
HETATM   32  O   UNL     1     -11.654  13.199  70.248  1.00  0.00    -0.170 OA 
HETATM   33  C   UNL     1     -12.012  14.539  70.607  1.00  0.00    -0.319 C  
ENDBRANCH  28  32
BRANCH  31  34
HETATM   34  O   UNL     1     -12.867  11.255  68.458  1.00  0.00     0.493 OA 
HETATM   35  C   UNL     1     -12.744  10.390  69.579  1.00  0.00     0.511 C  
ENDBRANCH  31  34
BRANCH  29  36
HETATM   36  O   UNL     1     -11.637  10.993  65.851  1.00  0.00     0.057 OA 
HETATM   37  C   UNL     1     -12.867  10.282  65.979  1.00  0.00    10.475 C  
ENDBRANCH  29  36
ENDBRANCH  24  26
ENDBRANCH  23  24
ENDBRANCH   3  23
BRANCH   5  38
HETATM   38  O   UNL     1      -7.775  18.165  68.853  1.00  0.00    -0.276 OA 
HETATM   39  C   UNL     1      -7.369  19.371  68.226  1.00  0.00    -0.308 C  
ENDBRANCH   5  38
BRANCH   7  40
HETATM   40  C   UNL     1     -10.624  16.172  67.921  1.00  0.00    -0.309 C  
HETATM   41  O   UNL     1     -11.577  15.430  68.127  1.00  0.00    -0.347 OA 
BRANCH  40  42
HETATM   42  O   UNL     1     -10.533  17.038  66.881  1.00  0.00    -0.313 OA 
HETATM   43  C   UNL     1     -10.822  18.404  67.175  1.00  0.00    -0.231 C  
ENDBRANCH  40  42
ENDBRANCH   7  40
BRANCH  15  44
HETATM   44  O   UNL     1      -9.480   5.331  67.076  1.00  0.00    -0.124 OA 
HETATM   45  C   UNL     1     -10.331   4.717  68.033  1.00  0.00     0.090 C  
ENDBRANCH  15  44
TORSDOF 10
ENDMDL
MODEL      192
REMARK 921   NORMALIZED FREE ENERGY PREDICTED BY IDOCK:   37.23 KCAL/MOL
REMARK 922        TOTAL FREE ENERGY PREDICTED BY IDOCK:   56.23 KCAL/MOL
REMARK 923 INTER-LIGAND FREE ENERGY PREDICTED BY IDOCK:    8.41 KCAL/MOL
REMARK 924 INTRA-LIGAND FREE ENERGY PREDICTED BY IDOCK:   47.82 KCAL/MOL
REMARK 927      BINDING AFFINITY PREDICTED BY RF-SCORE:    0.00 PKD
ROOT
HETATM    1  C   UNL     1      -8.853  12.572  70.365  1.00  0.00     5.810 C  
HETATM    2  C   UNL     1      -9.396  13.706  69.489  1.00  0.00     1.074 C  
HETATM    3  C   UNL     1     -10.827  13.478  68.911  1.00  0.00    -0.224 C  
HETATM    4  C   UNL     1      -6.311  10.028  67.513  1.00  0.00    -0.059 C  
HETATM    5  C   UNL     1     -11.739  13.649  70.125  1.00  0.00    -0.218 C  
HETATM    6  C   UNL     1      -7.706  11.892  69.606  1.00  0.00     0.823 C  
HETATM    7  C   UNL     1     -11.385  12.452  71.079  1.00  0.00     1.995 C  
HETATM    8  C   UNL     1      -7.307  11.181  67.293  1.00  0.00    -0.118 C  
HETATM    9  C   UNL     1      -7.089   8.808  67.864  1.00  0.00    -0.079 A  
HETATM   10  C   UNL     1      -9.989  11.640  70.820  1.00  0.00     4.975 C  
HETATM   11  C   UNL     1      -7.995   5.320  67.758  1.00  0.00    -0.099 A  
HETATM   12  C   UNL     1      -8.360   8.893  68.407  1.00  0.00    -0.125 A  
HETATM   13  N   UNL     1      -8.860   7.614  68.440  1.00  0.00    -0.130 NA 
HETATM   14  C   UNL     1      -9.882  10.251  70.055  1.00  0.00    -0.082 C  
HETATM   15  C   UNL     1      -6.871   4.669  67.224  1.00  0.00    -0.056 A  
HETATM   16  N   UNL     1      -8.273  11.352  68.392  1.00  0.00    -0.145 NA 
HETATM   17  C   UNL     1      -5.740   5.395  66.897  1.00  0.00    -0.017 A  
HETATM   18  C   UNL     1      -9.132  10.184  68.660  1.00  0.00    -0.143 C  
HETATM   19  C   UNL     1      -5.667   6.787  67.065  1.00  0.00    -0.014 A  
HETATM   20  C   UNL     1      -6.785   7.453  67.618  1.00  0.00    -0.066 A  
HETATM   21  H   UNL     1      -9.789   7.361  68.776  1.00  0.00     0.000 HD 
HETATM   22  C   UNL     1      -7.921   6.714  67.952  1.00  0.00    -0.113 A  
ENDROOT
BRANCH   3  23
HETATM   23  O   UNL     1     -11.136  12.157  68.336  1.00  0.00    -0.213 OA 
BRANCH  23  24
HETATM   24  C   UNL     1     -10.042  11.494  67.875  1.00  0.00    -0.189 C  
HETATM   25  O   UNL     1      -9.266  10.918  68.629  1.00  0.00    -0.173 OA 
BRANCH  24  26
HETATM   26  C   UNL     1      -9.771  11.428  66.388  1.00  0.00    -0.231 A  
HETATM   27  C   UNL     1     -10.641  11.438  65.302  1.00  0.00    -0.336 A  
HETATM   28  C   UNL     1      -7.975  10.825  64.840  1.00  0.00     0.108 A  
HETATM   29  C   UNL     1     -10.220  11.079  63.995  1.00  0.00    -0.358 A  
HETATM   30  C   UNL     1      -8.423  11.266  66.087  1.00  0.00    -0.135 A  
HETATM   31  C   UNL     1      -8.880  10.690  63.771  1.00  0.00    -0.171 A  
BRANCH  28  32
HETATM   32  O   UNL     1      -6.645  10.521  64.681  1.00  0.00    -0.078 OA 
HETATM   33  C   UNL     1      -6.356   9.121  64.575  1.00  0.00    -0.075 C  
ENDBRANCH  28  32
BRANCH  31  34
HETATM   34  O   UNL     1      -8.577  10.192  62.534  1.00  0.00    -0.154 OA 
HETATM   35  C   UNL     1      -8.072   8.867  62.418  1.00  0.00    -0.155 C  
ENDBRANCH  31  34
BRANCH  29  36
HETATM   36  O   UNL     1     -11.261  11.123  63.090  1.00  0.00    -0.041 OA 
HETATM   37  C   UNL     1     -12.551  11.537  63.536  1.00  0.00     0.018 C  
ENDBRANCH  29  36
ENDBRANCH  24  26
ENDBRANCH  23  24
ENDBRANCH   3  23
BRANCH   5  38
HETATM   38  O   UNL     1     -11.459  14.926  70.737  1.00  0.00    -0.282 OA 
HETATM   39  C   UNL     1     -11.918  15.122  72.066  1.00  0.00    -0.403 C  
ENDBRANCH   5  38
BRANCH   7  40
HETATM   40  C   UNL     1     -12.593  11.545  71.219  1.00  0.00    -0.347 C  
HETATM   41  O   UNL     1     -12.832  10.559  70.533  1.00  0.00    -0.345 OA 
BRANCH  40  42
HETATM   42  O   UNL     1     -13.409  12.022  72.192  1.00  0.00    -0.510 OA 
HETATM   43  C   UNL     1     -13.812  13.384  72.060  1.00  0.00    -0.394 C  
ENDBRANCH  40  42
ENDBRANCH   7  40
BRANCH  15  44
HETATM   44  O   UNL     1      -6.759   3.326  66.980  1.00  0.00    -0.043 OA 
HETATM   45  C   UNL     1      -7.886   2.516  67.279  1.00  0.00    -0.069 C  
ENDBRANCH  15  44
TORSDOF 10
ENDMDL
MODEL      193
REMARK 921   NORMALIZED FREE ENERGY PREDICTED BY IDOCK:   37.82 KCAL/MOL
REMARK 922        TOTAL FREE ENERGY PREDICTED BY IDOCK:   57.17 KCAL/MOL
REMARK 923 INTER-LIGAND FREE ENERGY PREDICTED BY IDOCK:   15.62 KCAL/MOL
REMARK 924 INTRA-LIGAND FREE ENERGY PREDICTED BY IDOCK:   41.54 KCAL/MOL
REMARK 927      BINDING AFFINITY PREDICTED BY RF-SCORE:    0.00 PKD
ROOT
HETATM    1  C   UNL     1      -8.688  13.294  65.488  1.00  0.00     1.552 C  
HETATM    2  C   UNL     1      -9.364  13.050  64.135  1.00  0.00     1.373 C  
HETATM    3  C   UNL     1     -10.804  12.451  64.205  1.00  0.00    -0.372 C  
HETATM    4  C   UNL     1      -6.120   9.554  66.186  1.00  0.00    -0.063 C  
HETATM    5  C   UNL     1     -11.657  13.619  64.697  1.00  0.00    -0.371 C  
HETATM    6  C   UNL     1      -7.536  12.291  65.633  1.00  0.00     2.181 C  
HETATM    7  C   UNL     1     -11.160  13.906  66.159  1.00  0.00    -0.299 C  
HETATM    8  C   UNL     1      -7.213   9.907  65.160  1.00  0.00    -0.133 C  
HETATM    9  C   UNL     1      -6.781   9.312  67.498  1.00  0.00    -0.069 A  
HETATM   10  C   UNL     1      -9.723  13.282  66.627  1.00  0.00    -0.270 C  
HETATM   11  C   UNL     1      -7.422   7.615  70.614  1.00  0.00    -0.072 A  
HETATM   12  C   UNL     1      -8.024   9.850  67.792  1.00  0.00    -0.105 A  
HETATM   13  N   UNL     1      -8.422   9.294  68.983  1.00  0.00    -0.129 NA 
HETATM   14  C   UNL     1      -9.552  11.960  67.491  1.00  0.00    -0.175 C  
HETATM   15  C   UNL     1      -6.283   6.826  70.838  1.00  0.00    -0.040 A  
HETATM   16  N   UNL     1      -8.127  10.972  65.605  1.00  0.00    -0.062 NA 
HETATM   17  C   UNL     1      -5.231   6.857  69.941  1.00  0.00    -0.015 A  
HETATM   18  C   UNL     1      -8.877  10.681  66.839  1.00  0.00    -0.138 C  
HETATM   19  C   UNL     1      -5.256   7.649  68.782  1.00  0.00    -0.025 A  
HETATM   20  C   UNL     1      -6.389   8.462  68.553  1.00  0.00    -0.054 A  
HETATM   21  H   UNL     1      -9.308   9.487  69.448  1.00  0.00     0.000 HD 
HETATM   22  C   UNL     1      -7.445   8.432  69.465  1.00  0.00    -0.088 A  
ENDROOT
BRANCH   3  23
HETATM   23  O   UNL     1     -11.042  11.335  65.136  1.00  0.00    -0.197 OA 
BRANCH  23  24
HETATM   24  C   UNL     1      -9.995  10.472  65.230  1.00  0.00    -0.299 C  
HETATM   25  O   UNL     1      -8.923  10.686  64.676  1.00  0.00    -0.191 OA 
BRANCH  24  26
HETATM   26  C   UNL     1     -10.127   9.214  66.062  1.00  0.00    -0.204 A  
HETATM   27  C   UNL     1      -9.958   9.003  67.427  1.00  0.00    -0.266 A  
HETATM   28  C   UNL     1     -10.210   6.786  65.780  1.00  0.00     1.154 A  
HETATM   29  C   UNL     1      -9.843   7.701  67.980  1.00  0.00    -0.161 A  
HETATM   30  C   UNL     1     -10.401   8.083  65.300  1.00  0.00     3.159 A  
HETATM   31  C   UNL     1      -9.892   6.572  67.133  1.00  0.00    -0.148 A  
BRANCH  28  32
HETATM   32  O   UNL     1     -10.333   5.731  64.908  1.00  0.00     1.345 OA 
HETATM   33  C   UNL     1     -11.243   4.706  65.329  1.00  0.00     0.309 C  
ENDBRANCH  28  32
BRANCH  31  34
HETATM   34  O   UNL     1      -9.603   5.360  67.698  1.00  0.00    -0.118 OA 
HETATM   35  C   UNL     1      -9.111   5.309  69.031  1.00  0.00    -0.115 C  
ENDBRANCH  31  34
BRANCH  29  36
HETATM   36  O   UNL     1      -9.640   7.739  69.345  1.00  0.00    -0.156 OA 
HETATM   37  C   UNL     1     -10.758   7.942  70.207  1.00  0.00    -0.236 C  
ENDBRANCH  29  36
ENDBRANCH  24  26
ENDBRANCH  23  24
ENDBRANCH   3  23
BRANCH   5  38
HETATM   38  O   UNL     1     -11.442  14.749  63.824  1.00  0.00     0.210 OA 
HETATM   39  C   UNL     1     -10.744  14.507  62.613  1.00  0.00     8.433 C  
ENDBRANCH   5  38
BRANCH   7  40
HETATM   40  C   UNL     1     -12.285  13.627  67.138  1.00  0.00    -0.297 C  
HETATM   41  O   UNL     1     -13.238  12.883  66.941  1.00  0.00     1.439 OA 
BRANCH  40  42
HETATM   42  O   UNL     1     -12.110  14.374  68.257  1.00  0.00    -0.309 OA 
HETATM   43  C   UNL     1     -11.212  13.844  69.231  1.00  0.00    -0.251 C  
ENDBRANCH  40  42
ENDBRANCH   7  40
BRANCH  15  44
HETATM   44  O   UNL     1      -6.081   5.986  71.902  1.00  0.00    -0.038 OA 
HETATM   45  C   UNL     1      -6.490   6.450  73.180  1.00  0.00    -0.068 C  
ENDBRANCH  15  44
TORSDOF 10
ENDMDL
MODEL      194
REMARK 921   NORMALIZED FREE ENERGY PREDICTED BY IDOCK:   39.95 KCAL/MOL
REMARK 922        TOTAL FREE ENERGY PREDICTED BY IDOCK:   60.55 KCAL/MOL
REMARK 923 INTER-LIGAND FREE ENERGY PREDICTED BY IDOCK:    5.31 KCAL/MOL
REMARK 924 INTRA-LIGAND FREE ENERGY PREDICTED BY IDOCK:   55.25 KCAL/MOL
REMARK 927      BINDING AFFINITY PREDICTED BY RF-SCORE:    0.00 PKD
ROOT
HETATM    1  C   UNL     1     -10.646   6.657  68.542  1.00  0.00    -0.276 C  
HETATM    2  C   UNL     1     -10.381   5.694  67.380  1.00  0.00    -0.284 C  
HETATM    3  C   UNL     1      -8.891   5.583  66.930  1.00  0.00    -0.112 C  
HETATM    4  C   UNL     1     -11.910  10.580  66.522  1.00  0.00     1.951 C  
HETATM    5  C   UNL     1      -8.230   4.793  68.058  1.00  0.00    -0.095 C  
HETATM    6  C   UNL     1     -11.425   7.861  67.995  1.00  0.00     1.186 C  
HETATM    7  C   UNL     1      -8.308   5.728  69.318  1.00  0.00    -0.108 C  
HETATM    8  C   UNL     1     -11.302   9.269  65.991  1.00  0.00     2.902 C  
HETATM    9  C   UNL     1     -10.840  11.326  67.240  1.00  0.00    -0.317 A  
HETATM   10  C   UNL     1      -9.340   6.996  69.281  1.00  0.00    -0.145 C  
HETATM   11  C   UNL     1      -8.889  14.202  68.202  1.00  0.00    -0.183 A  
HETATM   12  C   UNL     1      -9.733  10.678  67.762  1.00  0.00    -0.161 A  
HETATM   13  N   UNL     1      -8.868  11.657  68.188  1.00  0.00    -0.158 NA 
HETATM   14  C   UNL     1      -8.918   8.494  68.964  1.00  0.00    -0.146 C  
HETATM   15  C   UNL     1      -9.683  15.309  67.861  1.00  0.00    -0.211 A  
HETATM   16  N   UNL     1     -10.576   8.493  67.010  1.00  0.00    -0.290 NA 
HETATM   17  C   UNL     1     -10.935  15.120  67.306  1.00  0.00    -0.327 A  
HETATM   18  C   UNL     1      -9.437   9.187  67.635  1.00  0.00    -0.140 C  
HETATM   19  C   UNL     1     -11.457  13.842  67.049  1.00  0.00    -0.368 A  
HETATM   20  C   UNL     1     -10.676  12.718  67.403  1.00  0.00    -0.248 A  
HETATM   21  H   UNL     1      -7.954  11.485  68.605  1.00  0.00     0.000 HD 
HETATM   22  C   UNL     1      -9.415  12.915  67.969  1.00  0.00    -0.213 A  
ENDROOT
BRANCH   3  23
HETATM   23  O   UNL     1      -8.120   6.830  66.783  1.00  0.00    -0.106 OA 
BRANCH  23  24
HETATM   24  C   UNL     1      -8.896   7.944  66.705  1.00  0.00    -0.138 C  
HETATM   25  O   UNL     1      -9.717   8.227  67.571  1.00  0.00    -0.151 OA 
BRANCH  24  26
HETATM   26  C   UNL     1      -8.738   8.893  65.537  1.00  0.00    -0.215 A  
HETATM   27  C   UNL     1      -7.618   9.233  64.784  1.00  0.00    -0.109 A  
HETATM   28  C   UNL     1      -9.926  10.736  64.451  1.00  0.00    -0.338 A  
HETATM   29  C   UNL     1      -7.606  10.355  63.915  1.00  0.00    -0.019 A  
HETATM   30  C   UNL     1      -9.911   9.574  65.227  1.00  0.00    -0.179 A  
HETATM   31  C   UNL     1      -8.755  11.169  63.803  1.00  0.00     0.157 A  
BRANCH  28  32
HETATM   32  O   UNL     1     -11.098  11.444  64.340  1.00  0.00    -0.329 OA 
HETATM   33  C   UNL     1     -11.701  11.409  63.040  1.00  0.00     0.445 C  
ENDBRANCH  28  32
BRANCH  31  34
HETATM   34  O   UNL     1      -8.628  12.328  63.088  1.00  0.00     0.796 OA 
HETATM   35  C   UNL     1      -9.505  13.415  63.356  1.00  0.00     4.296 C  
ENDBRANCH  31  34
BRANCH  29  36
HETATM   36  O   UNL     1      -6.378  10.520  63.306  1.00  0.00    -0.123 OA 
HETATM   37  C   UNL     1      -5.196  10.182  64.029  1.00  0.00    -0.112 C  
ENDBRANCH  29  36
ENDBRANCH  24  26
ENDBRANCH  23  24
ENDBRANCH   3  23
BRANCH   5  38
HETATM   38  O   UNL     1      -8.965   3.565  68.254  1.00  0.00    -0.108 OA 
HETATM   39  C   UNL     1      -9.585   3.376  69.516  1.00  0.00    -0.081 C  
ENDBRANCH   5  38
BRANCH   7  40
HETATM   40  C   UNL     1      -6.903   6.107  69.751  1.00  0.00    -0.068 C  
HETATM   41  O   UNL     1      -6.588   7.132  70.344  1.00  0.00    -0.045 OA 
BRANCH  40  42
HETATM   42  O   UNL     1      -6.028   5.160  69.331  1.00  0.00    -0.019 OA 
HETATM   43  C   UNL     1      -5.214   4.566  70.342  1.00  0.00     0.000 C  
ENDBRANCH  40  42
ENDBRANCH   7  40
BRANCH  15  44
HETATM   44  O   UNL     1      -9.342  16.626  68.027  1.00  0.00    -0.221 OA 
HETATM   45  C   UNL     1      -9.770  17.537  67.026  1.00  0.00    -0.284 C  
ENDBRANCH  15  44
TORSDOF 10
ENDMDL
MODEL      195
REMARK 921   NORMALIZED FREE ENERGY PREDICTED BY IDOCK:   41.21 KCAL/MOL
REMARK 922        TOTAL FREE ENERGY PREDICTED BY IDOCK:   62.54 KCAL/MOL
REMARK 923 INTER-LIGAND FREE ENERGY PREDICTED BY IDOCK:   43.92 KCAL/MOL
REMARK 924 INTRA-LIGAND FREE ENERGY PREDICTED BY IDOCK:   18.62 KCAL/MOL
REMARK 927      BINDING AFFINITY PREDICTED BY RF-SCORE:    0.00 PKD
ROOT
HETATM    1  C   UNL     1     -11.540  11.511  65.051  1.00  0.00    -0.032 C  
HETATM    2  C   UNL     1     -10.631  11.192  63.860  1.00  0.00    -0.431 C  
HETATM    3  C   UNL     1      -9.285  10.487  64.216  1.00  0.00    -0.245 C  
HETATM    4  C   UNL     1     -10.579  15.874  66.102  1.00  0.00    -0.310 C  
HETATM    5  C   UNL     1      -9.708   9.066  64.587  1.00  0.00     0.887 C  
HETATM    6  C   UNL     1     -11.569  13.034  65.235  1.00  0.00    -0.328 C  
HETATM    7  C   UNL     1     -10.559   9.219  65.898  1.00  0.00     0.621 C  
HETATM    8  C   UNL     1      -9.915  14.843  65.172  1.00  0.00    -0.242 C  
HETATM    9  C   UNL     1     -10.266  15.495  67.508  1.00  0.00    -0.254 A  
HETATM   10  C   UNL     1     -11.120  10.703  66.292  1.00  0.00     0.084 C  
HETATM   11  C   UNL     1      -9.291  16.029  70.938  1.00  0.00     2.629 A  
HETATM   12  C   UNL     1      -9.933  14.194  67.849  1.00  0.00    -0.231 A  
HETATM   13  N   UNL     1      -9.530  14.222  69.162  1.00  0.00    -0.405 NA 
HETATM   14  C   UNL     1     -10.445  11.670  67.357  1.00  0.00    -0.239 C  
HETATM   15  C   UNL     1      -9.487  17.402  71.160  1.00  0.00     5.972 A  
HETATM   16  N   UNL     1     -10.214  13.444  65.522  1.00  0.00    -0.294 NA 
HETATM   17  C   UNL     1      -9.985  18.204  70.150  1.00  0.00     1.317 A  
HETATM   18  C   UNL     1      -9.791  13.031  66.872  1.00  0.00    -0.240 C  
HETATM   19  C   UNL     1     -10.298  17.701  68.878  1.00  0.00    -0.323 A  
HETATM   20  C   UNL     1     -10.122  16.318  68.644  1.00  0.00    -0.233 A  
HETATM   21  H   UNL     1      -9.208  13.411  69.689  1.00  0.00     0.000 HD 
HETATM   22  C   UNL     1      -9.626  15.511  69.670  1.00  0.00    -0.262 A  
ENDROOT
BRANCH   3  23
HETATM   23  O   UNL     1      -8.515  11.008  65.358  1.00  0.00    -0.138 OA 
BRANCH  23  24
HETATM   24  C   UNL     1      -7.593  10.132  65.839  1.00  0.00    -0.128 C  
HETATM   25  O   UNL     1      -6.633   9.766  65.170  1.00  0.00    -0.087 OA 
BRANCH  24  26
HETATM   26  C   UNL     1      -7.722   9.601  67.250  1.00  0.00    -0.091 A  
HETATM   27  C   UNL     1      -8.077  10.240  68.435  1.00  0.00    -0.109 A  
HETATM   28  C   UNL     1      -7.048   7.668  68.589  1.00  0.00    -0.080 A  
HETATM   29  C   UNL     1      -7.863   9.644  69.705  1.00  0.00    -0.142 A  
HETATM   30  C   UNL     1      -7.356   8.264  67.365  1.00  0.00    -0.092 A  
HETATM   31  C   UNL     1      -7.267   8.366  69.791  1.00  0.00    -0.056 A  
BRANCH  28  32
HETATM   32  O   UNL     1      -6.526   6.397  68.597  1.00  0.00    -0.045 OA 
HETATM   33  C   UNL     1      -5.196   6.290  68.072  1.00  0.00    -0.004 C  
ENDBRANCH  28  32
BRANCH  31  34
HETATM   34  O   UNL     1      -6.929   7.921  71.040  1.00  0.00    -0.047 OA 
HETATM   35  C   UNL     1      -7.929   7.843  72.048  1.00  0.00    -0.113 C  
ENDBRANCH  31  34
BRANCH  29  36
HETATM   36  O   UNL     1      -8.253  10.477  70.735  1.00  0.00     0.766 OA 
HETATM   37  C   UNL     1      -9.643  10.625  71.018  1.00  0.00     3.227 C  
ENDBRANCH  29  36
ENDBRANCH  24  26
ENDBRANCH  23  24
ENDBRANCH   3  23
BRANCH   5  38
HETATM   38  O   UNL     1     -10.487   8.518  63.501  1.00  0.00     6.028 OA 
HETATM   39  C   UNL     1     -10.321   7.137  63.219  1.00  0.00     8.789 C  
ENDBRANCH   5  38
BRANCH   7  40
HETATM   40  C   UNL     1      -9.849   8.520  67.043  1.00  0.00    -0.224 C  
HETATM   41  O   UNL     1      -8.643   8.540  67.257  1.00  0.00    -0.121 OA 
BRANCH  40  42
HETATM   42  O   UNL     1     -10.749   7.814  67.773  1.00  0.00    -0.206 OA 
HETATM   43  C   UNL     1     -12.042   8.400  67.911  1.00  0.00     4.480 C  
ENDBRANCH  40  42
ENDBRANCH   7  40
BRANCH  15  44
HETATM   44  O   UNL     1      -9.230  18.072  72.327  1.00  0.00    10.800 OA 
HETATM   45  C   UNL     1     -10.065  19.179  72.636  1.00  0.00     4.074 C  
ENDBRANCH  15  44
TORSDOF 10
ENDMDL
MODEL      196
REMARK 921   NORMALIZED FREE ENERGY PREDICTED BY IDOCK:   43.84 KCAL/MOL
REMARK 922        TOTAL FREE ENERGY PREDICTED BY IDOCK:   66.71 KCAL/MOL
REMARK 923 INTER-LIGAND FREE ENERGY PREDICTED BY IDOCK:    2.50 KCAL/MOL
REMARK 924 INTRA-LIGAND FREE ENERGY PREDICTED BY IDOCK:   64.21 KCAL/MOL
REMARK 927      BINDING AFFINITY PREDICTED BY RF-SCORE:    0.00 PKD
ROOT
HETATM    1  C   UNL     1     -12.063  10.439  67.719  1.00  0.00     1.711 C  
HETATM    2  C   UNL     1     -11.831   9.323  66.695  1.00  0.00     4.627 C  
HETATM    3  C   UNL     1     -10.343   8.900  66.493  1.00  0.00    -0.197 C  
HETATM    4  C   UNL     1     -12.257  14.280  65.213  1.00  0.00    -0.414 C  
HETATM    5  C   UNL     1     -10.009   8.132  67.772  1.00  0.00    -0.181 C  
HETATM    6  C   UNL     1     -12.513  11.695  66.960  1.00  0.00     1.988 C  
HETATM    7  C   UNL     1     -10.078   9.198  68.923  1.00  0.00    -0.209 C  
HETATM    8  C   UNL     1     -11.846  12.832  64.892  1.00  0.00    -0.379 C  
HETATM    9  C   UNL     1     -11.172  14.897  66.026  1.00  0.00    -0.327 A  
HETATM   10  C   UNL     1     -10.831  10.618  68.622  1.00  0.00    -0.266 C  
HETATM   11  C   UNL     1      -8.855  17.466  67.042  1.00  0.00    -0.248 A  
HETATM   12  C   UNL     1     -10.293  14.123  66.766  1.00  0.00    -0.274 A  
HETATM   13  N   UNL     1      -9.323  14.973  67.239  1.00  0.00    -0.197 NA 
HETATM   14  C   UNL     1     -10.088  11.973  68.253  1.00  0.00    -0.201 C  
HETATM   15  C   UNL     1      -9.366  18.653  66.493  1.00  0.00    -0.320 A  
HETATM   16  N   UNL     1     -11.431  12.054  66.072  1.00  0.00    -0.357 NA 
HETATM   17  C   UNL     1     -10.542  18.631  65.766  1.00  0.00    -0.290 A  
HETATM   18  C   UNL     1     -10.276  12.598  66.808  1.00  0.00    -0.237 C  
HETATM   19  C   UNL     1     -11.260  17.446  65.536  1.00  0.00     0.579 A  
HETATM   20  C   UNL     1     -10.767  16.246  66.098  1.00  0.00    -0.198 A  
HETATM   21  H   UNL     1      -8.526  14.686  67.807  1.00  0.00     0.000 HD 
HETATM   22  C   UNL     1      -9.582  16.276  66.836  1.00  0.00    -0.232 A  
ENDROOT
BRANCH   3  23
HETATM   23  O   UNL     1      -9.334   9.965  66.367  1.00  0.00    -0.155 OA 
BRANCH  23  24
HETATM   24  C   UNL     1      -9.742  11.164  66.862  1.00  0.00    -0.191 C  
HETATM   25  O   UNL     1     -10.810  11.672  66.537  1.00  0.00    -0.261 OA 
BRANCH  24  26
HETATM   26  C   UNL     1      -8.881  11.898  67.867  1.00  0.00    -0.172 A  
HETATM   27  C   UNL     1      -9.135  13.039  68.623  1.00  0.00     0.047 A  
HETATM   28  C   UNL     1      -6.540  12.058  68.559  1.00  0.00    -0.062 A  
HETATM   29  C   UNL     1      -8.102  13.742  69.295  1.00  0.00     0.423 A  
HETATM   30  C   UNL     1      -7.605  11.358  67.987  1.00  0.00    -0.110 A  
HETATM   31  C   UNL     1      -6.767  13.290  69.200  1.00  0.00    -0.092 A  
BRANCH  28  32
HETATM   32  O   UNL     1      -5.276  11.526  68.479  1.00  0.00    -0.043 OA 
HETATM   33  C   UNL     1      -5.164  10.365  67.647  1.00  0.00    -0.036 C  
ENDBRANCH  28  32
BRANCH  31  34
HETATM   34  O   UNL     1      -5.797  14.102  69.722  1.00  0.00    -0.100 OA 
HETATM   35  C   UNL     1      -5.735  14.301  71.128  1.00  0.00    -0.210 C  
ENDBRANCH  31  34
BRANCH  29  36
HETATM   36  O   UNL     1      -8.582  14.862  69.944  1.00  0.00     0.069 OA 
HETATM   37  C   UNL     1      -9.941  14.884  70.375  1.00  0.00     0.507 C  
ENDBRANCH  29  36
ENDBRANCH  24  26
ENDBRANCH  23  24
ENDBRANCH   3  23
BRANCH   5  38
HETATM   38  O   UNL     1     -10.987   7.084  67.950  1.00  0.00    -0.196 OA 
HETATM   39  C   UNL     1     -10.851   5.928  67.139  1.00  0.00    -0.285 C  
ENDBRANCH   5  38
BRANCH   7  40
HETATM   40  C   UNL     1      -8.700   9.366  69.537  1.00  0.00    -0.161 C  
HETATM   41  O   UNL     1      -8.435  10.025  70.535  1.00  0.00    -0.092 OA 
BRANCH  40  42
HETATM   42  O   UNL     1      -7.783   8.715  68.779  1.00  0.00    -0.094 OA 
HETATM   43  C   UNL     1      -6.888   7.852  69.479  1.00  0.00    -0.047 C  
ENDBRANCH  40  42
ENDBRANCH   7  40
BRANCH  15  44
HETATM   44  O   UNL     1      -8.804  19.898  66.601  1.00  0.00    -0.329 OA 
HETATM   45  C   UNL     1      -7.577  19.995  67.310  1.00  0.00    -0.286 C  
ENDBRANCH  15  44
TORSDOF 10
ENDMDL
MODEL      197
REMARK 921   NORMALIZED FREE ENERGY PREDICTED BY IDOCK:   49.93 KCAL/MOL
REMARK 922        TOTAL FREE ENERGY PREDICTED BY IDOCK:   76.37 KCAL/MOL
REMARK 923 INTER-LIGAND FREE ENERGY PREDICTED BY IDOCK:   60.28 KCAL/MOL
REMARK 924 INTRA-LIGAND FREE ENERGY PREDICTED BY IDOCK:   16.09 KCAL/MOL
REMARK 927      BINDING AFFINITY PREDICTED BY RF-SCORE:    0.00 PKD
ROOT
HETATM    1  C   UNL     1      -8.193  15.176  68.463  1.00  0.00    -0.148 C  
HETATM    2  C   UNL     1      -7.727  15.393  67.020  1.00  0.00    -0.220 C  
HETATM    3  C   UNL     1      -8.774  15.039  65.919  1.00  0.00     0.552 C  
HETATM    4  C   UNL     1      -6.609  11.014  69.574  1.00  0.00    -0.118 C  
HETATM    5  C   UNL     1      -9.798  16.169  66.017  1.00  0.00    -0.347 C  
HETATM    6  C   UNL     1      -7.406  13.995  69.046  1.00  0.00    -0.081 C  
HETATM    7  C   UNL     1     -10.471  15.995  67.426  1.00  0.00    -0.308 C  
HETATM    8  C   UNL     1      -6.705  11.786  68.246  1.00  0.00    -0.065 C  
HETATM    9  C   UNL     1      -7.979  10.561  69.943  1.00  0.00     0.084 A  
HETATM   10  C   UNL     1      -9.725  15.048  68.530  1.00  0.00    -0.217 C  
HETATM   11  C   UNL     1     -10.498   8.265  71.119  1.00  0.00    -0.254 A  
HETATM   12  C   UNL     1      -9.107  11.204  69.460  1.00  0.00     0.508 A  
HETATM   13  N   UNL     1     -10.186  10.439  69.833  1.00  0.00    -0.415 NA 
HETATM   14  C   UNL     1     -10.123  13.541  68.843  1.00  0.00    -0.029 C  
HETATM   15  C   UNL     1      -9.788   7.270  71.810  1.00  0.00    -0.160 A  
HETATM   16  N   UNL     1      -7.733  12.840  68.241  1.00  0.00    -0.129 NA 
HETATM   17  C   UNL     1      -8.412   7.353  71.923  1.00  0.00    -0.117 A  
HETATM   18  C   UNL     1      -9.110  12.375  68.483  1.00  0.00    -0.067 C  
HETATM   19  C   UNL     1      -7.674   8.404  71.355  1.00  0.00    -0.116 A  
HETATM   20  C   UNL     1      -8.377   9.422  70.673  1.00  0.00    -0.217 A  
HETATM   21  H   UNL     1     -11.156  10.651  69.605  1.00  0.00     0.000 HD 
HETATM   22  C   UNL     1      -9.767   9.337  70.567  1.00  0.00    -0.260 A  
ENDROOT
BRANCH   3  23
HETATM   23  O   UNL     1      -9.524  13.779  66.060  1.00  0.00    -0.215 OA 
BRANCH  23  24
HETATM   24  C   UNL     1     -10.828  13.876  65.688  1.00  0.00    -0.292 C  
HETATM   25  O   UNL     1     -11.218  14.732  64.902  1.00  0.00    -0.372 OA 
BRANCH  24  26
HETATM   26  C   UNL     1     -11.841  12.889  66.227  1.00  0.00    -0.477 A  
HETATM   27  C   UNL     1     -12.760  13.003  67.266  1.00  0.00     1.118 A  
HETATM   28  C   UNL     1     -12.341  10.496  66.155  1.00  0.00     5.109 A  
HETATM   29  C   UNL     1     -13.426  11.874  67.810  1.00  0.00     7.688 A  
HETATM   30  C   UNL     1     -11.777  11.648  65.603  1.00  0.00     0.032 A  
HETATM   31  C   UNL     1     -13.156  10.585  67.298  1.00  0.00     9.712 A  
BRANCH  28  32
HETATM   32  O   UNL     1     -12.081   9.281  65.567  1.00  0.00     7.042 OA 
HETATM   33  C   UNL     1     -10.725   9.096  65.144  1.00  0.00     3.140 C  
ENDBRANCH  28  32
BRANCH  31  34
HETATM   34  O   UNL     1     -13.693   9.524  67.974  1.00  0.00    10.546 OA 
HETATM   35  C   UNL     1     -13.739   9.551  69.395  1.00  0.00     4.369 C  
ENDBRANCH  31  34
BRANCH  29  36
HETATM   36  O   UNL     1     -14.257  12.223  68.856  1.00  0.00     8.000 OA 
HETATM   37  C   UNL     1     -13.716  12.948  69.958  1.00  0.00     3.063 C  
ENDBRANCH  29  36
ENDBRANCH  24  26
ENDBRANCH  23  24
ENDBRANCH   3  23
BRANCH   5  38
HETATM   38  O   UNL     1      -9.106  17.431  65.904  1.00  0.00    -0.515 OA 
HETATM   39  C   UNL     1      -8.538  17.967  67.089  1.00  0.00    -0.235 C  
ENDBRANCH   5  38
BRANCH   7  40
HETATM   40  C   UNL     1     -11.941  15.667  67.245  1.00  0.00     0.527 C  
HETATM   41  O   UNL     1     -12.521  14.694  67.712  1.00  0.00    -0.032 OA 
BRANCH  40  42
HETATM   42  O   UNL     1     -12.516  16.589  66.433  1.00  0.00     2.746 OA 
HETATM   43  C   UNL     1     -11.623  17.393  65.665  1.00  0.00     1.778 C  
ENDBRANCH  40  42
ENDBRANCH   7  40
BRANCH  15  44
HETATM   44  O   UNL     1     -10.330   6.169  72.418  1.00  0.00    -0.187 OA 
HETATM   45  C   UNL     1      -9.587   5.581  73.475  1.00  0.00    -0.139 C  
ENDBRANCH  15  44
TORSDOF 10
ENDMDL
MODEL      198
REMARK 921   NORMALIZED FREE ENERGY PREDICTED BY IDOCK:   51.70 KCAL/MOL
REMARK 922        TOTAL FREE ENERGY PREDICTED BY IDOCK:   79.17 KCAL/MOL
REMARK 923 INTER-LIGAND FREE ENERGY PREDICTED BY IDOCK:   76.99 KCAL/MOL
REMARK 924 INTRA-LIGAND FREE ENERGY PREDICTED BY IDOCK:    2.17 KCAL/MOL
REMARK 927      BINDING AFFINITY PREDICTED BY RF-SCORE:    0.00 PKD
ROOT
HETATM    1  C   UNL     1      -6.204   7.831  64.832  1.00  0.00    -0.041 C  
HETATM    2  C   UNL     1      -6.219   6.814  65.977  1.00  0.00    -0.038 C  
HETATM    3  C   UNL     1      -7.626   6.496  66.571  1.00  0.00    -0.090 C  
HETATM    4  C   UNL     1      -5.250  11.837  66.858  1.00  0.00    -0.108 C  
HETATM    5  C   UNL     1      -8.295   5.653  65.487  1.00  0.00    -0.139 C  
HETATM    6  C   UNL     1      -5.533   9.113  65.342  1.00  0.00    -0.038 C  
HETATM    7  C   UNL     1      -8.471   6.620  64.262  1.00  0.00     0.228 C  
HETATM    8  C   UNL     1      -5.625  10.445  67.398  1.00  0.00    -0.041 C  
HETATM    9  C   UNL     1      -6.477  12.452  66.280  1.00  0.00     1.596 A  
HETATM   10  C   UNL     1      -7.613   8.011  64.241  1.00  0.00    -0.118 C  
HETATM   11  C   UNL     1      -8.872  15.067  65.629  1.00  0.00     0.833 A  
HETATM   12  C   UNL     1      -7.540  11.676  65.849  1.00  0.00     0.536 A  
HETATM   13  N   UNL     1      -8.564  12.542  65.550  1.00  0.00     0.353 NA 
HETATM   14  C   UNL     1      -8.189   9.433  64.656  1.00  0.00    -0.148 C  
HETATM   15  C   UNL     1      -8.196  16.261  65.928  1.00  0.00     0.292 A  
HETATM   16  N   UNL     1      -6.348   9.604  66.429  1.00  0.00    -0.068 NA 
HETATM   17  C   UNL     1      -6.879  16.225  66.346  1.00  0.00     0.420 A  
HETATM   18  C   UNL     1      -7.626  10.157  65.950  1.00  0.00    -0.128 C  
HETATM   19  C   UNL     1      -6.173  15.022  66.502  1.00  0.00     2.667 A  
HETATM   20  C   UNL     1      -6.835  13.813  66.187  1.00  0.00     4.557 A  
HETATM   21  H   UNL     1      -9.487  12.261  65.221  1.00  0.00     0.000 HD 
HETATM   22  C   UNL     1      -8.163  13.856  65.759  1.00  0.00     2.608 A  
ENDROOT
BRANCH   3  23
HETATM   23  O   UNL     1      -8.531   7.627  66.842  1.00  0.00    -0.121 OA 
BRANCH  23  24
HETATM   24  C   UNL     1      -8.654   7.923  68.163  1.00  0.00    -0.123 C  
HETATM   25  O   UNL     1      -7.688   7.942  68.918  1.00  0.00    -0.101 OA 
BRANCH  24  26
HETATM   26  C   UNL     1     -10.011   8.268  68.736  1.00  0.00    -0.193 A  
HETATM   27  C   UNL     1     -11.263   7.698  68.522  1.00  0.00     0.394 A  
HETATM   28  C   UNL     1     -11.136  10.101  69.903  1.00  0.00    -0.293 A  
HETATM   29  C   UNL     1     -12.462   8.340  68.926  1.00  0.00     4.306 A  
HETATM   30  C   UNL     1      -9.985   9.388  69.560  1.00  0.00    -0.200 A  
HETATM   31  C   UNL     1     -12.405   9.601  69.559  1.00  0.00     0.952 A  
BRANCH  28  32
HETATM   32  O   UNL     1     -11.005  11.293  70.573  1.00  0.00     0.263 OA 
HETATM   33  C   UNL     1     -10.085  11.268  71.671  1.00  0.00     8.408 C  
ENDBRANCH  28  32
BRANCH  31  34
HETATM   34  O   UNL     1     -13.594  10.245  69.767  1.00  0.00     0.385 OA 
HETATM   35  C   UNL     1     -13.707  11.625  69.442  1.00  0.00     4.818 C  
ENDBRANCH  31  34
BRANCH  29  36
HETATM   36  O   UNL     1     -13.579   7.608  68.573  1.00  0.00    10.728 OA 
HETATM   37  C   UNL     1     -13.610   6.211  68.855  1.00  0.00    13.519 C  
ENDBRANCH  29  36
ENDBRANCH  24  26
ENDBRANCH  23  24
ENDBRANCH   3  23
BRANCH   5  38
HETATM   38  O   UNL     1      -7.432   4.538  65.172  1.00  0.00    -0.074 OA 
HETATM   39  C   UNL     1      -6.635   4.646  64.004  1.00  0.00    -0.042 C  
ENDBRANCH   5  38
BRANCH   7  40
HETATM   40  C   UNL     1      -9.950   6.820  63.988  1.00  0.00     4.915 C  
HETATM   41  O   UNL     1     -10.446   7.114  62.906  1.00  0.00     7.056 OA 
BRANCH  40  42
HETATM   42  O   UNL     1     -10.649   6.680  65.142  1.00  0.00     2.929 OA 
HETATM   43  C   UNL     1     -10.505   5.431  65.816  1.00  0.00     0.146 C  
ENDBRANCH  40  42
ENDBRANCH   7  40
BRANCH  15  44
HETATM   44  O   UNL     1      -8.719  17.525  65.847  1.00  0.00    -0.525 OA 
HETATM   45  C   UNL     1      -9.146  17.969  64.568  1.00  0.00     6.713 C  
ENDBRANCH  15  44
TORSDOF 10
ENDMDL
MODEL      199
REMARK 921   NORMALIZED FREE ENERGY PREDICTED BY IDOCK:   55.90 KCAL/MOL
REMARK 922        TOTAL FREE ENERGY PREDICTED BY IDOCK:   85.82 KCAL/MOL
REMARK 923 INTER-LIGAND FREE ENERGY PREDICTED BY IDOCK:   86.24 KCAL/MOL
REMARK 924 INTRA-LIGAND FREE ENERGY PREDICTED BY IDOCK:   -0.42 KCAL/MOL
REMARK 927      BINDING AFFINITY PREDICTED BY RF-SCORE:    0.00 PKD
ROOT
HETATM    1  C   UNL     1      -5.389   8.137  72.412  1.00  0.00    -0.037 C  
HETATM    2  C   UNL     1      -6.408   7.555  73.397  1.00  0.00    -0.065 C  
HETATM    3  C   UNL     1      -7.666   6.899  72.748  1.00  0.00    -0.093 C  
HETATM    4  C   UNL     1      -6.456  12.594  72.152  1.00  0.00     4.012 C  
HETATM    5  C   UNL     1      -7.130   5.598  72.153  1.00  0.00    -0.087 C  
HETATM    6  C   UNL     1      -5.420   9.666  72.544  1.00  0.00     0.057 C  
HETATM    7  C   UNL     1      -6.147   6.041  71.010  1.00  0.00    -0.038 C  
HETATM    8  C   UNL     1      -7.164  11.375  72.769  1.00  0.00    10.288 C  
HETATM    9  C   UNL     1      -6.590  12.503  70.672  1.00  0.00     1.186 A  
HETATM   10  C   UNL     1      -5.624   7.591  70.994  1.00  0.00    -0.031 C  
HETATM   11  C   UNL     1      -7.202  13.704  67.327  1.00  0.00     0.005 A  
HETATM   12  C   UNL     1      -6.813  11.291  70.039  1.00  0.00     0.080 A  
HETATM   13  N   UNL     1      -7.067  11.578  68.719  1.00  0.00    -0.100 NA 
HETATM   14  C   UNL     1      -6.226   8.736  70.072  1.00  0.00    -0.037 C  
HETATM   15  C   UNL     1      -7.055  15.097  67.410  1.00  0.00    -0.187 A  
HETATM   16  N   UNL     1      -6.755  10.087  72.183  1.00  0.00     0.653 NA 
HETATM   17  C   UNL     1      -6.716  15.689  68.613  1.00  0.00    -0.115 A  
HETATM   18  C   UNL     1      -7.001   9.949  70.737  1.00  0.00     0.004 C  
HETATM   19  C   UNL     1      -6.521  14.944  69.787  1.00  0.00    -0.164 A  
HETATM   20  C   UNL     1      -6.648  13.538  69.715  1.00  0.00     0.011 A  
HETATM   21  H   UNL     1      -7.285  10.883  68.005  1.00  0.00     0.000 HD 
HETATM   22  C   UNL     1      -6.984  12.946  68.496  1.00  0.00    -0.098 A  
ENDROOT
BRANCH   3  23
HETATM   23  O   UNL     1      -8.331   7.622  71.650  1.00  0.00    -0.104 OA 
BRANCH  23  24
HETATM   24  C   UNL     1      -9.661   7.814  71.850  1.00  0.00    -0.169 C  
HETATM   25  O   UNL     1     -10.086   8.657  72.632  1.00  0.00    -0.251 OA 
BRANCH  24  26
HETATM   26  C   UNL     1     -10.667   6.992  71.074  1.00  0.00    -0.256 A  
HETATM   27  C   UNL     1     -11.385   7.284  69.918  1.00  0.00    -0.145 A  
HETATM   28  C   UNL     1     -12.085   5.017  71.357  1.00  0.00     2.546 A  
HETATM   29  C   UNL     1     -12.493   6.502  69.501  1.00  0.00     1.963 A  
HETATM   30  C   UNL     1     -10.952   5.770  71.676  1.00  0.00    -0.308 A  
HETATM   31  C   UNL     1     -12.901   5.393  70.275  1.00  0.00     7.112 A  
BRANCH  28  32
HETATM   32  O   UNL     1     -12.386   3.915  72.120  1.00  0.00     2.651 OA 
HETATM   33  C   UNL     1     -13.331   4.151  73.171  1.00  0.00     2.412 C  
ENDBRANCH  28  32
BRANCH  31  34
HETATM   34  O   UNL     1     -14.075   4.786  69.920  1.00  0.00    16.446 OA 
HETATM   35  C   UNL     1     -14.334   3.457  70.355  1.00  0.00    20.632 C  
ENDBRANCH  31  34
BRANCH  29  36
HETATM   36  O   UNL     1     -13.073   7.004  68.353  1.00  0.00     6.543 OA 
HETATM   37  C   UNL     1     -13.133   6.180  67.190  1.00  0.00    12.546 C  
ENDBRANCH  29  36
ENDBRANCH  24  26
ENDBRANCH  23  24
ENDBRANCH   3  23
BRANCH   5  38
HETATM   38  O   UNL     1      -6.450   4.861  73.192  1.00  0.00    -0.054 OA 
HETATM   39  C   UNL     1      -5.271   4.162  72.824  1.00  0.00     0.000 C  
ENDBRANCH   5  38
BRANCH   7  40
HETATM   40  C   UNL     1      -6.687   5.573  69.672  1.00  0.00    -0.058 C  
HETATM   41  O   UNL     1      -7.706   4.915  69.501  1.00  0.00    -0.065 OA 
BRANCH  40  42
HETATM   42  O   UNL     1      -5.836   5.946  68.683  1.00  0.00    -0.014 OA 
HETATM   43  C   UNL     1      -6.022   5.308  67.421  1.00  0.00    -0.026 C  
ENDBRANCH  40  42
ENDBRANCH   7  40
BRANCH  15  44
HETATM   44  O   UNL     1      -7.215  15.986  66.379  1.00  0.00    -0.107 OA 
HETATM   45  C   UNL     1      -8.327  16.866  66.449  1.00  0.00    -0.298 C  
ENDBRANCH  15  44
TORSDOF 10
ENDMDL
MODEL      200
REMARK 921   NORMALIZED FREE ENERGY PREDICTED BY IDOCK:   59.31 KCAL/MOL
REMARK 922        TOTAL FREE ENERGY PREDICTED BY IDOCK:   91.23 KCAL/MOL
REMARK 923 INTER-LIGAND FREE ENERGY PREDICTED BY IDOCK:   88.63 KCAL/MOL
REMARK 924 INTRA-LIGAND FREE ENERGY PREDICTED BY IDOCK:    2.60 KCAL/MOL
REMARK 927      BINDING AFFINITY PREDICTED BY RF-SCORE:    0.00 PKD
ROOT
HETATM    1  C   UNL     1      -8.267   8.136  64.290  1.00  0.00    -0.095 C  
HETATM    2  C   UNL     1      -8.686   9.294  63.378  1.00  0.00    -0.193 C  
HETATM    3  C   UNL     1      -8.745  10.696  64.061  1.00  0.00    -0.131 C  
HETATM    4  C   UNL     1     -12.224   6.282  65.692  1.00  0.00     5.605 C  
HETATM    5  C   UNL     1      -7.275  11.062  64.261  1.00  0.00     0.813 C  
HETATM    6  C   UNL     1      -9.488   7.233  64.505  1.00  0.00     2.271 C  
HETATM    7  C   UNL     1      -6.727  10.019  65.300  1.00  0.00    -0.117 C  
HETATM    8  C   UNL     1     -11.876   7.581  64.944  1.00  0.00    14.211 C  
HETATM    9  C   UNL     1     -11.830   6.451  67.118  1.00  0.00     1.548 A  
HETATM   10  C   UNL     1      -7.600   8.663  65.572  1.00  0.00    -0.087 C  
HETATM   11  C   UNL     1     -12.193   6.228  70.699  1.00  0.00     0.198 A  
HETATM   12  C   UNL     1     -10.862   7.368  67.497  1.00  0.00    -0.187 A  
HETATM   13  N   UNL     1     -10.869   7.403  68.870  1.00  0.00    -0.396 NA 
HETATM   14  C   UNL     1      -8.576   8.452  66.808  1.00  0.00    -0.123 C  
HETATM   15  C   UNL     1     -13.194   5.265  70.902  1.00  0.00     6.684 A  
HETATM   16  N   UNL     1     -10.493   8.040  65.159  1.00  0.00     3.586 NA 
HETATM   17  C   UNL     1     -13.776   4.631  69.820  1.00  0.00    21.474 A  
HETATM   18  C   UNL     1     -10.137   8.328  66.559  1.00  0.00    -0.233 C  
HETATM   19  C   UNL     1     -13.412   4.921  68.496  1.00  0.00    23.642 A  
HETATM   20  C   UNL     1     -12.393   5.876  68.276  1.00  0.00     5.569 A  
HETATM   21  H   UNL     1     -10.272   8.002  69.439  1.00  0.00     0.000 HD 
HETATM   22  C   UNL     1     -11.805   6.508  69.372  1.00  0.00     0.203 A  
ENDROOT
BRANCH   3  23
HETATM   23  O   UNL     1      -9.386  10.792  65.384  1.00  0.00    -0.187 OA 
BRANCH  23  24
HETATM   24  C   UNL     1      -9.634  12.069  65.778  1.00  0.00    -0.213 C  
HETATM   25  O   UNL     1      -9.228  13.036  65.143  1.00  0.00     0.417 OA 
BRANCH  24  26
HETATM   26  C   UNL     1     -10.458  12.328  67.021  1.00  0.00    -0.237 A  
HETATM   27  C   UNL     1     -11.321  11.499  67.732  1.00  0.00    -0.364 A  
HETATM   28  C   UNL     1     -11.292  14.203  68.353  1.00  0.00    -0.287 A  
HETATM   29  C   UNL     1     -12.223  12.006  68.702  1.00  0.00     0.120 A  
HETATM   30  C   UNL     1     -10.368  13.642  67.469  1.00  0.00    -0.241 A  
HETATM   31  C   UNL     1     -12.266  13.393  68.965  1.00  0.00    -0.148 A  
BRANCH  28  32
HETATM   32  O   UNL     1     -11.235  15.552  68.606  1.00  0.00    -0.285 OA 
HETATM   33  C   UNL     1     -11.791  16.381  67.577  1.00  0.00     0.730 C  
ENDBRANCH  28  32
BRANCH  31  34
HETATM   34  O   UNL     1     -13.271  13.840  69.780  1.00  0.00     0.552 OA 
HETATM   35  C   UNL     1     -12.953  14.330  71.076  1.00  0.00    -0.342 C  
ENDBRANCH  31  34
BRANCH  29  36
HETATM   36  O   UNL     1     -13.006  11.007  69.246  1.00  0.00    -0.024 OA 
HETATM   37  C   UNL     1     -12.666  10.479  70.526  1.00  0.00    -0.305 C  
ENDBRANCH  29  36
ENDBRANCH  24  26
ENDBRANCH  23  24
ENDBRANCH   3  23
BRANCH   5  38
HETATM   38  O   UNL     1      -6.597  10.963  62.990  1.00  0.00     0.056 OA 
HETATM   39  C   UNL     1      -6.102  12.167  62.425  1.00  0.00     2.185 C  
ENDBRANCH   5  38
BRANCH   7  40
HETATM   40  C   UNL     1      -6.320  10.739  66.571  1.00  0.00    -0.115 C  
HETATM   41  O   UNL     1      -6.001  11.919  66.656  1.00  0.00    -0.187 OA 
BRANCH  40  42
HETATM   42  O   UNL     1      -6.307   9.862  67.606  1.00  0.00    -0.058 OA 
HETATM   43  C   UNL     1      -6.212   8.482  67.258  1.00  0.00    -0.056 C  
ENDBRANCH  40  42
ENDBRANCH   7  40
BRANCH  15  44
HETATM   44  O   UNL     1     -13.685   4.859  72.115  1.00  0.00     2.170 OA 
HETATM   45  C   UNL     1     -12.778   4.218  73.000  1.00  0.00     1.206 C  
ENDBRANCH  15  44
TORSDOF 10
ENDMDL
MODEL      201
REMARK 921   NORMALIZED FREE ENERGY PREDICTED BY IDOCK:   62.54 KCAL/MOL
REMARK 922        TOTAL FREE ENERGY PREDICTED BY IDOCK:   96.34 KCAL/MOL
REMARK 923 INTER-LIGAND FREE ENERGY PREDICTED BY IDOCK:    3.01 KCAL/MOL
REMARK 924 INTRA-LIGAND FREE ENERGY PREDICTED BY IDOCK:   93.33 KCAL/MOL
REMARK 927      BINDING AFFINITY PREDICTED BY RF-SCORE:    0.00 PKD
ROOT
HETATM    1  C   UNL     1      -7.883  14.322  70.120  1.00  0.00     0.989 C  
HETATM    2  C   UNL     1      -6.820  15.379  69.804  1.00  0.00    -0.162 C  
HETATM    3  C   UNL     1      -6.565  15.639  68.287  1.00  0.00    -0.122 C  
HETATM    4  C   UNL     1      -5.502  10.456  70.788  1.00  0.00    -0.085 C  
HETATM    5  C   UNL     1      -7.810  16.402  67.836  1.00  0.00    -0.152 C  
HETATM    6  C   UNL     1      -7.176  13.100  70.720  1.00  0.00     3.036 C  
HETATM    7  C   UNL     1      -8.994  15.380  67.979  1.00  0.00    -0.171 C  
HETATM    8  C   UNL     1      -5.126  11.844  70.239  1.00  0.00    -0.089 C  
HETATM    9  C   UNL     1      -6.302   9.751  69.750  1.00  0.00    -0.050 A  
HETATM   10  C   UNL     1      -8.758  14.040  68.886  1.00  0.00     0.063 C  
HETATM   11  C   UNL     1      -7.331   6.982  67.682  1.00  0.00    -0.096 A  
HETATM   12  C   UNL     1      -6.994  10.449  68.772  1.00  0.00    -0.068 A  
HETATM   13  N   UNL     1      -7.466   9.515  67.882  1.00  0.00    -0.083 NA 
HETATM   14  C   UNL     1      -8.409  12.605  68.299  1.00  0.00    -0.165 C  
HETATM   15  C   UNL     1      -6.833   5.841  68.330  1.00  0.00    -0.063 A  
HETATM   16  N   UNL     1      -6.270  12.605  69.709  1.00  0.00    -0.129 NA 
HETATM   17  C   UNL     1      -6.139   5.966  69.520  1.00  0.00    -0.029 A  
HETATM   18  C   UNL     1      -6.989  11.963  68.595  1.00  0.00    -0.095 C  
HETATM   19  C   UNL     1      -5.893   7.213  70.117  1.00  0.00    -0.024 A  
HETATM   20  C   UNL     1      -6.404   8.369  69.485  1.00  0.00    -0.037 A  
HETATM   21  H   UNL     1      -8.002   9.731  67.042  1.00  0.00     0.000 HD 
HETATM   22  C   UNL     1      -7.109   8.236  68.287  1.00  0.00    -0.081 A  
ENDROOT
BRANCH   3  23
HETATM   23  O   UNL     1      -6.443  14.470  67.398  1.00  0.00    -0.309 OA 
BRANCH  23  24
HETATM   24  C   UNL     1      -7.638  13.934  67.037  1.00  0.00     0.250 C  
HETATM   25  O   UNL     1      -7.763  13.239  66.034  1.00  0.00     1.677 OA 
BRANCH  24  26
HETATM   26  C   UNL     1      -8.861  14.164  67.899  1.00  0.00    -0.182 A  
HETATM   27  C   UNL     1      -9.174  15.197  68.778  1.00  0.00    -0.200 A  
HETATM   28  C   UNL     1     -10.783  12.937  68.784  1.00  0.00    -0.218 A  
HETATM   29  C   UNL     1     -10.237  15.095  69.712  1.00  0.00    -0.185 A  
HETATM   30  C   UNL     1      -9.780  13.123  67.830  1.00  0.00    -0.221 A  
HETATM   31  C   UNL     1     -11.009  13.914  69.771  1.00  0.00     0.074 A  
BRANCH  28  32
HETATM   32  O   UNL     1     -11.535  11.788  68.743  1.00  0.00    -0.238 OA 
HETATM   33  C   UNL     1     -12.039  11.446  67.445  1.00  0.00     0.558 C  
ENDBRANCH  28  32
BRANCH  31  34
HETATM   34  O   UNL     1     -11.902  13.807  70.802  1.00  0.00    -0.272 OA 
HETATM   35  C   UNL     1     -13.206  13.300  70.547  1.00  0.00     0.413 C  
ENDBRANCH  31  34
BRANCH  29  36
HETATM   36  O   UNL     1     -10.333  16.221  70.505  1.00  0.00     0.131 OA 
HETATM   37  C   UNL     1     -11.491  17.047  70.398  1.00  0.00     0.993 C  
ENDBRANCH  29  36
ENDBRANCH  24  26
ENDBRANCH  23  24
ENDBRANCH   3  23
BRANCH   5  38
HETATM   38  O   UNL     1      -7.983  17.551  68.693  1.00  0.00    -0.266 OA 
HETATM   39  C   UNL     1      -7.461  18.787  68.231  1.00  0.00    -0.275 C  
ENDBRANCH   5  38
BRANCH   7  40
HETATM   40  C   UNL     1      -9.575  15.086  66.608  1.00  0.00    -0.263 C  
HETATM   41  O   UNL     1     -10.276  14.125  66.318  1.00  0.00    -0.279 OA 
BRANCH  40  42
HETATM   42  O   UNL     1      -9.152  16.026  65.726  1.00  0.00    -0.349 OA 
HETATM   43  C   UNL     1      -9.743  17.318  65.854  1.00  0.00    -0.086 C  
ENDBRANCH  40  42
ENDBRANCH   7  40
BRANCH  15  44
HETATM   44  O   UNL     1      -6.963   4.547  67.898  1.00  0.00    -0.054 OA 
HETATM   45  C   UNL     1      -8.127   3.842  68.305  1.00  0.00    -0.075 C  
ENDBRANCH  15  44
TORSDOF 10
ENDMDL
MODEL      202
REMARK 921   NORMALIZED FREE ENERGY PREDICTED BY IDOCK:   65.70 KCAL/MOL
REMARK 922        TOTAL FREE ENERGY PREDICTED BY IDOCK:  101.34 KCAL/MOL
REMARK 923 INTER-LIGAND FREE ENERGY PREDICTED BY IDOCK:   12.46 KCAL/MOL
REMARK 924 INTRA-LIGAND FREE ENERGY PREDICTED BY IDOCK:   88.89 KCAL/MOL
REMARK 927      BINDING AFFINITY PREDICTED BY RF-SCORE:    0.00 PKD
ROOT
HETATM    1  C   UNL     1      -8.355  13.249  67.968  1.00  0.00    -0.162 C  
HETATM    2  C   UNL     1      -8.145  14.068  66.690  1.00  0.00     0.465 C  
HETATM    3  C   UNL     1      -9.358  14.100  65.710  1.00  0.00     0.093 C  
HETATM    4  C   UNL     1      -6.536   9.143  67.019  1.00  0.00    -0.064 C  
HETATM    5  C   UNL     1     -10.369  15.003  66.415  1.00  0.00    -0.287 C  
HETATM    6  C   UNL     1      -7.461  12.005  67.889  1.00  0.00    -0.114 C  
HETATM    7  C   UNL     1     -10.790  14.219  67.709  1.00  0.00    -0.259 C  
HETATM    8  C   UNL     1      -6.869  10.374  66.156  1.00  0.00    -0.125 C  
HETATM    9  C   UNL     1      -7.815   8.466  67.367  1.00  0.00    -0.099 A  
HETATM   10  C   UNL     1      -9.851  12.975  68.202  1.00  0.00    -0.228 C  
HETATM   11  C   UNL     1     -10.059   5.685  67.853  1.00  0.00    -0.207 A  
HETATM   12  C   UNL     1      -9.020   9.150  67.364  1.00  0.00    -0.117 A  
HETATM   13  N   UNL     1     -10.006   8.211  67.545  1.00  0.00    -0.176 NA 
HETATM   14  C   UNL     1     -10.165  11.442  67.922  1.00  0.00    -0.201 C  
HETATM   15  C   UNL     1      -9.225   4.561  67.959  1.00  0.00    -0.132 A  
HETATM   16  N   UNL     1      -7.900  11.249  66.738  1.00  0.00    -0.151 NA 
HETATM   17  C   UNL     1      -7.852   4.707  67.891  1.00  0.00    -0.082 A  
HETATM   18  C   UNL     1      -9.208  10.611  66.969  1.00  0.00    -0.151 C  
HETATM   19  C   UNL     1      -7.239   5.956  67.704  1.00  0.00    -0.076 A  
HETATM   20  C   UNL     1      -8.065   7.099  67.613  1.00  0.00    -0.114 A  
HETATM   21  H   UNL     1     -11.005   8.414  67.571  1.00  0.00     0.000 HD 
HETATM   22  C   UNL     1      -9.450   6.946  67.689  1.00  0.00    -0.123 A  
ENDROOT
BRANCH   3  23
HETATM   23  O   UNL     1     -10.052  12.831  65.428  1.00  0.00    -0.286 OA 
BRANCH  23  24
HETATM   24  C   UNL     1     -11.303  12.765  65.956  1.00  0.00    -0.321 C  
HETATM   25  O   UNL     1     -12.301  13.033  65.298  1.00  0.00    -0.438 OA 
BRANCH  24  26
HETATM   26  C   UNL     1     -11.493  12.324  67.391  1.00  0.00    -0.422 A  
HETATM   27  C   UNL     1     -11.513  11.053  67.959  1.00  0.00    -0.365 A  
HETATM   28  C   UNL     1     -12.313  13.200  69.524  1.00  0.00    -0.033 A  
HETATM   29  C   UNL     1     -11.991  10.823  69.275  1.00  0.00    -0.263 A  
HETATM   30  C   UNL     1     -11.755  13.382  68.256  1.00  0.00    -0.391 A  
HETATM   31  C   UNL     1     -12.473  11.904  70.046  1.00  0.00    -0.021 A  
BRANCH  28  32
HETATM   32  O   UNL     1     -12.704  14.304  70.242  1.00  0.00    -0.345 OA 
HETATM   33  C   UNL     1     -12.326  14.287  71.624  1.00  0.00    -0.313 C  
ENDBRANCH  28  32
BRANCH  31  34
HETATM   34  O   UNL     1     -13.078  11.597  71.235  1.00  0.00    -0.318 OA 
HETATM   35  C   UNL     1     -14.309  10.886  71.229  1.00  0.00     2.518 C  
ENDBRANCH  31  34
BRANCH  29  36
HETATM   36  O   UNL     1     -11.954   9.483  69.607  1.00  0.00     0.216 OA 
HETATM   37  C   UNL     1     -13.117   8.685  69.396  1.00  0.00     4.668 C  
ENDBRANCH  29  36
ENDBRANCH  24  26
ENDBRANCH  23  24
ENDBRANCH   3  23
BRANCH   5  38
HETATM   38  O   UNL     1      -9.727  16.258  66.730  1.00  0.00    -0.226 OA 
HETATM   39  C   UNL     1      -9.949  16.791  68.026  1.00  0.00    -0.272 C  
ENDBRANCH   5  38
BRANCH   7  40
HETATM   40  C   UNL     1     -12.264  13.868  67.629  1.00  0.00    -0.197 C  
HETATM   41  O   UNL     1     -13.188  14.668  67.557  1.00  0.00     1.844 OA 
BRANCH  40  42
HETATM   42  O   UNL     1     -12.415  12.522  67.707  1.00  0.00    -0.085 OA 
HETATM   43  C   UNL     1     -13.752  12.034  67.613  1.00  0.00    10.123 C  
ENDBRANCH  40  42
ENDBRANCH   7  40
BRANCH  15  44
HETATM   44  O   UNL     1      -9.638   3.266  68.134  1.00  0.00    -0.177 OA 
HETATM   45  C   UNL     1      -8.818   2.245  67.584  1.00  0.00    -0.135 C  
ENDBRANCH  15  44
TORSDOF 10
ENDMDL
MODEL      203
REMARK 921   NORMALIZED FREE ENERGY PREDICTED BY IDOCK:   67.34 KCAL/MOL
REMARK 922        TOTAL FREE ENERGY PREDICTED BY IDOCK:  103.95 KCAL/MOL
REMARK 923 INTER-LIGAND FREE ENERGY PREDICTED BY IDOCK:  103.30 KCAL/MOL
REMARK 924 INTRA-LIGAND FREE ENERGY PREDICTED BY IDOCK:    0.65 KCAL/MOL
REMARK 927      BINDING AFFINITY PREDICTED BY RF-SCORE:    0.00 PKD
ROOT
HETATM    1  C   UNL     1      -5.425   8.116  72.367  1.00  0.00    -0.038 C  
HETATM    2  C   UNL     1      -6.561   7.699  73.307  1.00  0.00    -0.072 C  
HETATM    3  C   UNL     1      -7.722   6.898  72.641  1.00  0.00    -0.094 C  
HETATM    4  C   UNL     1      -6.469  12.412  71.133  1.00  0.00     1.977 C  
HETATM    5  C   UNL     1      -7.107   5.524  72.376  1.00  0.00    -0.084 C  
HETATM    6  C   UNL     1      -5.480   9.640  72.201  1.00  0.00    -0.005 C  
HETATM    7  C   UNL     1      -5.987   5.773  71.303  1.00  0.00    -0.029 C  
HETATM    8  C   UNL     1      -7.246  11.310  71.876  1.00  0.00     6.694 C  
HETATM    9  C   UNL     1      -6.409  12.042  69.692  1.00  0.00    -0.120 A  
HETATM   10  C   UNL     1      -5.473   7.306  71.059  1.00  0.00    -0.027 C  
HETATM   11  C   UNL     1      -6.588  12.576  66.131  1.00  0.00     2.268 A  
HETATM   12  C   UNL     1      -6.544  10.727  69.277  1.00  0.00    -0.074 A  
HETATM   13  N   UNL     1      -6.626  10.753  67.906  1.00  0.00    -0.063 NA 
HETATM   14  C   UNL     1      -5.955   8.241  69.868  1.00  0.00    -0.025 C  
HETATM   15  C   UNL     1      -6.459  13.964  65.966  1.00  0.00     6.203 A  
HETATM   16  N   UNL     1      -6.758   9.948  71.602  1.00  0.00    -0.084 NA 
HETATM   17  C   UNL     1      -6.282  14.780  67.068  1.00  0.00     0.947 A  
HETATM   18  C   UNL     1      -6.815   9.534  70.189  1.00  0.00    -0.085 C  
HETATM   19  C   UNL     1      -6.237  14.274  68.376  1.00  0.00    -0.103 A  
HETATM   20  C   UNL     1      -6.348  12.877  68.557  1.00  0.00    -0.079 A  
HETATM   21  H   UNL     1      -6.747   9.931  67.315  1.00  0.00     0.000 HD 
HETATM   22  C   UNL     1      -6.520  12.057  67.440  1.00  0.00    -0.137 A  
ENDROOT
BRANCH   3  23
HETATM   23  O   UNL     1      -8.241   7.382  71.350  1.00  0.00    -0.103 OA 
BRANCH  23  24
HETATM   24  C   UNL     1      -9.591   7.545  71.333  1.00  0.00    -0.155 C  
HETATM   25  O   UNL     1     -10.141   8.477  71.909  1.00  0.00    -0.240 OA 
BRANCH  24  26
HETATM   26  C   UNL     1     -10.458   6.573  70.562  1.00  0.00    -0.251 A  
HETATM   27  C   UNL     1     -10.890   5.288  70.878  1.00  0.00    -0.119 A  
HETATM   28  C   UNL     1     -11.290   6.206  68.291  1.00  0.00     0.141 A  
HETATM   29  C   UNL     1     -11.458   4.424  69.907  1.00  0.00     5.368 A  
HETATM   30  C   UNL     1     -10.815   7.043  69.302  1.00  0.00    -0.241 A  
HETATM   31  C   UNL     1     -11.591   4.860  68.570  1.00  0.00     4.666 A  
BRANCH  28  32
HETATM   32  O   UNL     1     -11.451   6.717  67.026  1.00  0.00    -0.209 OA 
HETATM   33  C   UNL     1     -10.349   6.486  66.139  1.00  0.00     0.372 C  
ENDBRANCH  28  32
BRANCH  31  34
HETATM   34  O   UNL     1     -11.981   3.928  67.648  1.00  0.00     9.480 OA 
HETATM   35  C   UNL     1     -12.536   4.357  66.411  1.00  0.00    11.414 C  
ENDBRANCH  31  34
BRANCH  29  36
HETATM   36  O   UNL     1     -11.772   3.189  70.439  1.00  0.00     7.736 OA 
HETATM   37  C   UNL     1     -13.135   2.769  70.457  1.00  0.00    20.963 C  
ENDBRANCH  29  36
ENDBRANCH  24  26
ENDBRANCH  23  24
ENDBRANCH   3  23
BRANCH   5  38
HETATM   38  O   UNL     1      -6.564   5.014  73.613  1.00  0.00    -0.060 OA 
HETATM   39  C   UNL     1      -5.344   4.294  73.536  1.00  0.00    -0.007 C  
ENDBRANCH   5  38
BRANCH   7  40
HETATM   40  C   UNL     1      -6.347   5.047  70.021  1.00  0.00    -0.026 C  
HETATM   41  O   UNL     1      -7.331   4.337  69.851  1.00  0.00    -0.048 OA 
BRANCH  40  42
HETATM   42  O   UNL     1      -5.378   5.255  69.094  1.00  0.00    -0.003 OA 
HETATM   43  C   UNL     1      -5.684   6.198  68.067  1.00  0.00    -0.009 C  
ENDBRANCH  40  42
ENDBRANCH   7  40
BRANCH  15  44
HETATM   44  O   UNL     1      -6.488  14.639  64.773  1.00  0.00    14.754 OA 
HETATM   45  C   UNL     1      -7.608  15.479  64.531  1.00  0.00    12.910 C  
ENDBRANCH  15  44
TORSDOF 10
ENDMDL
MODEL      204
REMARK 921   NORMALIZED FREE ENERGY PREDICTED BY IDOCK:   69.16 KCAL/MOL
REMARK 922        TOTAL FREE ENERGY PREDICTED BY IDOCK:  106.84 KCAL/MOL
REMARK 923 INTER-LIGAND FREE ENERGY PREDICTED BY IDOCK:    2.70 KCAL/MOL
REMARK 924 INTRA-LIGAND FREE ENERGY PREDICTED BY IDOCK:  104.13 KCAL/MOL
REMARK 927      BINDING AFFINITY PREDICTED BY RF-SCORE:    0.00 PKD
ROOT
HETATM    1  C   UNL     1     -11.558   7.194  69.209  1.00  0.00     0.237 C  
HETATM    2  C   UNL     1     -10.992   5.854  68.729  1.00  0.00    -0.311 C  
HETATM    3  C   UNL     1      -9.533   5.543  69.184  1.00  0.00    -0.129 C  
HETATM    4  C   UNL     1     -10.820  10.075  65.713  1.00  0.00     0.408 C  
HETATM    5  C   UNL     1      -9.677   5.228  70.672  1.00  0.00    -0.186 C  
HETATM    6  C   UNL     1     -11.700   8.116  67.990  1.00  0.00     2.203 C  
HETATM    7  C   UNL     1     -10.135   6.576  71.336  1.00  0.00    -0.213 C  
HETATM    8  C   UNL     1     -10.337   8.647  66.022  1.00  0.00     0.522 C  
HETATM    9  C   UNL     1     -10.084  11.013  66.605  1.00  0.00    -0.262 A  
HETATM   10  C   UNL     1     -10.721   7.758  70.370  1.00  0.00    -0.238 C  
HETATM   11  C   UNL     1      -8.246  13.990  67.480  1.00  0.00    -0.195 A  
HETATM   12  C   UNL     1      -9.529  10.587  67.801  1.00  0.00    -0.149 A  
HETATM   13  N   UNL     1      -8.779  11.633  68.281  1.00  0.00    -0.159 NA 
HETATM   14  C   UNL     1      -9.882   9.010  69.866  1.00  0.00    -0.194 C  
HETATM   15  C   UNL     1      -8.520  14.901  66.448  1.00  0.00     0.134 A  
HETATM   16  N   UNL     1     -10.371   8.302  67.453  1.00  0.00    -0.257 NA 
HETATM   17  C   UNL     1      -9.366  14.544  65.414  1.00  0.00     0.398 A  
HETATM   18  C   UNL     1      -9.543   9.155  68.324  1.00  0.00    -0.148 C  
HETATM   19  C   UNL     1      -9.969  13.278  65.340  1.00  0.00    -0.205 A  
HETATM   20  C   UNL     1      -9.717  12.357  66.382  1.00  0.00    -0.246 A  
HETATM   21  H   UNL     1      -8.235  11.611  69.143  1.00  0.00     0.000 HD 
HETATM   22  C   UNL     1      -8.867  12.724  67.426  1.00  0.00    -0.190 A  
ENDROOT
BRANCH   3  23
HETATM   23  O   UNL     1      -8.533   6.619  69.077  1.00  0.00    -0.128 OA 
BRANCH  23  24
HETATM   24  C   UNL     1      -8.431   7.382  70.197  1.00  0.00    -0.137 C  
HETATM   25  O   UNL     1      -7.366   7.871  70.557  1.00  0.00    -0.065 OA 
BRANCH  24  26
HETATM   26  C   UNL     1      -9.663   7.674  71.025  1.00  0.00    -0.169 A  
HETATM   27  C   UNL     1     -10.340   6.894  71.959  1.00  0.00    -0.220 A  
HETATM   28  C   UNL     1     -11.542   9.241  71.095  1.00  0.00    -0.327 A  
HETATM   29  C   UNL     1     -11.640   7.228  72.420  1.00  0.00    -0.268 A  
HETATM   30  C   UNL     1     -10.232   8.911  70.739  1.00  0.00    -0.282 A  
HETATM   31  C   UNL     1     -12.287   8.381  71.923  1.00  0.00    -0.347 A  
BRANCH  28  32
HETATM   32  O   UNL     1     -12.085  10.410  70.621  1.00  0.00    -0.293 OA 
HETATM   33  C   UNL     1     -11.410  11.602  71.044  1.00  0.00     1.531 C  
ENDBRANCH  28  32
BRANCH  31  34
HETATM   34  O   UNL     1     -13.598   8.555  72.270  1.00  0.00    -0.352 OA 
HETATM   35  C   UNL     1     -13.917   9.238  73.476  1.00  0.00     2.014 C  
ENDBRANCH  31  34
BRANCH  29  36
HETATM   36  O   UNL     1     -12.126   6.289  73.308  1.00  0.00     0.669 OA 
HETATM   37  C   UNL     1     -11.539   4.990  73.333  1.00  0.00    -0.065 C  
ENDBRANCH  29  36
ENDBRANCH  24  26
ENDBRANCH  23  24
ENDBRANCH   3  23
BRANCH   5  38
HETATM   38  O   UNL     1     -10.665   4.187  70.831  1.00  0.00     0.462 OA 
HETATM   39  C   UNL     1     -10.839   3.653  72.134  1.00  0.00     0.450 C  
ENDBRANCH   5  38
BRANCH   7  40
HETATM   40  C   UNL     1      -9.059   7.058  72.293  1.00  0.00    -0.133 C  
HETATM   41  O   UNL     1      -7.874   6.750  72.252  1.00  0.00    -0.094 OA 
BRANCH  40  42
HETATM   42  O   UNL     1      -9.618   7.845  73.246  1.00  0.00    -0.267 OA 
HETATM   43  C   UNL     1      -8.721   8.401  74.206  1.00  0.00     0.361 C  
ENDBRANCH  40  42
ENDBRANCH   7  40
BRANCH  15  44
HETATM   44  O   UNL     1      -8.019  16.172  66.342  1.00  0.00    -0.278 OA 
HETATM   45  C   UNL     1      -8.060  16.983  67.507  1.00  0.00    -0.175 C  
ENDBRANCH  15  44
TORSDOF 10
ENDMDL
MODEL      205
REMARK 921   NORMALIZED FREE ENERGY PREDICTED BY IDOCK:   79.16 KCAL/MOL
REMARK 922        TOTAL FREE ENERGY PREDICTED BY IDOCK:  122.69 KCAL/MOL
REMARK 923 INTER-LIGAND FREE ENERGY PREDICTED BY IDOCK:   70.01 KCAL/MOL
REMARK 924 INTRA-LIGAND FREE ENERGY PREDICTED BY IDOCK:   52.68 KCAL/MOL
REMARK 927      BINDING AFFINITY PREDICTED BY RF-SCORE:    0.00 PKD
ROOT
HETATM    1  C   UNL     1     -11.704  11.743  64.766  1.00  0.00    -0.212 C  
HETATM    2  C   UNL     1     -11.072  10.485  64.162  1.00  0.00     1.162 C  
HETATM    3  C   UNL     1     -10.383   9.527  65.182  1.00  0.00     0.850 C  
HETATM    4  C   UNL     1      -8.500  14.993  64.274  1.00  0.00    10.079 C  
HETATM    5  C   UNL     1     -11.555   8.881  65.920  1.00  0.00     5.658 C  
HETATM    6  C   UNL     1     -10.876  12.955  64.318  1.00  0.00    -0.397 C  
HETATM    7  C   UNL     1     -12.239  10.052  66.712  1.00  0.00     5.314 C  
HETATM    8  C   UNL     1      -8.487  13.464  64.094  1.00  0.00     6.825 C  
HETATM    9  C   UNL     1      -8.532  15.284  65.734  1.00  0.00     1.165 A  
HETATM   10  C   UNL     1     -11.882  11.590  66.286  1.00  0.00     0.357 C  
HETATM   11  C   UNL     1      -7.612  16.955  68.794  1.00  0.00    -0.243 A  
HETATM   12  C   UNL     1      -9.013  14.358  66.646  1.00  0.00    -0.205 A  
HETATM   13  N   UNL     1      -8.736  14.856  67.896  1.00  0.00    -0.160 NA 
HETATM   14  C   UNL     1     -10.836  12.516  67.044  1.00  0.00    -0.287 C  
HETATM   15  C   UNL     1      -7.008  18.155  68.384  1.00  0.00    -0.241 A  
HETATM   16  N   UNL     1      -9.544  12.766  64.846  1.00  0.00     0.111 NA 
HETATM   17  C   UNL     1      -6.910  18.457  67.039  1.00  0.00    -0.207 A  
HETATM   18  C   UNL     1      -9.502  12.954  66.307  1.00  0.00    -0.200 C  
HETATM   19  C   UNL     1      -7.384  17.593  66.039  1.00  0.00    -0.301 A  
HETATM   20  C   UNL     1      -8.010  16.390  66.437  1.00  0.00    -0.329 A  
HETATM   21  H   UNL     1      -8.958  14.385  68.772  1.00  0.00     0.000 HD 
HETATM   22  C   UNL     1      -8.112  16.093  67.797  1.00  0.00    -0.146 A  
ENDROOT
BRANCH   3  23
HETATM   23  O   UNL     1      -9.515  10.124  66.212  1.00  0.00    -0.165 OA 
BRANCH  23  24
HETATM   24  C   UNL     1      -9.801   9.707  67.474  1.00  0.00    -0.169 C  
HETATM   25  O   UNL     1      -9.578   8.561  67.846  1.00  0.00    -0.147 OA 
BRANCH  24  26
HETATM   26  C   UNL     1     -10.386  10.679  68.475  1.00  0.00    -0.202 A  
HETATM   27  C   UNL     1     -10.212  12.053  68.620  1.00  0.00    -0.189 A  
HETATM   28  C   UNL     1     -11.514  10.675  70.646  1.00  0.00    -0.281 A  
HETATM   29  C   UNL     1     -10.616  12.744  69.792  1.00  0.00     0.834 A  
HETATM   30  C   UNL     1     -11.174  10.060  69.439  1.00  0.00    -0.235 A  
HETATM   31  C   UNL     1     -11.208  12.031  70.859  1.00  0.00     1.973 A  
BRANCH  28  32
HETATM   32  O   UNL     1     -12.143   9.932  71.616  1.00  0.00    -0.389 OA 
HETATM   33  C   UNL     1     -11.288   9.033  72.333  1.00  0.00     0.035 C  
ENDBRANCH  28  32
BRANCH  31  34
HETATM   34  O   UNL     1     -11.416  12.718  72.024  1.00  0.00     2.966 OA 
HETATM   35  C   UNL     1     -12.163  13.927  71.999  1.00  0.00     0.135 C  
ENDBRANCH  31  34
BRANCH  29  36
HETATM   36  O   UNL     1     -10.307  14.088  69.728  1.00  0.00     0.230 OA 
HETATM   37  C   UNL     1     -11.106  14.945  68.916  1.00  0.00    -0.257 C  
ENDBRANCH  29  36
ENDBRANCH  24  26
ENDBRANCH  23  24
ENDBRANCH   3  23
BRANCH   5  38
HETATM   38  O   UNL     1     -12.447   8.296  64.947  1.00  0.00    15.598 OA 
HETATM   39  C   UNL     1     -13.174   7.144  65.346  1.00  0.00    15.300 C  
ENDBRANCH   5  38
BRANCH   7  40
HETATM   40  C   UNL     1     -12.111   9.794  68.202  1.00  0.00     2.491 C  
HETATM   41  O   UNL     1     -11.069   9.563  68.803  1.00  0.00    -0.132 OA 
BRANCH  40  42
HETATM   42  O   UNL     1     -13.343   9.801  68.771  1.00  0.00     3.798 OA 
HETATM   43  C   UNL     1     -13.375   9.838  70.197  1.00  0.00     0.730 C  
ENDBRANCH  40  42
ENDBRANCH   7  40
BRANCH  15  44
HETATM   44  O   UNL     1      -6.480  19.113  69.209  1.00  0.00    -0.278 OA 
HETATM   45  C   UNL     1      -6.616  20.466  68.801  1.00  0.00    -0.232 C  
ENDBRANCH  15  44
TORSDOF 10
ENDMDL
MODEL      206
REMARK 921   NORMALIZED FREE ENERGY PREDICTED BY IDOCK:   81.19 KCAL/MOL
REMARK 922        TOTAL FREE ENERGY PREDICTED BY IDOCK:  125.90 KCAL/MOL
REMARK 923 INTER-LIGAND FREE ENERGY PREDICTED BY IDOCK:   30.82 KCAL/MOL
REMARK 924 INTRA-LIGAND FREE ENERGY PREDICTED BY IDOCK:   95.07 KCAL/MOL
REMARK 927      BINDING AFFINITY PREDICTED BY RF-SCORE:    0.00 PKD
ROOT
HETATM    1  C   UNL     1      -5.942   9.332  69.106  1.00  0.00    -0.042 C  
HETATM    2  C   UNL     1      -6.209   8.842  70.533  1.00  0.00    -0.042 C  
HETATM    3  C   UNL     1      -7.472   7.943  70.706  1.00  0.00    -0.072 C  
HETATM    4  C   UNL     1      -7.823  13.516  68.953  1.00  0.00     0.059 C  
HETATM    5  C   UNL     1      -7.064   6.618  70.065  1.00  0.00    -0.071 C  
HETATM    6  C   UNL     1      -6.194  10.845  69.067  1.00  0.00    -0.043 C  
HETATM    7  C   UNL     1      -6.879   6.938  68.538  1.00  0.00    -0.070 C  
HETATM    8  C   UNL     1      -7.887  12.368  69.977  1.00  0.00     2.374 C  
HETATM    9  C   UNL     1      -8.651  13.130  67.777  1.00  0.00    -0.188 A  
HETATM   10  C   UNL     1      -6.738   8.502  68.085  1.00  0.00    -0.065 C  
HETATM   11  C   UNL     1     -11.051  13.597  65.126  1.00  0.00    -0.324 A  
HETATM   12  C   UNL     1      -8.923  11.803  67.488  1.00  0.00    -0.168 A  
HETATM   13  N   UNL     1      -9.844  11.803  66.469  1.00  0.00    -0.202 NA 
HETATM   14  C   UNL     1      -7.923   9.379  67.490  1.00  0.00    -0.102 C  
HETATM   15  C   UNL     1     -11.150  14.988  64.968  1.00  0.00    -0.413 A  
HETATM   16  N   UNL     1      -7.584  11.044  69.408  1.00  0.00    -0.101 NA 
HETATM   17  C   UNL     1     -10.381  15.831  65.749  1.00  0.00    -0.390 A  
HETATM   18  C   UNL     1      -8.482  10.606  68.324  1.00  0.00    -0.127 C  
HETATM   19  C   UNL     1      -9.494  15.350  66.724  1.00  0.00    -0.260 A  
HETATM   20  C   UNL     1      -9.370  13.951  66.882  1.00  0.00    -0.265 A  
HETATM   21  H   UNL     1     -10.250  10.966  66.052  1.00  0.00     0.000 HD 
HETATM   22  C   UNL     1     -10.144  13.104  66.087  1.00  0.00    -0.291 A  
ENDROOT
BRANCH   3  23
HETATM   23  O   UNL     1      -8.716   8.367  70.040  1.00  0.00    -0.129 OA 
BRANCH  23  24
HETATM   24  C   UNL     1      -8.527   9.318  69.087  1.00  0.00    -0.133 C  
HETATM   25  O   UNL     1      -7.757   9.153  68.148  1.00  0.00    -0.091 OA 
BRANCH  24  26
HETATM   26  C   UNL     1      -9.302  10.616  69.153  1.00  0.00    -0.174 A  
HETATM   27  C   UNL     1      -9.043  11.798  69.840  1.00  0.00     2.259 A  
HETATM   28  C   UNL     1     -11.534  11.488  68.660  1.00  0.00    -0.293 A  
HETATM   29  C   UNL     1     -10.030  12.804  70.009  1.00  0.00     2.593 A  
HETATM   30  C   UNL     1     -10.503  10.569  68.452  1.00  0.00    -0.212 A  
HETATM   31  C   UNL     1     -11.324  12.614  69.476  1.00  0.00    -0.158 A  
BRANCH  28  32
HETATM   32  O   UNL     1     -12.750  11.268  68.059  1.00  0.00     0.708 OA 
HETATM   33  C   UNL     1     -13.873  11.830  68.751  1.00  0.00     8.068 C  
ENDBRANCH  28  32
BRANCH  31  34
HETATM   34  O   UNL     1     -12.277  13.534  69.818  1.00  0.00    -0.313 OA 
HETATM   35  C   UNL     1     -13.220  13.960  68.842  1.00  0.00     2.654 C  
ENDBRANCH  31  34
BRANCH  29  36
HETATM   36  O   UNL     1      -9.559  13.864  70.758  1.00  0.00     3.307 OA 
HETATM   37  C   UNL     1      -8.667  13.607  71.840  1.00  0.00    12.087 C  
ENDBRANCH  29  36
ENDBRANCH  24  26
ENDBRANCH  23  24
ENDBRANCH   3  23
BRANCH   5  38
HETATM   38  O   UNL     1      -5.833   6.170  70.674  1.00  0.00    -0.017 OA 
HETATM   39  C   UNL     1      -5.515   6.697  71.953  1.00  0.00    -0.032 C  
ENDBRANCH   5  38
BRANCH   7  40
HETATM   40  C   UNL     1      -7.909   6.167  67.734  1.00  0.00    -0.105 C  
HETATM   41  O   UNL     1      -8.611   6.626  66.841  1.00  0.00    -0.112 OA 
BRANCH  40  42
HETATM   42  O   UNL     1      -7.980   4.892  68.191  1.00  0.00    -0.086 OA 
HETATM   43  C   UNL     1      -8.377   4.734  69.552  1.00  0.00    -0.082 C  
ENDBRANCH  40  42
ENDBRANCH   7  40
BRANCH  15  44
HETATM   44  O   UNL     1     -11.964  15.641  64.080  1.00  0.00    -0.530 OA 
HETATM   45  C   UNL     1     -12.560  14.862  63.054  1.00  0.00     2.418 C  
ENDBRANCH  15  44
TORSDOF 10
ENDMDL
MODEL      207
REMARK 921   NORMALIZED FREE ENERGY PREDICTED BY IDOCK:   84.90 KCAL/MOL
REMARK 922        TOTAL FREE ENERGY PREDICTED BY IDOCK:  131.77 KCAL/MOL
REMARK 923 INTER-LIGAND FREE ENERGY PREDICTED BY IDOCK:   95.72 KCAL/MOL
REMARK 924 INTRA-LIGAND FREE ENERGY PREDICTED BY IDOCK:   36.05 KCAL/MOL
REMARK 927      BINDING AFFINITY PREDICTED BY RF-SCORE:    0.00 PKD
ROOT
HETATM    1  C   UNL     1      -6.108  11.145  66.361  1.00  0.00    -0.137 C  
HETATM    2  C   UNL     1      -6.339  10.271  67.598  1.00  0.00    -0.058 C  
HETATM    3  C   UNL     1      -7.729   9.564  67.667  1.00  0.00    -0.095 C  
HETATM    4  C   UNL     1      -7.185  15.391  67.730  1.00  0.00    -0.182 C  
HETATM    5  C   UNL     1      -7.629   8.467  66.608  1.00  0.00    -0.082 C  
HETATM    6  C   UNL     1      -6.077  12.611  66.812  1.00  0.00     0.733 C  
HETATM    7  C   UNL     1      -7.518   9.226  65.237  1.00  0.00    -0.098 C  
HETATM    8  C   UNL     1      -7.375  14.000  68.361  1.00  0.00    -0.113 C  
HETATM    9  C   UNL     1      -8.166  15.530  66.618  1.00  0.00    -0.244 A  
HETATM   10  C   UNL     1      -7.128  10.813  65.258  1.00  0.00     0.120 C  
HETATM   11  C   UNL     1     -10.652  17.172  64.587  1.00  0.00     1.054 A  
HETATM   12  C   UNL     1      -8.703  14.421  65.985  1.00  0.00     0.629 A  
HETATM   13  N   UNL     1      -9.691  14.884  65.151  1.00  0.00    -0.401 NA 
HETATM   14  C   UNL     1      -8.174  12.001  65.123  1.00  0.00     1.556 C  
HETATM   15  C   UNL     1     -10.505  18.539  64.869  1.00  0.00     1.963 A  
HETATM   16  N   UNL     1      -7.372  12.897  67.385  1.00  0.00    -0.149 NA 
HETATM   17  C   UNL     1      -9.529  18.964  65.752  1.00  0.00     0.307 A  
HETATM   18  C   UNL     1      -8.423  12.968  66.355  1.00  0.00     0.387 C  
HETATM   19  C   UNL     1      -8.668  18.069  66.406  1.00  0.00    -0.249 A  
HETATM   20  C   UNL     1      -8.793  16.691  66.119  1.00  0.00    -0.323 A  
HETATM   21  H   UNL     1     -10.279  14.294  64.562  1.00  0.00     0.000 HD 
HETATM   22  C   UNL     1      -9.775  16.268  65.222  1.00  0.00     0.338 A  
ENDROOT
BRANCH   3  23
HETATM   23  O   UNL     1      -8.924  10.360  67.337  1.00  0.00    -0.135 OA 
BRANCH  23  24
HETATM   24  C   UNL     1      -8.919  11.604  67.885  1.00  0.00    -0.170 C  
HETATM   25  O   UNL     1      -8.790  12.614  67.203  1.00  0.00    -0.190 OA 
BRANCH  24  26
HETATM   26  C   UNL     1      -9.104  11.772  69.378  1.00  0.00     0.826 A  
HETATM   27  C   UNL     1      -8.359  12.482  70.314  1.00  0.00     4.469 A  
HETATM   28  C   UNL     1     -10.309  10.739  71.240  1.00  0.00     3.139 A  
HETATM   29  C   UNL     1      -8.521  12.287  71.711  1.00  0.00    16.847 A  
HETATM   30  C   UNL     1     -10.167  11.029  69.881  1.00  0.00     0.354 A  
HETATM   31  C   UNL     1      -9.459  11.342  72.184  1.00  0.00    15.443 A  
BRANCH  28  32
HETATM   32  O   UNL     1     -11.284   9.853  71.632  1.00  0.00    -0.257 OA 
HETATM   33  C   UNL     1     -12.618  10.376  71.600  1.00  0.00    -0.417 C  
ENDBRANCH  28  32
BRANCH  31  34
HETATM   34  O   UNL     1      -9.447  11.075  73.526  1.00  0.00    14.597 OA 
HETATM   35  C   UNL     1     -10.665  11.118  74.257  1.00  0.00    22.914 C  
ENDBRANCH  31  34
BRANCH  29  36
HETATM   36  O   UNL     1      -7.648  13.067  72.443  1.00  0.00     8.408 OA 
HETATM   37  C   UNL     1      -6.753  13.938  71.754  1.00  0.00     2.178 C  
ENDBRANCH  29  36
ENDBRANCH  24  26
ENDBRANCH  23  24
ENDBRANCH   3  23
BRANCH   5  38
HETATM   38  O   UNL     1      -6.457   7.669  66.879  1.00  0.00    -0.051 OA 
HETATM   39  C   UNL     1      -5.234   8.100  66.303  1.00  0.00    -0.025 C  
ENDBRANCH   5  38
BRANCH   7  40
HETATM   40  C   UNL     1      -8.737   8.915  64.389  1.00  0.00    -0.066 C  
HETATM   41  O   UNL     1      -8.801   8.065  63.509  1.00  0.00     0.357 OA 
BRANCH  40  42
HETATM   42  O   UNL     1      -9.744   9.765  64.713  1.00  0.00    -0.283 OA 
HETATM   43  C   UNL     1      -9.352  11.073  65.130  1.00  0.00    -0.220 C  
ENDBRANCH  40  42
ENDBRANCH   7  40
BRANCH  15  44
HETATM   44  O   UNL     1     -11.255  19.556  64.338  1.00  0.00     0.825 OA 
HETATM   45  C   UNL     1     -10.816  20.883  64.587  1.00  0.00     2.222 C  
ENDBRANCH  15  44
TORSDOF 10
ENDMDL
