MODEL        1
REMARK 921   NORMALIZED FREE ENERGY PREDICTED BY IDOCK:   -4.82 KCAL/MOL
REMARK 922        TOTAL FREE ENERGY PREDICTED BY IDOCK:   -5.57 KCAL/MOL
REMARK 923 INTER-LIGAND FREE ENERGY PREDICTED BY IDOCK:   -5.38 KCAL/MOL
REMARK 924 INTRA-LIGAND FREE ENERGY PREDICTED BY IDOCK:   -0.19 KCAL/MOL
REMARK 927      BINDING AFFINITY PREDICTED BY RF-SCORE:    0.00 PKD
ROOT
HETATM    1  C   UNL     1      -9.787  16.646  65.925  1.00  0.00    -0.301 C  
HETATM    2  C   UNL     1     -10.950  16.180  65.102  1.00  0.00    -0.316 C  
HETATM    3  O   UNL     1     -11.337  16.746  64.089  1.00  0.00    -1.194 OA 
ENDROOT
BRANCH   2   4
HETATM    4  O   UNL     1     -11.516  15.057  65.708  1.00  0.00    -0.327 OA 
BRANCH   4   5
HETATM    5  C   UNL     1     -11.311  13.770  65.169  1.00  0.00    -0.311 A  
HETATM    6  C   UNL     1     -12.096  13.240  64.144  1.00  0.00    -0.494 A  
HETATM    7  C   UNL     1     -11.824  11.956  63.684  1.00  0.00    -0.473 A  
HETATM    8  C   UNL     1     -10.762  11.219  64.198  1.00  0.00    -0.436 A  
HETATM    9  O   UNL     1     -12.596  11.379  62.719  1.00  0.00    -0.952 OA 
HETATM   10  H   UNL     1     -12.409  10.502  62.406  1.00  0.00     0.000 HD 
HETATM   11  C   UNL     1      -9.955  11.772  65.195  1.00  0.00    -0.285 A  
HETATM   12  C   UNL     1     -10.230  13.051  65.683  1.00  0.00    -0.296 A  
ENDBRANCH   4   5
ENDBRANCH   2   4
TORSDOF 2
ENDMDL
MODEL        2
REMARK 921   NORMALIZED FREE ENERGY PREDICTED BY IDOCK:   -4.75 KCAL/MOL
REMARK 922        TOTAL FREE ENERGY PREDICTED BY IDOCK:   -5.49 KCAL/MOL
REMARK 923 INTER-LIGAND FREE ENERGY PREDICTED BY IDOCK:   -5.30 KCAL/MOL
REMARK 924 INTRA-LIGAND FREE ENERGY PREDICTED BY IDOCK:   -0.18 KCAL/MOL
REMARK 927      BINDING AFFINITY PREDICTED BY RF-SCORE:    0.00 PKD
ROOT
HETATM    1  C   UNL     1     -10.801  12.271  63.514  1.00  0.00    -0.508 C  
HETATM    2  C   UNL     1     -12.254  12.639  63.535  1.00  0.00    -0.547 C  
HETATM    3  O   UNL     1     -13.159  11.854  63.288  1.00  0.00    -0.674 OA 
ENDROOT
BRANCH   2   4
HETATM    4  O   UNL     1     -12.376  13.999  63.827  1.00  0.00    -0.684 OA 
BRANCH   4   5
HETATM    5  C   UNL     1     -11.936  14.510  65.066  1.00  0.00    -0.399 A  
HETATM    6  C   UNL     1     -12.376  14.013  66.293  1.00  0.00    -0.482 A  
HETATM    7  C   UNL     1     -11.892  14.589  67.463  1.00  0.00    -0.374 A  
HETATM    8  C   UNL     1     -10.953  15.614  67.424  1.00  0.00    -0.293 A  
HETATM    9  O   UNL     1     -12.332  14.170  68.684  1.00  0.00    -0.553 OA 
HETATM   10  H   UNL     1     -12.001  14.564  69.483  1.00  0.00     0.000 HD 
HETATM   11  C   UNL     1     -10.487  16.079  66.192  1.00  0.00    -0.334 A  
HETATM   12  C   UNL     1     -10.979  15.526  65.009  1.00  0.00    -0.454 A  
ENDBRANCH   4   5
ENDBRANCH   2   4
TORSDOF 2
ENDMDL
MODEL        3
REMARK 921   NORMALIZED FREE ENERGY PREDICTED BY IDOCK:   -4.71 KCAL/MOL
REMARK 922        TOTAL FREE ENERGY PREDICTED BY IDOCK:   -5.45 KCAL/MOL
REMARK 923 INTER-LIGAND FREE ENERGY PREDICTED BY IDOCK:   -5.32 KCAL/MOL
REMARK 924 INTRA-LIGAND FREE ENERGY PREDICTED BY IDOCK:   -0.13 KCAL/MOL
REMARK 927      BINDING AFFINITY PREDICTED BY RF-SCORE:    0.00 PKD
ROOT
HETATM    1  C   UNL     1     -10.745  13.081  68.527  1.00  0.00    -0.275 C  
HETATM    2  C   UNL     1     -11.762  12.022  68.832  1.00  0.00    -0.326 C  
HETATM    3  O   UNL     1     -12.279  11.310  67.982  1.00  0.00    -0.621 OA 
ENDROOT
BRANCH   2   4
HETATM    4  O   UNL     1     -12.034  12.033  70.201  1.00  0.00    -0.333 OA 
BRANCH   4   5
HETATM    5  C   UNL     1     -12.069  10.829  70.936  1.00  0.00    -0.370 A  
HETATM    6  C   UNL     1     -13.120  10.489  71.788  1.00  0.00    -0.570 A  
HETATM    7  C   UNL     1     -13.061   9.283  72.479  1.00  0.00    -0.343 A  
HETATM    8  C   UNL     1     -11.999   8.403  72.299  1.00  0.00    -0.455 A  
HETATM    9  O   UNL     1     -14.040   8.932  73.361  1.00  0.00    -1.256 OA 
HETATM   10  H   UNL     1     -13.999   8.108  73.832  1.00  0.00     0.000 HD 
HETATM   11  C   UNL     1     -10.971   8.733  71.412  1.00  0.00    -0.360 A  
HETATM   12  C   UNL     1     -11.005   9.949  70.729  1.00  0.00    -0.407 A  
ENDBRANCH   4   5
ENDBRANCH   2   4
TORSDOF 2
ENDMDL
MODEL        4
REMARK 921   NORMALIZED FREE ENERGY PREDICTED BY IDOCK:   -4.70 KCAL/MOL
REMARK 922        TOTAL FREE ENERGY PREDICTED BY IDOCK:   -5.43 KCAL/MOL
REMARK 923 INTER-LIGAND FREE ENERGY PREDICTED BY IDOCK:   -5.28 KCAL/MOL
REMARK 924 INTRA-LIGAND FREE ENERGY PREDICTED BY IDOCK:   -0.15 KCAL/MOL
REMARK 927      BINDING AFFINITY PREDICTED BY RF-SCORE:    0.00 PKD
ROOT
HETATM    1  C   UNL     1     -10.818  12.192  63.509  1.00  0.00    -0.518 C  
HETATM    2  C   UNL     1     -12.275  12.544  63.479  1.00  0.00    -0.558 C  
HETATM    3  O   UNL     1     -13.167  11.732  63.276  1.00  0.00    -0.555 OA 
ENDROOT
BRANCH   2   4
HETATM    4  O   UNL     1     -12.415  13.919  63.668  1.00  0.00    -0.768 OA 
BRANCH   4   5
HETATM    5  C   UNL     1     -11.869  14.547  64.808  1.00  0.00    -0.441 A  
HETATM    6  C   UNL     1     -10.995  15.632  64.734  1.00  0.00    -0.418 A  
HETATM    7  C   UNL     1     -10.501  16.178  65.913  1.00  0.00    -0.352 A  
HETATM    8  C   UNL     1     -10.897  15.689  67.153  1.00  0.00    -0.297 A  
HETATM    9  O   UNL     1      -9.605  17.206  65.888  1.00  0.00    -0.497 OA 
HETATM   10  H   UNL     1      -9.267  17.579  66.694  1.00  0.00     0.000 HD 
HETATM   11  C   UNL     1     -11.804  14.629  67.220  1.00  0.00    -0.375 A  
HETATM   12  C   UNL     1     -12.292  14.055  66.045  1.00  0.00    -0.504 A  
ENDBRANCH   4   5
ENDBRANCH   2   4
TORSDOF 2
ENDMDL
MODEL        5
REMARK 921   NORMALIZED FREE ENERGY PREDICTED BY IDOCK:   -4.65 KCAL/MOL
REMARK 922        TOTAL FREE ENERGY PREDICTED BY IDOCK:   -5.38 KCAL/MOL
REMARK 923 INTER-LIGAND FREE ENERGY PREDICTED BY IDOCK:   -5.19 KCAL/MOL
REMARK 924 INTRA-LIGAND FREE ENERGY PREDICTED BY IDOCK:   -0.19 KCAL/MOL
REMARK 927      BINDING AFFINITY PREDICTED BY RF-SCORE:    0.00 PKD
ROOT
HETATM    1  C   UNL     1     -10.272  17.461  66.137  1.00  0.00    -0.334 C  
HETATM    2  C   UNL     1     -11.014  16.546  65.209  1.00  0.00    -0.162 C  
HETATM    3  O   UNL     1     -11.390  16.869  64.091  1.00  0.00    -1.208 OA 
ENDROOT
BRANCH   2   4
HETATM    4  O   UNL     1     -11.230  15.325  65.851  1.00  0.00    -0.322 OA 
BRANCH   4   5
HETATM    5  C   UNL     1     -11.275  14.124  65.113  1.00  0.00    -0.337 A  
HETATM    6  C   UNL     1     -10.161  13.584  64.469  1.00  0.00    -0.296 A  
HETATM    7  C   UNL     1     -10.306  12.399  63.757  1.00  0.00    -0.425 A  
HETATM    8  C   UNL     1     -11.524  11.729  63.715  1.00  0.00    -0.510 A  
HETATM    9  O   UNL     1      -9.257  11.861  63.070  1.00  0.00    -0.644 OA 
HETATM   10  H   UNL     1      -9.357  11.051  62.584  1.00  0.00     0.000 HD 
HETATM   11  C   UNL     1     -12.625  12.255  64.396  1.00  0.00    -0.447 A  
HETATM   12  C   UNL     1     -12.501  13.455  65.097  1.00  0.00    -0.509 A  
ENDBRANCH   4   5
ENDBRANCH   2   4
TORSDOF 2
ENDMDL
MODEL        6
REMARK 921   NORMALIZED FREE ENERGY PREDICTED BY IDOCK:   -4.61 KCAL/MOL
REMARK 922        TOTAL FREE ENERGY PREDICTED BY IDOCK:   -5.34 KCAL/MOL
REMARK 923 INTER-LIGAND FREE ENERGY PREDICTED BY IDOCK:   -5.14 KCAL/MOL
REMARK 924 INTRA-LIGAND FREE ENERGY PREDICTED BY IDOCK:   -0.20 KCAL/MOL
REMARK 927      BINDING AFFINITY PREDICTED BY RF-SCORE:    0.00 PKD
ROOT
HETATM    1  C   UNL     1      -9.516  18.628  67.666  1.00  0.00    -0.316 C  
HETATM    2  C   UNL     1     -10.064  18.313  66.306  1.00  0.00    -0.380 C  
HETATM    3  O   UNL     1     -10.763  19.081  65.660  1.00  0.00    -0.504 OA 
ENDROOT
BRANCH   2   4
HETATM    4  O   UNL     1      -9.686  17.017  65.951  1.00  0.00    -0.479 OA 
BRANCH   4   5
HETATM    5  C   UNL     1     -10.651  15.998  65.817  1.00  0.00    -0.353 A  
HETATM    6  C   UNL     1     -11.177  15.603  64.587  1.00  0.00    -0.380 A  
HETATM    7  C   UNL     1     -12.133  14.595  64.557  1.00  0.00    -0.475 A  
HETATM    8  C   UNL     1     -12.536  13.951  65.722  1.00  0.00    -0.533 A  
HETATM    9  O   UNL     1     -12.711  14.211  63.382  1.00  0.00    -0.945 OA 
HETATM   10  H   UNL     1     -13.364  13.522  63.362  1.00  0.00     0.000 HD 
HETATM   11  C   UNL     1     -11.976  14.324  66.946  1.00  0.00    -0.467 A  
HETATM   12  C   UNL     1     -11.031  15.350  66.995  1.00  0.00    -0.306 A  
ENDBRANCH   4   5
ENDBRANCH   2   4
TORSDOF 2
ENDMDL
MODEL        7
REMARK 921   NORMALIZED FREE ENERGY PREDICTED BY IDOCK:   -4.61 KCAL/MOL
REMARK 922        TOTAL FREE ENERGY PREDICTED BY IDOCK:   -5.33 KCAL/MOL
REMARK 923 INTER-LIGAND FREE ENERGY PREDICTED BY IDOCK:   -5.10 KCAL/MOL
REMARK 924 INTRA-LIGAND FREE ENERGY PREDICTED BY IDOCK:   -0.24 KCAL/MOL
REMARK 927      BINDING AFFINITY PREDICTED BY RF-SCORE:    0.00 PKD
ROOT
HETATM    1  C   UNL     1     -10.654  11.603  63.295  1.00  0.00    -0.420 C  
HETATM    2  C   UNL     1     -11.919  12.109  63.921  1.00  0.00    -0.486 C  
HETATM    3  O   UNL     1     -12.991  12.173  63.334  1.00  0.00    -0.776 OA 
ENDROOT
BRANCH   2   4
HETATM    4  O   UNL     1     -11.648  12.523  65.226  1.00  0.00    -0.333 OA 
BRANCH   4   5
HETATM    5  C   UNL     1     -11.026  13.765  65.471  1.00  0.00    -0.299 A  
HETATM    6  C   UNL     1     -11.431  14.953  64.862  1.00  0.00    -0.407 A  
HETATM    7  C   UNL     1     -10.750  16.127  65.160  1.00  0.00    -0.371 A  
HETATM    8  C   UNL     1      -9.708  16.140  66.082  1.00  0.00    -0.352 A  
HETATM    9  O   UNL     1     -11.078  17.303  64.551  1.00  0.00    -1.082 OA 
HETATM   10  H   UNL     1     -10.612  18.105  64.754  1.00  0.00     0.000 HD 
HETATM   11  C   UNL     1      -9.335  14.954  66.719  1.00  0.00    -0.270 A  
HETATM   12  C   UNL     1      -9.995  13.763  66.413  1.00  0.00    -0.301 A  
ENDBRANCH   4   5
ENDBRANCH   2   4
TORSDOF 2
ENDMDL
MODEL        8
REMARK 921   NORMALIZED FREE ENERGY PREDICTED BY IDOCK:   -4.59 KCAL/MOL
REMARK 922        TOTAL FREE ENERGY PREDICTED BY IDOCK:   -5.31 KCAL/MOL
REMARK 923 INTER-LIGAND FREE ENERGY PREDICTED BY IDOCK:   -5.30 KCAL/MOL
REMARK 924 INTRA-LIGAND FREE ENERGY PREDICTED BY IDOCK:   -0.00 KCAL/MOL
REMARK 927      BINDING AFFINITY PREDICTED BY RF-SCORE:    0.00 PKD
ROOT
HETATM    1  C   UNL     1     -12.501  15.257  73.724  1.00  0.00    -0.746 C  
HETATM    2  C   UNL     1     -13.657  14.917  72.831  1.00  0.00    -0.393 C  
HETATM    3  O   UNL     1     -14.362  15.752  72.282  1.00  0.00    -0.494 OA 
ENDROOT
BRANCH   2   4
HETATM    4  O   UNL     1     -13.804  13.529  72.784  1.00  0.00    -0.730 OA 
BRANCH   4   5
HETATM    5  C   UNL     1     -13.156  12.772  71.786  1.00  0.00    -0.356 A  
HETATM    6  C   UNL     1     -13.185  11.377  71.750  1.00  0.00    -0.472 A  
HETATM    7  C   UNL     1     -12.507  10.718  70.730  1.00  0.00    -0.387 A  
HETATM    8  C   UNL     1     -11.845  11.425  69.733  1.00  0.00    -0.435 A  
HETATM    9  O   UNL     1     -12.467   9.355  70.683  1.00  0.00    -0.483 OA 
HETATM   10  H   UNL     1     -12.003   8.905  69.987  1.00  0.00     0.000 HD 
HETATM   11  C   UNL     1     -11.854  12.821  69.753  1.00  0.00    -0.380 A  
HETATM   12  C   UNL     1     -12.511  13.498  70.782  1.00  0.00    -0.428 A  
ENDBRANCH   4   5
ENDBRANCH   2   4
TORSDOF 2
ENDMDL
MODEL        9
REMARK 921   NORMALIZED FREE ENERGY PREDICTED BY IDOCK:   -4.56 KCAL/MOL
REMARK 922        TOTAL FREE ENERGY PREDICTED BY IDOCK:   -5.28 KCAL/MOL
REMARK 923 INTER-LIGAND FREE ENERGY PREDICTED BY IDOCK:   -5.15 KCAL/MOL
REMARK 924 INTRA-LIGAND FREE ENERGY PREDICTED BY IDOCK:   -0.13 KCAL/MOL
REMARK 927      BINDING AFFINITY PREDICTED BY RF-SCORE:    0.00 PKD
ROOT
HETATM    1  C   UNL     1     -11.925  12.861  69.966  1.00  0.00    -0.380 C  
HETATM    2  C   UNL     1     -11.623  13.313  68.569  1.00  0.00    -0.333 C  
HETATM    3  O   UNL     1     -11.038  14.353  68.301  1.00  0.00    -0.244 OA 
ENDROOT
BRANCH   2   4
HETATM    4  O   UNL     1     -12.155  12.390  67.667  1.00  0.00    -0.470 OA 
BRANCH   4   5
HETATM    5  C   UNL     1     -11.784  12.419  66.306  1.00  0.00    -0.395 A  
HETATM    6  C   UNL     1     -12.341  13.307  65.385  1.00  0.00    -0.528 A  
HETATM    7  C   UNL     1     -11.918  13.253  64.061  1.00  0.00    -0.465 A  
HETATM    8  C   UNL     1     -10.927  12.365  63.658  1.00  0.00    -0.525 A  
HETATM    9  O   UNL     1     -12.470  14.067  63.115  1.00  0.00    -1.137 OA 
HETATM   10  H   UNL     1     -12.181  14.030  62.211  1.00  0.00     0.000 HD 
HETATM   11  C   UNL     1     -10.345  11.507  64.595  1.00  0.00    -0.349 A  
HETATM   12  C   UNL     1     -10.774  11.533  65.923  1.00  0.00    -0.325 A  
ENDBRANCH   4   5
ENDBRANCH   2   4
TORSDOF 2
ENDMDL
MODEL       10
REMARK 921   NORMALIZED FREE ENERGY PREDICTED BY IDOCK:   -4.53 KCAL/MOL
REMARK 922        TOTAL FREE ENERGY PREDICTED BY IDOCK:   -5.24 KCAL/MOL
REMARK 923 INTER-LIGAND FREE ENERGY PREDICTED BY IDOCK:   -5.03 KCAL/MOL
REMARK 924 INTRA-LIGAND FREE ENERGY PREDICTED BY IDOCK:   -0.20 KCAL/MOL
REMARK 927      BINDING AFFINITY PREDICTED BY RF-SCORE:    0.00 PKD
ROOT
HETATM    1  C   UNL     1     -11.120  14.486  64.946  1.00  0.00    -0.401 C  
HETATM    2  C   UNL     1     -10.952  15.960  64.724  1.00  0.00    -0.375 C  
HETATM    3  O   UNL     1     -11.722  16.640  64.060  1.00  0.00    -1.143 OA 
ENDROOT
BRANCH   2   4
HETATM    4  O   UNL     1      -9.776  16.382  65.346  1.00  0.00    -0.486 OA 
BRANCH   4   5
HETATM    5  C   UNL     1      -9.816  17.335  66.386  1.00  0.00    -0.299 A  
HETATM    6  C   UNL     1      -9.456  18.671  66.209  1.00  0.00    -0.267 A  
HETATM    7  C   UNL     1      -9.519  19.533  67.297  1.00  0.00    -0.329 A  
HETATM    8  C   UNL     1      -9.973  19.095  68.537  1.00  0.00    -0.496 A  
HETATM    9  O   UNL     1      -9.129  20.836  67.183  1.00  0.00    -0.570 OA 
HETATM   10  H   UNL     1      -9.172  21.425  67.927  1.00  0.00     0.000 HD 
HETATM   11  C   UNL     1     -10.370  17.765  68.696  1.00  0.00    -0.351 A  
HETATM   12  C   UNL     1     -10.292  16.882  67.619  1.00  0.00    -0.317 A  
ENDBRANCH   4   5
ENDBRANCH   2   4
TORSDOF 2
ENDMDL
MODEL       11
REMARK 921   NORMALIZED FREE ENERGY PREDICTED BY IDOCK:   -4.52 KCAL/MOL
REMARK 922        TOTAL FREE ENERGY PREDICTED BY IDOCK:   -5.23 KCAL/MOL
REMARK 923 INTER-LIGAND FREE ENERGY PREDICTED BY IDOCK:   -5.03 KCAL/MOL
REMARK 924 INTRA-LIGAND FREE ENERGY PREDICTED BY IDOCK:   -0.20 KCAL/MOL
REMARK 927      BINDING AFFINITY PREDICTED BY RF-SCORE:    0.00 PKD
ROOT
HETATM    1  C   UNL     1     -10.834  12.164  63.543  1.00  0.00    -0.518 C  
HETATM    2  C   UNL     1     -12.088  12.890  63.928  1.00  0.00    -0.480 C  
HETATM    3  O   UNL     1     -12.561  13.818  63.287  1.00  0.00    -0.830 OA 
ENDROOT
BRANCH   2   4
HETATM    4  O   UNL     1     -12.567  12.366  65.130  1.00  0.00    -0.622 OA 
BRANCH   4   5
HETATM    5  C   UNL     1     -12.014  12.773  66.362  1.00  0.00    -0.375 A  
HETATM    6  C   UNL     1     -11.363  11.897  67.231  1.00  0.00    -0.393 A  
HETATM    7  C   UNL     1     -10.859  12.390  68.429  1.00  0.00    -0.238 A  
HETATM    8  C   UNL     1     -10.957  13.740  68.749  1.00  0.00    -0.289 A  
HETATM    9  O   UNL     1     -10.259  11.561  69.331  1.00  0.00    -0.428 OA 
HETATM   10  H   UNL     1      -9.915  11.899  70.150  1.00  0.00     0.000 HD 
HETATM   11  C   UNL     1     -11.575  14.619  67.855  1.00  0.00    -0.373 A  
HETATM   12  C   UNL     1     -12.105  14.135  66.659  1.00  0.00    -0.480 A  
ENDBRANCH   4   5
ENDBRANCH   2   4
TORSDOF 2
ENDMDL
MODEL       12
REMARK 921   NORMALIZED FREE ENERGY PREDICTED BY IDOCK:   -4.51 KCAL/MOL
REMARK 922        TOTAL FREE ENERGY PREDICTED BY IDOCK:   -5.23 KCAL/MOL
REMARK 923 INTER-LIGAND FREE ENERGY PREDICTED BY IDOCK:   -5.12 KCAL/MOL
REMARK 924 INTRA-LIGAND FREE ENERGY PREDICTED BY IDOCK:   -0.11 KCAL/MOL
REMARK 927      BINDING AFFINITY PREDICTED BY RF-SCORE:    0.00 PKD
ROOT
HETATM    1  C   UNL     1     -10.659  15.621  70.031  1.00  0.00    -0.342 C  
HETATM    2  C   UNL     1     -11.343  14.579  69.196  1.00  0.00    -0.277 C  
HETATM    3  O   UNL     1     -12.403  14.051  69.500  1.00  0.00    -0.332 OA 
ENDROOT
BRANCH   2   4
HETATM    4  O   UNL     1     -10.552  14.299  68.080  1.00  0.00    -0.237 OA 
BRANCH   4   5
HETATM    5  C   UNL     1     -11.092  14.377  66.779  1.00  0.00    -0.323 A  
HETATM    6  C   UNL     1     -10.895  15.472  65.937  1.00  0.00    -0.317 A  
HETATM    7  C   UNL     1     -11.476  15.462  64.674  1.00  0.00    -0.337 A  
HETATM    8  C   UNL     1     -12.209  14.366  64.229  1.00  0.00    -0.450 A  
HETATM    9  O   UNL     1     -11.352  16.531  63.836  1.00  0.00    -1.557 OA 
HETATM   10  H   UNL     1     -11.750  16.523  62.974  1.00  0.00     0.000 HD 
HETATM   11  C   UNL     1     -12.368  13.257  65.063  1.00  0.00    -0.499 A  
HETATM   12  C   UNL     1     -11.809  13.261  66.341  1.00  0.00    -0.446 A  
ENDBRANCH   4   5
ENDBRANCH   2   4
TORSDOF 2
ENDMDL
MODEL       13
REMARK 921   NORMALIZED FREE ENERGY PREDICTED BY IDOCK:   -4.51 KCAL/MOL
REMARK 922        TOTAL FREE ENERGY PREDICTED BY IDOCK:   -5.23 KCAL/MOL
REMARK 923 INTER-LIGAND FREE ENERGY PREDICTED BY IDOCK:   -5.09 KCAL/MOL
REMARK 924 INTRA-LIGAND FREE ENERGY PREDICTED BY IDOCK:   -0.13 KCAL/MOL
REMARK 927      BINDING AFFINITY PREDICTED BY RF-SCORE:    0.00 PKD
ROOT
HETATM    1  C   UNL     1     -12.164  15.336  73.837  1.00  0.00    -0.735 C  
HETATM    2  C   UNL     1     -13.442  15.159  73.073  1.00  0.00    -0.452 C  
HETATM    3  O   UNL     1     -14.178  16.083  72.754  1.00  0.00    -0.472 OA 
ENDROOT
BRANCH   2   4
HETATM    4  O   UNL     1     -13.652  13.798  72.846  1.00  0.00    -0.681 OA 
BRANCH   4   5
HETATM    5  C   UNL     1     -13.049  13.151  71.746  1.00  0.00    -0.383 A  
HETATM    6  C   UNL     1     -12.505  13.840  70.662  1.00  0.00    -0.429 A  
HETATM    7  C   UNL     1     -11.940  13.114  69.620  1.00  0.00    -0.306 A  
HETATM    8  C   UNL     1     -11.873  11.726  69.665  1.00  0.00    -0.407 A  
HETATM    9  O   UNL     1     -11.441  13.743  68.517  1.00  0.00    -0.266 OA 
HETATM   10  H   UNL     1     -11.056  13.247  67.805  1.00  0.00     0.000 HD 
HETATM   11  C   UNL     1     -12.384  11.045  70.772  1.00  0.00    -0.496 A  
HETATM   12  C   UNL     1     -12.974  11.758  71.816  1.00  0.00    -0.466 A  
ENDBRANCH   4   5
ENDBRANCH   2   4
TORSDOF 2
ENDMDL
MODEL       14
REMARK 921   NORMALIZED FREE ENERGY PREDICTED BY IDOCK:   -4.51 KCAL/MOL
REMARK 922        TOTAL FREE ENERGY PREDICTED BY IDOCK:   -5.22 KCAL/MOL
REMARK 923 INTER-LIGAND FREE ENERGY PREDICTED BY IDOCK:   -5.28 KCAL/MOL
REMARK 924 INTRA-LIGAND FREE ENERGY PREDICTED BY IDOCK:    0.05 KCAL/MOL
REMARK 927      BINDING AFFINITY PREDICTED BY RF-SCORE:    0.00 PKD
ROOT
HETATM    1  C   UNL     1     -10.349  10.760  66.116  1.00  0.00    -0.300 C  
HETATM    2  C   UNL     1     -11.527  11.293  66.875  1.00  0.00    -0.042 C  
HETATM    3  O   UNL     1     -11.870  10.884  67.976  1.00  0.00    -0.585 OA 
ENDROOT
BRANCH   2   4
HETATM    4  O   UNL     1     -12.164  12.266  66.103  1.00  0.00    -0.647 OA 
BRANCH   4   5
HETATM    5  C   UNL     1     -11.562  13.525  65.894  1.00  0.00    -0.335 A  
HETATM    6  C   UNL     1     -11.942  14.390  64.868  1.00  0.00    -0.430 A  
HETATM    7  C   UNL     1     -11.283  15.607  64.737  1.00  0.00    -0.382 A  
HETATM    8  C   UNL     1     -10.289  15.987  65.633  1.00  0.00    -0.414 A  
HETATM    9  O   UNL     1     -11.587  16.463  63.719  1.00  0.00    -1.605 OA 
HETATM   10  H   UNL     1     -11.136  17.294  63.629  1.00  0.00     0.000 HD 
HETATM   11  C   UNL     1      -9.942  15.133  66.682  1.00  0.00    -0.261 A  
HETATM   12  C   UNL     1     -10.579  13.898  66.814  1.00  0.00    -0.277 A  
ENDBRANCH   4   5
ENDBRANCH   2   4
TORSDOF 2
ENDMDL
MODEL       15
REMARK 921   NORMALIZED FREE ENERGY PREDICTED BY IDOCK:   -4.46 KCAL/MOL
REMARK 922        TOTAL FREE ENERGY PREDICTED BY IDOCK:   -5.17 KCAL/MOL
REMARK 923 INTER-LIGAND FREE ENERGY PREDICTED BY IDOCK:   -4.97 KCAL/MOL
REMARK 924 INTRA-LIGAND FREE ENERGY PREDICTED BY IDOCK:   -0.20 KCAL/MOL
REMARK 927      BINDING AFFINITY PREDICTED BY RF-SCORE:    0.00 PKD
ROOT
HETATM    1  C   UNL     1     -10.052  14.862  68.812  1.00  0.00    -0.241 C  
HETATM    2  C   UNL     1     -10.838  16.127  68.989  1.00  0.00    -0.299 C  
HETATM    3  O   UNL     1     -10.364  17.247  68.857  1.00  0.00    -0.331 OA 
ENDROOT
BRANCH   2   4
HETATM    4  O   UNL     1     -12.142  15.804  69.365  1.00  0.00    -0.354 OA 
BRANCH   4   5
HETATM    5  C   UNL     1     -12.431  15.403  70.686  1.00  0.00    -0.428 A  
HETATM    6  C   UNL     1     -13.144  14.243  70.992  1.00  0.00    -0.394 A  
HETATM    7  C   UNL     1     -13.387  13.936  72.326  1.00  0.00    -0.503 A  
HETATM    8  C   UNL     1     -12.897  14.740  73.349  1.00  0.00    -0.597 A  
HETATM    9  O   UNL     1     -14.122  12.840  72.670  1.00  0.00    -0.679 OA 
HETATM   10  H   UNL     1     -14.289  12.631  73.581  1.00  0.00     0.000 HD 
HETATM   11  C   UNL     1     -12.150  15.878  73.037  1.00  0.00    -0.615 A  
HETATM   12  C   UNL     1     -11.915  16.211  71.702  1.00  0.00    -0.528 A  
ENDBRANCH   4   5
ENDBRANCH   2   4
TORSDOF 2
ENDMDL
MODEL       16
REMARK 921   NORMALIZED FREE ENERGY PREDICTED BY IDOCK:   -4.38 KCAL/MOL
REMARK 922        TOTAL FREE ENERGY PREDICTED BY IDOCK:   -5.08 KCAL/MOL
REMARK 923 INTER-LIGAND FREE ENERGY PREDICTED BY IDOCK:   -4.92 KCAL/MOL
REMARK 924 INTRA-LIGAND FREE ENERGY PREDICTED BY IDOCK:   -0.16 KCAL/MOL
REMARK 927      BINDING AFFINITY PREDICTED BY RF-SCORE:    0.00 PKD
ROOT
HETATM    1  C   UNL     1      -9.812   9.918  65.338  1.00  0.00    -0.384 C  
HETATM    2  C   UNL     1     -10.419  11.082  64.613  1.00  0.00    -0.329 C  
HETATM    3  O   UNL     1     -10.369  11.230  63.400  1.00  0.00    -0.360 OA 
ENDROOT
BRANCH   2   4
HETATM    4  O   UNL     1     -10.985  11.953  65.545  1.00  0.00    -0.284 OA 
BRANCH   4   5
HETATM    5  C   UNL     1     -10.740  13.341  65.474  1.00  0.00    -0.289 A  
HETATM    6  C   UNL     1     -11.461  14.200  64.645  1.00  0.00    -0.392 A  
HETATM    7  C   UNL     1     -11.139  15.553  64.637  1.00  0.00    -0.359 A  
HETATM    8  C   UNL     1     -10.145  16.060  65.467  1.00  0.00    -0.336 A  
HETATM    9  O   UNL     1     -11.784  16.422  63.806  1.00  0.00    -1.553 OA 
HETATM   10  H   UNL     1     -11.563  17.346  63.800  1.00  0.00     0.000 HD 
HETATM   11  C   UNL     1      -9.454  15.200  66.324  1.00  0.00    -0.341 A  
HETATM   12  C   UNL     1      -9.751  13.836  66.328  1.00  0.00    -0.297 A  
ENDBRANCH   4   5
ENDBRANCH   2   4
TORSDOF 2
ENDMDL
MODEL       17
REMARK 921   NORMALIZED FREE ENERGY PREDICTED BY IDOCK:   -4.35 KCAL/MOL
REMARK 922        TOTAL FREE ENERGY PREDICTED BY IDOCK:   -5.04 KCAL/MOL
REMARK 923 INTER-LIGAND FREE ENERGY PREDICTED BY IDOCK:   -4.80 KCAL/MOL
REMARK 924 INTRA-LIGAND FREE ENERGY PREDICTED BY IDOCK:   -0.24 KCAL/MOL
REMARK 927      BINDING AFFINITY PREDICTED BY RF-SCORE:    0.00 PKD
ROOT
HETATM    1  C   UNL     1     -10.588  12.422  63.615  1.00  0.00    -0.481 C  
HETATM    2  C   UNL     1     -12.012  12.830  63.849  1.00  0.00    -0.480 C  
HETATM    3  O   UNL     1     -12.625  13.608  63.131  1.00  0.00    -0.792 OA 
ENDROOT
BRANCH   2   4
HETATM    4  O   UNL     1     -12.474  12.221  65.018  1.00  0.00    -0.535 OA 
BRANCH   4   5
HETATM    5  C   UNL     1     -12.073  12.699  66.283  1.00  0.00    -0.289 A  
HETATM    6  C   UNL     1     -12.200  14.034  66.669  1.00  0.00    -0.463 A  
HETATM    7  C   UNL     1     -11.767  14.412  67.935  1.00  0.00    -0.356 A  
HETATM    8  C   UNL     1     -11.254  13.477  68.827  1.00  0.00    -0.311 A  
HETATM    9  O   UNL     1     -11.826  15.714  68.336  1.00  0.00    -0.440 OA 
HETATM   10  H   UNL     1     -11.530  15.972  69.201  1.00  0.00     0.000 HD 
HETATM   11  C   UNL     1     -11.167  12.135  68.449  1.00  0.00    -0.314 A  
HETATM   12  C   UNL     1     -11.577  11.744  67.174  1.00  0.00    -0.342 A  
ENDBRANCH   4   5
ENDBRANCH   2   4
TORSDOF 2
ENDMDL
MODEL       18
REMARK 921   NORMALIZED FREE ENERGY PREDICTED BY IDOCK:   -4.32 KCAL/MOL
REMARK 922        TOTAL FREE ENERGY PREDICTED BY IDOCK:   -5.01 KCAL/MOL
REMARK 923 INTER-LIGAND FREE ENERGY PREDICTED BY IDOCK:   -4.83 KCAL/MOL
REMARK 924 INTRA-LIGAND FREE ENERGY PREDICTED BY IDOCK:   -0.17 KCAL/MOL
REMARK 927      BINDING AFFINITY PREDICTED BY RF-SCORE:    0.00 PKD
ROOT
HETATM    1  C   UNL     1     -13.997  13.692  72.377  1.00  0.00    -0.651 C  
HETATM    2  C   UNL     1     -13.242  14.695  71.557  1.00  0.00    -0.355 C  
HETATM    3  O   UNL     1     -13.670  15.806  71.277  1.00  0.00    -0.560 OA 
ENDROOT
BRANCH   2   4
HETATM    4  O   UNL     1     -12.032  14.131  71.149  1.00  0.00    -0.335 OA 
BRANCH   4   5
HETATM    5  C   UNL     1     -11.918  13.509  69.888  1.00  0.00    -0.348 A  
HETATM    6  C   UNL     1     -11.989  12.127  69.712  1.00  0.00    -0.372 A  
HETATM    7  C   UNL     1     -11.855  11.606  68.430  1.00  0.00    -0.278 A  
HETATM    8  C   UNL     1     -11.697  12.439  67.328  1.00  0.00    -0.419 A  
HETATM    9  O   UNL     1     -11.868  10.258  68.217  1.00  0.00    -0.734 OA 
HETATM   10  H   UNL     1     -11.777   9.903  67.341  1.00  0.00     0.000 HD 
HETATM   11  C   UNL     1     -11.668  13.824  67.508  1.00  0.00    -0.410 A  
HETATM   12  C   UNL     1     -11.778  14.362  68.791  1.00  0.00    -0.372 A  
ENDBRANCH   4   5
ENDBRANCH   2   4
TORSDOF 2
ENDMDL
MODEL       19
REMARK 921   NORMALIZED FREE ENERGY PREDICTED BY IDOCK:   -4.31 KCAL/MOL
REMARK 922        TOTAL FREE ENERGY PREDICTED BY IDOCK:   -4.99 KCAL/MOL
REMARK 923 INTER-LIGAND FREE ENERGY PREDICTED BY IDOCK:   -4.78 KCAL/MOL
REMARK 924 INTRA-LIGAND FREE ENERGY PREDICTED BY IDOCK:   -0.21 KCAL/MOL
REMARK 927      BINDING AFFINITY PREDICTED BY RF-SCORE:    0.00 PKD
ROOT
HETATM    1  C   UNL     1     -11.218  11.775  63.803  1.00  0.00    -0.518 C  
HETATM    2  C   UNL     1     -12.046  12.544  64.789  1.00  0.00    -0.434 C  
HETATM    3  O   UNL     1     -13.268  12.596  64.758  1.00  0.00    -0.846 OA 
ENDROOT
BRANCH   2   4
HETATM    4  O   UNL     1     -11.198  13.201  65.682  1.00  0.00    -0.281 OA 
BRANCH   4   5
HETATM    5  C   UNL     1     -11.481  13.217  67.063  1.00  0.00    -0.336 A  
HETATM    6  C   UNL     1     -11.887  14.365  67.744  1.00  0.00    -0.402 A  
HETATM    7  C   UNL     1     -12.134  14.284  69.110  1.00  0.00    -0.302 A  
HETATM    8  C   UNL     1     -12.024  13.075  69.790  1.00  0.00    -0.377 A  
HETATM    9  O   UNL     1     -12.484  15.390  69.827  1.00  0.00    -0.547 OA 
HETATM   10  H   UNL     1     -12.653  15.334  70.760  1.00  0.00     0.000 HD 
HETATM   11  C   UNL     1     -11.657  11.921  69.093  1.00  0.00    -0.373 A  
HETATM   12  C   UNL     1     -11.384  11.991  67.726  1.00  0.00    -0.370 A  
ENDBRANCH   4   5
ENDBRANCH   2   4
TORSDOF 2
ENDMDL
MODEL       20
REMARK 921   NORMALIZED FREE ENERGY PREDICTED BY IDOCK:   -4.30 KCAL/MOL
REMARK 922        TOTAL FREE ENERGY PREDICTED BY IDOCK:   -4.99 KCAL/MOL
REMARK 923 INTER-LIGAND FREE ENERGY PREDICTED BY IDOCK:   -4.80 KCAL/MOL
REMARK 924 INTRA-LIGAND FREE ENERGY PREDICTED BY IDOCK:   -0.19 KCAL/MOL
REMARK 927      BINDING AFFINITY PREDICTED BY RF-SCORE:    0.00 PKD
ROOT
HETATM    1  C   UNL     1     -12.118  14.082  66.610  1.00  0.00    -0.487 C  
HETATM    2  C   UNL     1     -11.775  13.016  67.608  1.00  0.00    -0.366 C  
HETATM    3  O   UNL     1     -11.920  11.819  67.402  1.00  0.00    -0.617 OA 
ENDROOT
BRANCH   2   4
HETATM    4  O   UNL     1     -11.325  13.620  68.783  1.00  0.00    -0.253 OA 
BRANCH   4   5
HETATM    5  C   UNL     1     -12.157  13.692  69.919  1.00  0.00    -0.341 A  
HETATM    6  C   UNL     1     -12.409  12.599  70.749  1.00  0.00    -0.372 A  
HETATM    7  C   UNL     1     -13.253  12.765  71.841  1.00  0.00    -0.412 A  
HETATM    8  C   UNL     1     -13.808  14.005  72.138  1.00  0.00    -0.627 A  
HETATM    9  O   UNL     1     -13.567  11.713  72.651  1.00  0.00    -0.450 OA 
HETATM   10  H   UNL     1     -14.144  11.827  73.397  1.00  0.00     0.000 HD 
HETATM   11  C   UNL     1     -13.520  15.104  71.326  1.00  0.00    -0.559 A  
HETATM   12  C   UNL     1     -12.692  14.949  70.213  1.00  0.00    -0.317 A  
ENDBRANCH   4   5
ENDBRANCH   2   4
TORSDOF 2
ENDMDL
MODEL       21
REMARK 921   NORMALIZED FREE ENERGY PREDICTED BY IDOCK:   -4.29 KCAL/MOL
REMARK 922        TOTAL FREE ENERGY PREDICTED BY IDOCK:   -4.97 KCAL/MOL
REMARK 923 INTER-LIGAND FREE ENERGY PREDICTED BY IDOCK:   -4.81 KCAL/MOL
REMARK 924 INTRA-LIGAND FREE ENERGY PREDICTED BY IDOCK:   -0.16 KCAL/MOL
REMARK 927      BINDING AFFINITY PREDICTED BY RF-SCORE:    0.00 PKD
ROOT
HETATM    1  C   UNL     1     -10.578  15.793  67.588  1.00  0.00    -0.301 C  
HETATM    2  C   UNL     1     -10.183  15.815  69.034  1.00  0.00    -0.224 C  
HETATM    3  O   UNL     1      -9.150  15.321  69.465  1.00  0.00    -0.241 OA 
ENDROOT
BRANCH   2   4
HETATM    4  O   UNL     1     -11.193  16.434  69.772  1.00  0.00    -0.325 OA 
BRANCH   4   5
HETATM    5  C   UNL     1     -11.847  15.744  70.815  1.00  0.00    -0.404 A  
HETATM    6  C   UNL     1     -12.074  16.302  72.073  1.00  0.00    -0.493 A  
HETATM    7  C   UNL     1     -12.719  15.539  73.040  1.00  0.00    -0.454 A  
HETATM    8  C   UNL     1     -13.174  14.256  72.757  1.00  0.00    -0.614 A  
HETATM    9  O   UNL     1     -12.917  16.025  74.299  1.00  0.00    -0.897 OA 
HETATM   10  H   UNL     1     -13.357  15.504  74.959  1.00  0.00     0.000 HD 
HETATM   11  C   UNL     1     -12.980  13.719  71.483  1.00  0.00    -0.444 A  
HETATM   12  C   UNL     1     -12.314  14.464  70.508  1.00  0.00    -0.413 A  
ENDBRANCH   4   5
ENDBRANCH   2   4
TORSDOF 2
ENDMDL
MODEL       22
REMARK 921   NORMALIZED FREE ENERGY PREDICTED BY IDOCK:   -4.28 KCAL/MOL
REMARK 922        TOTAL FREE ENERGY PREDICTED BY IDOCK:   -4.96 KCAL/MOL
REMARK 923 INTER-LIGAND FREE ENERGY PREDICTED BY IDOCK:   -4.76 KCAL/MOL
REMARK 924 INTRA-LIGAND FREE ENERGY PREDICTED BY IDOCK:   -0.21 KCAL/MOL
REMARK 927      BINDING AFFINITY PREDICTED BY RF-SCORE:    0.00 PKD
ROOT
HETATM    1  C   UNL     1      -9.395   7.186  68.567  1.00  0.00    -0.136 C  
HETATM    2  C   UNL     1     -10.482   6.935  69.569  1.00  0.00    -0.223 C  
HETATM    3  O   UNL     1     -11.397   6.141  69.397  1.00  0.00    -0.420 OA 
ENDROOT
BRANCH   2   4
HETATM    4  O   UNL     1     -10.293   7.776  70.667  1.00  0.00    -0.200 OA 
BRANCH   4   5
HETATM    5  C   UNL     1     -11.319   8.645  71.092  1.00  0.00    -0.275 A  
HETATM    6  C   UNL     1     -12.237   8.310  72.088  1.00  0.00    -0.418 A  
HETATM    7  C   UNL     1     -13.220   9.231  72.432  1.00  0.00    -0.426 A  
HETATM    8  C   UNL     1     -13.273  10.485  71.833  1.00  0.00    -0.526 A  
HETATM    9  O   UNL     1     -14.169   8.928  73.365  1.00  0.00    -1.241 OA 
HETATM   10  H   UNL     1     -14.841   9.557  73.599  1.00  0.00     0.000 HD 
HETATM   11  C   UNL     1     -12.326  10.828  70.865  1.00  0.00    -0.497 A  
HETATM   12  C   UNL     1     -11.346   9.907  70.493  1.00  0.00    -0.399 A  
ENDBRANCH   4   5
ENDBRANCH   2   4
TORSDOF 2
ENDMDL
MODEL       23
REMARK 921   NORMALIZED FREE ENERGY PREDICTED BY IDOCK:   -4.28 KCAL/MOL
REMARK 922        TOTAL FREE ENERGY PREDICTED BY IDOCK:   -4.96 KCAL/MOL
REMARK 923 INTER-LIGAND FREE ENERGY PREDICTED BY IDOCK:   -4.75 KCAL/MOL
REMARK 924 INTRA-LIGAND FREE ENERGY PREDICTED BY IDOCK:   -0.22 KCAL/MOL
REMARK 927      BINDING AFFINITY PREDICTED BY RF-SCORE:    0.00 PKD
ROOT
HETATM    1  C   UNL     1     -10.322  16.013  65.814  1.00  0.00    -0.398 C  
HETATM    2  C   UNL     1     -11.404  15.764  64.806  1.00  0.00    -0.314 C  
HETATM    3  O   UNL     1     -11.636  16.504  63.860  1.00  0.00    -1.175 OA 
ENDROOT
BRANCH   2   4
HETATM    4  O   UNL     1     -12.098  14.606  65.160  1.00  0.00    -0.363 OA 
BRANCH   4   5
HETATM    5  C   UNL     1     -11.492  13.339  65.038  1.00  0.00    -0.305 A  
HETATM    6  C   UNL     1     -11.226  12.513  66.131  1.00  0.00    -0.362 A  
HETATM    7  C   UNL     1     -10.616  11.283  65.911  1.00  0.00    -0.253 A  
HETATM    8  C   UNL     1     -10.311  10.852  64.625  1.00  0.00    -0.407 A  
HETATM    9  O   UNL     1     -10.292  10.465  66.954  1.00  0.00    -0.221 OA 
HETATM   10  H   UNL     1      -9.875   9.625  66.803  1.00  0.00     0.000 HD 
HETATM   11  C   UNL     1     -10.617  11.667  63.532  1.00  0.00    -0.496 A  
HETATM   12  C   UNL     1     -11.209  12.913  63.738  1.00  0.00    -0.452 A  
ENDBRANCH   4   5
ENDBRANCH   2   4
TORSDOF 2
ENDMDL
MODEL       24
REMARK 921   NORMALIZED FREE ENERGY PREDICTED BY IDOCK:   -4.27 KCAL/MOL
REMARK 922        TOTAL FREE ENERGY PREDICTED BY IDOCK:   -4.95 KCAL/MOL
REMARK 923 INTER-LIGAND FREE ENERGY PREDICTED BY IDOCK:   -4.77 KCAL/MOL
REMARK 924 INTRA-LIGAND FREE ENERGY PREDICTED BY IDOCK:   -0.18 KCAL/MOL
REMARK 927      BINDING AFFINITY PREDICTED BY RF-SCORE:    0.00 PKD
ROOT
HETATM    1  C   UNL     1     -12.230  14.900  69.695  1.00  0.00    -0.299 C  
HETATM    2  C   UNL     1     -11.401  14.319  68.589  1.00  0.00    -0.275 C  
HETATM    3  O   UNL     1     -10.285  14.722  68.291  1.00  0.00    -0.220 OA 
ENDROOT
BRANCH   2   4
HETATM    4  O   UNL     1     -12.128  13.309  67.958  1.00  0.00    -0.332 OA 
BRANCH   4   5
HETATM    5  C   UNL     1     -11.927  13.025  66.591  1.00  0.00    -0.387 A  
HETATM    6  C   UNL     1     -12.299  13.899  65.569  1.00  0.00    -0.506 A  
HETATM    7  C   UNL     1     -12.068  13.527  64.249  1.00  0.00    -0.431 A  
HETATM    8  C   UNL     1     -11.438  12.326  63.941  1.00  0.00    -0.512 A  
HETATM    9  O   UNL     1     -12.461  14.327  63.216  1.00  0.00    -1.133 OA 
HETATM   10  H   UNL     1     -12.303  14.072  62.315  1.00  0.00     0.000 HD 
HETATM   11  C   UNL     1     -11.030  11.475  64.971  1.00  0.00    -0.305 A  
HETATM   12  C   UNL     1     -11.275  11.824  66.300  1.00  0.00    -0.370 A  
ENDBRANCH   4   5
ENDBRANCH   2   4
TORSDOF 2
ENDMDL
MODEL       25
REMARK 921   NORMALIZED FREE ENERGY PREDICTED BY IDOCK:   -4.22 KCAL/MOL
REMARK 922        TOTAL FREE ENERGY PREDICTED BY IDOCK:   -4.90 KCAL/MOL
REMARK 923 INTER-LIGAND FREE ENERGY PREDICTED BY IDOCK:   -4.71 KCAL/MOL
REMARK 924 INTRA-LIGAND FREE ENERGY PREDICTED BY IDOCK:   -0.19 KCAL/MOL
REMARK 927      BINDING AFFINITY PREDICTED BY RF-SCORE:    0.00 PKD
ROOT
HETATM    1  C   UNL     1      -7.820   9.374  70.398  1.00  0.00    -0.179 C  
HETATM    2  C   UNL     1      -8.702   8.794  71.463  1.00  0.00    -0.206 C  
HETATM    3  O   UNL     1      -8.353   8.638  72.625  1.00  0.00    -0.378 OA 
ENDROOT
BRANCH   2   4
HETATM    4  O   UNL     1      -9.925   8.432  70.895  1.00  0.00    -0.182 OA 
BRANCH   4   5
HETATM    5  C   UNL     1     -11.110   9.108  71.253  1.00  0.00    -0.335 A  
HETATM    6  C   UNL     1     -12.039   8.590  72.156  1.00  0.00    -0.449 A  
HETATM    7  C   UNL     1     -13.184   9.326  72.438  1.00  0.00    -0.426 A  
HETATM    8  C   UNL     1     -13.391  10.579  71.871  1.00  0.00    -0.461 A  
HETATM    9  O   UNL     1     -14.144   8.837  73.275  1.00  0.00    -1.180 OA 
HETATM   10  H   UNL     1     -14.926   9.340  73.468  1.00  0.00     0.000 HD 
HETATM   11  C   UNL     1     -12.437  11.109  71.000  1.00  0.00    -0.506 A  
HETATM   12  C   UNL     1     -11.293  10.373  70.689  1.00  0.00    -0.411 A  
ENDBRANCH   4   5
ENDBRANCH   2   4
TORSDOF 2
ENDMDL
MODEL       26
REMARK 921   NORMALIZED FREE ENERGY PREDICTED BY IDOCK:   -4.21 KCAL/MOL
REMARK 922        TOTAL FREE ENERGY PREDICTED BY IDOCK:   -4.89 KCAL/MOL
REMARK 923 INTER-LIGAND FREE ENERGY PREDICTED BY IDOCK:   -4.67 KCAL/MOL
REMARK 924 INTRA-LIGAND FREE ENERGY PREDICTED BY IDOCK:   -0.22 KCAL/MOL
REMARK 927      BINDING AFFINITY PREDICTED BY RF-SCORE:    0.00 PKD
ROOT
HETATM    1  C   UNL     1     -14.237  15.277  72.168  1.00  0.00    -0.667 C  
HETATM    2  C   UNL     1     -13.356  14.065  72.120  1.00  0.00    -0.453 C  
HETATM    3  O   UNL     1     -13.670  12.976  72.582  1.00  0.00    -0.621 OA 
ENDROOT
BRANCH   2   4
HETATM    4  O   UNL     1     -12.143  14.407  71.521  1.00  0.00    -0.349 OA 
BRANCH   4   5
HETATM    5  C   UNL     1     -11.975  14.298  70.124  1.00  0.00    -0.326 A  
HETATM    6  C   UNL     1     -12.107  13.093  69.433  1.00  0.00    -0.285 A  
HETATM    7  C   UNL     1     -11.913  13.084  68.056  1.00  0.00    -0.290 A  
HETATM    8  C   UNL     1     -11.636  14.256  67.362  1.00  0.00    -0.394 A  
HETATM    9  O   UNL     1     -11.983  11.921  67.346  1.00  0.00    -0.603 OA 
HETATM   10  H   UNL     1     -11.850  11.915  66.406  1.00  0.00     0.000 HD 
HETATM   11  C   UNL     1     -11.545  15.465  68.055  1.00  0.00    -0.303 A  
HETATM   12  C   UNL     1     -11.715  15.488  69.440  1.00  0.00    -0.382 A  
ENDBRANCH   4   5
ENDBRANCH   2   4
TORSDOF 2
ENDMDL
MODEL       27
REMARK 921   NORMALIZED FREE ENERGY PREDICTED BY IDOCK:   -4.20 KCAL/MOL
REMARK 922        TOTAL FREE ENERGY PREDICTED BY IDOCK:   -4.88 KCAL/MOL
REMARK 923 INTER-LIGAND FREE ENERGY PREDICTED BY IDOCK:   -4.66 KCAL/MOL
REMARK 924 INTRA-LIGAND FREE ENERGY PREDICTED BY IDOCK:   -0.21 KCAL/MOL
REMARK 927      BINDING AFFINITY PREDICTED BY RF-SCORE:    0.00 PKD
ROOT
HETATM    1  C   UNL     1     -12.042  12.604  63.673  1.00  0.00    -0.632 C  
HETATM    2  C   UNL     1     -11.937  14.004  64.200  1.00  0.00    -0.408 C  
HETATM    3  O   UNL     1     -12.659  14.923  63.839  1.00  0.00    -0.831 OA 
ENDROOT
BRANCH   2   4
HETATM    4  O   UNL     1     -10.876  14.071  65.104  1.00  0.00    -0.327 OA 
BRANCH   4   5
HETATM    5  C   UNL     1     -11.051  14.656  66.376  1.00  0.00    -0.334 A  
HETATM    6  C   UNL     1     -10.666  15.964  66.672  1.00  0.00    -0.270 A  
HETATM    7  C   UNL     1     -10.871  16.448  67.959  1.00  0.00    -0.342 A  
HETATM    8  C   UNL     1     -11.488  15.668  68.932  1.00  0.00    -0.367 A  
HETATM    9  O   UNL     1     -10.466  17.703  68.309  1.00  0.00    -0.366 OA 
HETATM   10  H   UNL     1     -10.605  18.034  69.188  1.00  0.00     0.000 HD 
HETATM   11  C   UNL     1     -11.907  14.374  68.616  1.00  0.00    -0.366 A  
HETATM   12  C   UNL     1     -11.689  13.865  67.335  1.00  0.00    -0.422 A  
ENDBRANCH   4   5
ENDBRANCH   2   4
TORSDOF 2
ENDMDL
MODEL       28
REMARK 921   NORMALIZED FREE ENERGY PREDICTED BY IDOCK:   -4.18 KCAL/MOL
REMARK 922        TOTAL FREE ENERGY PREDICTED BY IDOCK:   -4.86 KCAL/MOL
REMARK 923 INTER-LIGAND FREE ENERGY PREDICTED BY IDOCK:   -4.67 KCAL/MOL
REMARK 924 INTRA-LIGAND FREE ENERGY PREDICTED BY IDOCK:   -0.19 KCAL/MOL
REMARK 927      BINDING AFFINITY PREDICTED BY RF-SCORE:    0.00 PKD
ROOT
HETATM    1  C   UNL     1      -9.582  20.551  67.441  1.00  0.00    -0.578 C  
HETATM    2  C   UNL     1      -8.840  19.250  67.373  1.00  0.00    -0.296 C  
HETATM    3  O   UNL     1      -7.718  19.130  66.902  1.00  0.00    -0.230 OA 
ENDROOT
BRANCH   2   4
HETATM    4  O   UNL     1      -9.653  18.236  67.881  1.00  0.00    -0.275 OA 
BRANCH   4   5
HETATM    5  C   UNL     1     -10.118  17.200  67.043  1.00  0.00    -0.297 A  
HETATM    6  C   UNL     1     -10.584  17.420  65.747  1.00  0.00    -0.185 A  
HETATM    7  C   UNL     1     -11.031  16.336  65.000  1.00  0.00    -0.298 A  
HETATM    8  C   UNL     1     -10.978  15.043  65.509  1.00  0.00    -0.364 A  
HETATM    9  O   UNL     1     -11.541  16.510  63.747  1.00  0.00    -1.617 OA 
HETATM   10  H   UNL     1     -11.847  15.769  63.238  1.00  0.00     0.000 HD 
HETATM   11  C   UNL     1     -10.472  14.825  66.792  1.00  0.00    -0.282 A  
HETATM   12  C   UNL     1     -10.040  15.905  67.563  1.00  0.00    -0.247 A  
ENDBRANCH   4   5
ENDBRANCH   2   4
TORSDOF 2
ENDMDL
MODEL       29
REMARK 921   NORMALIZED FREE ENERGY PREDICTED BY IDOCK:   -4.13 KCAL/MOL
REMARK 922        TOTAL FREE ENERGY PREDICTED BY IDOCK:   -4.80 KCAL/MOL
REMARK 923 INTER-LIGAND FREE ENERGY PREDICTED BY IDOCK:   -4.64 KCAL/MOL
REMARK 924 INTRA-LIGAND FREE ENERGY PREDICTED BY IDOCK:   -0.17 KCAL/MOL
REMARK 927      BINDING AFFINITY PREDICTED BY RF-SCORE:    0.00 PKD
ROOT
HETATM    1  C   UNL     1      -9.312  18.203  67.323  1.00  0.00    -0.252 C  
HETATM    2  C   UNL     1     -10.094  17.025  67.821  1.00  0.00    -0.302 C  
HETATM    3  O   UNL     1     -10.934  17.091  68.707  1.00  0.00    -0.289 OA 
ENDROOT
BRANCH   2   4
HETATM    4  O   UNL     1      -9.667  15.878  67.149  1.00  0.00    -0.221 OA 
BRANCH   4   5
HETATM    5  C   UNL     1     -10.598  15.026  66.519  1.00  0.00    -0.305 A  
HETATM    6  C   UNL     1     -10.981  15.170  65.185  1.00  0.00    -0.428 A  
HETATM    7  C   UNL     1     -11.914  14.286  64.655  1.00  0.00    -0.455 A  
HETATM    8  C   UNL     1     -12.432  13.244  65.418  1.00  0.00    -0.543 A  
HETATM    9  O   UNL     1     -12.356  14.419  63.372  1.00  0.00    -1.094 OA 
HETATM   10  H   UNL     1     -12.994  13.815  63.010  1.00  0.00     0.000 HD 
HETATM   11  C   UNL     1     -12.012  13.082  66.740  1.00  0.00    -0.434 A  
HETATM   12  C   UNL     1     -11.093  13.974  67.294  1.00  0.00    -0.314 A  
ENDBRANCH   4   5
ENDBRANCH   2   4
TORSDOF 2
ENDMDL
MODEL       30
REMARK 921   NORMALIZED FREE ENERGY PREDICTED BY IDOCK:   -4.13 KCAL/MOL
REMARK 922        TOTAL FREE ENERGY PREDICTED BY IDOCK:   -4.80 KCAL/MOL
REMARK 923 INTER-LIGAND FREE ENERGY PREDICTED BY IDOCK:   -4.61 KCAL/MOL
REMARK 924 INTRA-LIGAND FREE ENERGY PREDICTED BY IDOCK:   -0.19 KCAL/MOL
REMARK 927      BINDING AFFINITY PREDICTED BY RF-SCORE:    0.00 PKD
ROOT
HETATM    1  C   UNL     1     -11.098  12.202  63.366  1.00  0.00    -0.495 C  
HETATM    2  C   UNL     1     -11.992  12.366  64.558  1.00  0.00    -0.402 C  
HETATM    3  O   UNL     1     -13.212  12.424  64.491  1.00  0.00    -0.834 OA 
ENDROOT
BRANCH   2   4
HETATM    4  O   UNL     1     -11.204  12.485  65.704  1.00  0.00    -0.295 OA 
BRANCH   4   5
HETATM    5  C   UNL     1     -11.136  13.707  66.405  1.00  0.00    -0.303 A  
HETATM    6  C   UNL     1     -11.890  13.973  67.549  1.00  0.00    -0.442 A  
HETATM    7  C   UNL     1     -11.761  15.212  68.166  1.00  0.00    -0.302 A  
HETATM    8  C   UNL     1     -10.867  16.164  67.687  1.00  0.00    -0.297 A  
HETATM    9  O   UNL     1     -12.515  15.534  69.256  1.00  0.00    -0.601 OA 
HETATM   10  H   UNL     1     -12.427  16.381  69.677  1.00  0.00     0.000 HD 
HETATM   11  C   UNL     1     -10.086  15.876  66.566  1.00  0.00    -0.293 A  
HETATM   12  C   UNL     1     -10.220  14.644  65.922  1.00  0.00    -0.344 A  
ENDBRANCH   4   5
ENDBRANCH   2   4
TORSDOF 2
ENDMDL
MODEL       31
REMARK 921   NORMALIZED FREE ENERGY PREDICTED BY IDOCK:   -4.12 KCAL/MOL
REMARK 922        TOTAL FREE ENERGY PREDICTED BY IDOCK:   -4.78 KCAL/MOL
REMARK 923 INTER-LIGAND FREE ENERGY PREDICTED BY IDOCK:   -4.67 KCAL/MOL
REMARK 924 INTRA-LIGAND FREE ENERGY PREDICTED BY IDOCK:   -0.11 KCAL/MOL
REMARK 927      BINDING AFFINITY PREDICTED BY RF-SCORE:    0.00 PKD
ROOT
HETATM    1  C   UNL     1     -11.146  14.961  65.740  1.00  0.00    -0.342 C  
HETATM    2  C   UNL     1     -10.631  16.208  65.084  1.00  0.00    -0.343 C  
HETATM    3  O   UNL     1     -11.278  16.876  64.289  1.00  0.00    -1.204 OA 
ENDROOT
BRANCH   2   4
HETATM    4  O   UNL     1      -9.315  16.427  65.494  1.00  0.00    -0.442 OA 
BRANCH   4   5
HETATM    5  C   UNL     1      -9.023  17.373  66.499  1.00  0.00    -0.260 A  
HETATM    6  C   UNL     1      -9.968  17.817  67.424  1.00  0.00    -0.323 A  
HETATM    7  C   UNL     1      -9.588  18.760  68.372  1.00  0.00    -0.365 A  
HETATM    8  C   UNL     1      -8.280  19.229  68.436  1.00  0.00    -0.383 A  
HETATM    9  O   UNL     1     -10.491  19.260  69.264  1.00  0.00    -0.474 OA 
HETATM   10  H   UNL     1     -10.231  19.905  69.912  1.00  0.00     0.000 HD 
HETATM   11  C   UNL     1      -7.330  18.750  67.532  1.00  0.00    -0.235 A  
HETATM   12  C   UNL     1      -7.701  17.819  66.560  1.00  0.00    -0.298 A  
ENDBRANCH   4   5
ENDBRANCH   2   4
TORSDOF 2
ENDMDL
MODEL       32
REMARK 921   NORMALIZED FREE ENERGY PREDICTED BY IDOCK:   -4.11 KCAL/MOL
REMARK 922        TOTAL FREE ENERGY PREDICTED BY IDOCK:   -4.77 KCAL/MOL
REMARK 923 INTER-LIGAND FREE ENERGY PREDICTED BY IDOCK:   -4.67 KCAL/MOL
REMARK 924 INTRA-LIGAND FREE ENERGY PREDICTED BY IDOCK:   -0.11 KCAL/MOL
REMARK 927      BINDING AFFINITY PREDICTED BY RF-SCORE:    0.00 PKD
ROOT
HETATM    1  C   UNL     1     -10.520  14.735  65.071  1.00  0.00    -0.443 C  
HETATM    2  C   UNL     1     -11.854  14.327  65.621  1.00  0.00    -0.373 C  
HETATM    3  O   UNL     1     -12.742  13.822  64.950  1.00  0.00    -0.637 OA 
ENDROOT
BRANCH   2   4
HETATM    4  O   UNL     1     -11.909  14.663  66.975  1.00  0.00    -0.387 OA 
BRANCH   4   5
HETATM    5  C   UNL     1     -11.898  13.659  67.966  1.00  0.00    -0.362 A  
HETATM    6  C   UNL     1     -11.680  12.311  67.681  1.00  0.00    -0.403 A  
HETATM    7  C   UNL     1     -11.697  11.393  68.725  1.00  0.00    -0.339 A  
HETATM    8  C   UNL     1     -11.882  11.803  70.041  1.00  0.00    -0.422 A  
HETATM    9  O   UNL     1     -11.539  10.059  68.488  1.00  0.00    -0.521 OA 
HETATM   10  H   UNL     1     -11.551   9.432  69.201  1.00  0.00     0.000 HD 
HETATM   11  C   UNL     1     -12.058  13.160  70.323  1.00  0.00    -0.399 A  
HETATM   12  C   UNL     1     -12.067  14.092  69.283  1.00  0.00    -0.380 A  
ENDBRANCH   4   5
ENDBRANCH   2   4
TORSDOF 2
ENDMDL
MODEL       33
REMARK 921   NORMALIZED FREE ENERGY PREDICTED BY IDOCK:   -4.08 KCAL/MOL
REMARK 922        TOTAL FREE ENERGY PREDICTED BY IDOCK:   -4.74 KCAL/MOL
REMARK 923 INTER-LIGAND FREE ENERGY PREDICTED BY IDOCK:   -4.53 KCAL/MOL
REMARK 924 INTRA-LIGAND FREE ENERGY PREDICTED BY IDOCK:   -0.21 KCAL/MOL
REMARK 927      BINDING AFFINITY PREDICTED BY RF-SCORE:    0.00 PKD
ROOT
HETATM    1  C   UNL     1     -12.071  15.178  72.662  1.00  0.00    -0.487 C  
HETATM    2  C   UNL     1     -12.494  15.454  71.250  1.00  0.00    -0.397 C  
HETATM    3  O   UNL     1     -13.644  15.710  70.922  1.00  0.00    -0.568 OA 
ENDROOT
BRANCH   2   4
HETATM    4  O   UNL     1     -11.388  15.320  70.409  1.00  0.00    -0.254 OA 
BRANCH   4   5
HETATM    5  C   UNL     1     -11.457  14.514  69.254  1.00  0.00    -0.288 A  
HETATM    6  C   UNL     1     -11.703  13.142  69.296  1.00  0.00    -0.376 A  
HETATM    7  C   UNL     1     -11.743  12.429  68.103  1.00  0.00    -0.353 A  
HETATM    8  C   UNL     1     -11.586  13.069  66.878  1.00  0.00    -0.419 A  
HETATM    9  O   UNL     1     -11.931  11.078  68.099  1.00  0.00    -0.686 OA 
HETATM   10  H   UNL     1     -11.958  10.592  67.284  1.00  0.00     0.000 HD 
HETATM   11  C   UNL     1     -11.380  14.450  66.841  1.00  0.00    -0.357 A  
HETATM   12  C   UNL     1     -11.315  15.176  68.032  1.00  0.00    -0.346 A  
ENDBRANCH   4   5
ENDBRANCH   2   4
TORSDOF 2
ENDMDL
MODEL       34
REMARK 921   NORMALIZED FREE ENERGY PREDICTED BY IDOCK:   -4.08 KCAL/MOL
REMARK 922        TOTAL FREE ENERGY PREDICTED BY IDOCK:   -4.74 KCAL/MOL
REMARK 923 INTER-LIGAND FREE ENERGY PREDICTED BY IDOCK:   -4.52 KCAL/MOL
REMARK 924 INTRA-LIGAND FREE ENERGY PREDICTED BY IDOCK:   -0.22 KCAL/MOL
REMARK 927      BINDING AFFINITY PREDICTED BY RF-SCORE:    0.00 PKD
ROOT
HETATM    1  C   UNL     1     -11.157  11.813  64.901  1.00  0.00    -0.345 C  
HETATM    2  C   UNL     1     -12.173  12.819  64.449  1.00  0.00    -0.428 C  
HETATM    3  O   UNL     1     -12.486  12.991  63.279  1.00  0.00    -0.699 OA 
ENDROOT
BRANCH   2   4
HETATM    4  O   UNL     1     -12.637  13.527  65.558  1.00  0.00    -0.476 OA 
BRANCH   4   5
HETATM    5  C   UNL     1     -11.810  14.464  66.211  1.00  0.00    -0.379 A  
HETATM    6  C   UNL     1     -11.028  15.396  65.528  1.00  0.00    -0.350 A  
HETATM    7  C   UNL     1     -10.236  16.274  66.260  1.00  0.00    -0.327 A  
HETATM    8  C   UNL     1     -10.246  16.262  67.650  1.00  0.00    -0.272 A  
HETATM    9  O   UNL     1      -9.418  17.168  65.634  1.00  0.00    -0.523 OA 
HETATM   10  H   UNL     1      -8.877  17.767  66.134  1.00  0.00     0.000 HD 
HETATM   11  C   UNL     1     -11.062  15.353  68.328  1.00  0.00    -0.309 A  
HETATM   12  C   UNL     1     -11.846  14.450  67.608  1.00  0.00    -0.412 A  
ENDBRANCH   4   5
ENDBRANCH   2   4
TORSDOF 2
ENDMDL
MODEL       35
REMARK 921   NORMALIZED FREE ENERGY PREDICTED BY IDOCK:   -4.07 KCAL/MOL
REMARK 922        TOTAL FREE ENERGY PREDICTED BY IDOCK:   -4.74 KCAL/MOL
REMARK 923 INTER-LIGAND FREE ENERGY PREDICTED BY IDOCK:   -4.71 KCAL/MOL
REMARK 924 INTRA-LIGAND FREE ENERGY PREDICTED BY IDOCK:   -0.02 KCAL/MOL
REMARK 927      BINDING AFFINITY PREDICTED BY RF-SCORE:    0.00 PKD
ROOT
HETATM    1  C   UNL     1      -7.978  10.199  65.758  1.00  0.00    -0.140 C  
HETATM    2  C   UNL     1      -9.361   9.630  65.654  1.00  0.00    -0.237 C  
HETATM    3  O   UNL     1      -9.795   8.756  66.391  1.00  0.00    -0.249 OA 
ENDROOT
BRANCH   2   4
HETATM    4  O   UNL     1     -10.017  10.223  64.573  1.00  0.00    -0.339 OA 
BRANCH   4   5
HETATM    5  C   UNL     1     -10.781  11.395  64.752  1.00  0.00    -0.298 A  
HETATM    6  C   UNL     1     -11.302  12.134  63.689  1.00  0.00    -0.545 A  
HETATM    7  C   UNL     1     -12.036  13.282  63.965  1.00  0.00    -0.465 A  
HETATM    8  C   UNL     1     -12.290  13.675  65.275  1.00  0.00    -0.498 A  
HETATM    9  O   UNL     1     -12.522  14.063  62.958  1.00  0.00    -1.101 OA 
HETATM   10  H   UNL     1     -13.023  14.848  63.147  1.00  0.00     0.000 HD 
HETATM   11  C   UNL     1     -11.800  12.908  66.334  1.00  0.00    -0.478 A  
HETATM   12  C   UNL     1     -11.043  11.765  66.073  1.00  0.00    -0.363 A  
ENDBRANCH   4   5
ENDBRANCH   2   4
TORSDOF 2
ENDMDL
MODEL       36
REMARK 921   NORMALIZED FREE ENERGY PREDICTED BY IDOCK:   -4.06 KCAL/MOL
REMARK 922        TOTAL FREE ENERGY PREDICTED BY IDOCK:   -4.72 KCAL/MOL
REMARK 923 INTER-LIGAND FREE ENERGY PREDICTED BY IDOCK:   -4.64 KCAL/MOL
REMARK 924 INTRA-LIGAND FREE ENERGY PREDICTED BY IDOCK:   -0.09 KCAL/MOL
REMARK 927      BINDING AFFINITY PREDICTED BY RF-SCORE:    0.00 PKD
ROOT
HETATM    1  C   UNL     1     -10.436  17.868  66.740  1.00  0.00    -0.315 C  
HETATM    2  C   UNL     1     -10.466  16.887  65.606  1.00  0.00    -0.238 C  
HETATM    3  O   UNL     1     -11.050  17.084  64.550  1.00  0.00    -1.098 OA 
ENDROOT
BRANCH   2   4
HETATM    4  O   UNL     1      -9.774  15.734  65.983  1.00  0.00    -0.293 OA 
BRANCH   4   5
HETATM    5  C   UNL     1     -10.398  14.470  65.924  1.00  0.00    -0.319 A  
HETATM    6  C   UNL     1     -10.963  13.847  67.037  1.00  0.00    -0.301 A  
HETATM    7  C   UNL     1     -11.548  12.595  66.881  1.00  0.00    -0.373 A  
HETATM    8  C   UNL     1     -11.612  11.982  65.634  1.00  0.00    -0.356 A  
HETATM    9  O   UNL     1     -12.068  11.927  67.950  1.00  0.00    -0.558 OA 
HETATM   10  H   UNL     1     -12.467  11.072  67.843  1.00  0.00     0.000 HD 
HETATM   11  C   UNL     1     -11.080  12.630  64.517  1.00  0.00    -0.365 A  
HETATM   12  C   UNL     1     -10.470  13.878  64.661  1.00  0.00    -0.419 A  
ENDBRANCH   4   5
ENDBRANCH   2   4
TORSDOF 2
ENDMDL
MODEL       37
REMARK 921   NORMALIZED FREE ENERGY PREDICTED BY IDOCK:   -4.04 KCAL/MOL
REMARK 922        TOTAL FREE ENERGY PREDICTED BY IDOCK:   -4.70 KCAL/MOL
REMARK 923 INTER-LIGAND FREE ENERGY PREDICTED BY IDOCK:   -4.53 KCAL/MOL
REMARK 924 INTRA-LIGAND FREE ENERGY PREDICTED BY IDOCK:   -0.17 KCAL/MOL
REMARK 927      BINDING AFFINITY PREDICTED BY RF-SCORE:    0.00 PKD
ROOT
HETATM    1  C   UNL     1     -10.511  19.286  67.462  1.00  0.00    -0.564 C  
HETATM    2  C   UNL     1     -10.503  18.707  66.079  1.00  0.00    -0.414 C  
HETATM    3  O   UNL     1     -11.028  19.243  65.113  1.00  0.00    -0.448 OA 
ENDROOT
BRANCH   2   4
HETATM    4  O   UNL     1      -9.856  17.470  66.107  1.00  0.00    -0.396 OA 
BRANCH   4   5
HETATM    5  C   UNL     1     -10.598  16.272  66.158  1.00  0.00    -0.267 A  
HETATM    6  C   UNL     1     -11.068  15.717  67.350  1.00  0.00    -0.235 A  
HETATM    7  C   UNL     1     -11.783  14.526  67.300  1.00  0.00    -0.406 A  
HETATM    8  C   UNL     1     -12.070  13.910  66.087  1.00  0.00    -0.478 A  
HETATM    9  O   UNL     1     -12.218  13.922  68.443  1.00  0.00    -0.479 OA 
HETATM   10  H   UNL     1     -12.706  13.108  68.409  1.00  0.00     0.000 HD 
HETATM   11  C   UNL     1     -11.632  14.492  64.895  1.00  0.00    -0.401 A  
HETATM   12  C   UNL     1     -10.894  15.676  64.930  1.00  0.00    -0.438 A  
ENDBRANCH   4   5
ENDBRANCH   2   4
TORSDOF 2
ENDMDL
MODEL       38
REMARK 921   NORMALIZED FREE ENERGY PREDICTED BY IDOCK:   -4.02 KCAL/MOL
REMARK 922        TOTAL FREE ENERGY PREDICTED BY IDOCK:   -4.67 KCAL/MOL
REMARK 923 INTER-LIGAND FREE ENERGY PREDICTED BY IDOCK:   -4.49 KCAL/MOL
REMARK 924 INTRA-LIGAND FREE ENERGY PREDICTED BY IDOCK:   -0.18 KCAL/MOL
REMARK 927      BINDING AFFINITY PREDICTED BY RF-SCORE:    0.00 PKD
ROOT
HETATM    1  C   UNL     1     -13.548  13.416  72.129  1.00  0.00    -0.660 C  
HETATM    2  C   UNL     1     -13.060  14.465  71.176  1.00  0.00    -0.352 C  
HETATM    3  O   UNL     1     -13.669  15.497  70.930  1.00  0.00    -0.524 OA 
ENDROOT
BRANCH   2   4
HETATM    4  O   UNL     1     -11.857  14.041  70.609  1.00  0.00    -0.298 OA 
BRANCH   4   5
HETATM    5  C   UNL     1     -11.823  13.534  69.293  1.00  0.00    -0.341 A  
HETATM    6  C   UNL     1     -12.034  14.328  68.165  1.00  0.00    -0.343 A  
HETATM    7  C   UNL     1     -11.990  13.734  66.908  1.00  0.00    -0.421 A  
HETATM    8  C   UNL     1     -11.698  12.382  66.762  1.00  0.00    -0.430 A  
HETATM    9  O   UNL     1     -12.240  14.460  65.781  1.00  0.00    -0.389 OA 
HETATM   10  H   UNL     1     -12.210  14.055  64.923  1.00  0.00     0.000 HD 
HETATM   11  C   UNL     1     -11.447  11.603  67.893  1.00  0.00    -0.381 A  
HETATM   12  C   UNL     1     -11.510  12.179  69.163  1.00  0.00    -0.352 A  
ENDBRANCH   4   5
ENDBRANCH   2   4
TORSDOF 2
ENDMDL
MODEL       39
REMARK 921   NORMALIZED FREE ENERGY PREDICTED BY IDOCK:   -4.01 KCAL/MOL
REMARK 922        TOTAL FREE ENERGY PREDICTED BY IDOCK:   -4.66 KCAL/MOL
REMARK 923 INTER-LIGAND FREE ENERGY PREDICTED BY IDOCK:   -4.55 KCAL/MOL
REMARK 924 INTRA-LIGAND FREE ENERGY PREDICTED BY IDOCK:   -0.12 KCAL/MOL
REMARK 927      BINDING AFFINITY PREDICTED BY RF-SCORE:    0.00 PKD
ROOT
HETATM    1  C   UNL     1     -14.341   8.131  71.671  1.00  0.00    -0.570 C  
HETATM    2  C   UNL     1     -13.157   8.880  72.208  1.00  0.00    -0.436 C  
HETATM    3  O   UNL     1     -12.078   8.360  72.455  1.00  0.00    -0.393 OA 
ENDROOT
BRANCH   2   4
HETATM    4  O   UNL     1     -13.516  10.213  72.411  1.00  0.00    -0.338 OA 
BRANCH   4   5
HETATM    5  C   UNL     1     -12.988  11.233  71.592  1.00  0.00    -0.432 A  
HETATM    6  C   UNL     1     -12.282  10.975  70.416  1.00  0.00    -0.461 A  
HETATM    7  C   UNL     1     -11.790  12.047  69.680  1.00  0.00    -0.333 A  
HETATM    8  C   UNL     1     -12.029  13.359  70.073  1.00  0.00    -0.407 A  
HETATM    9  O   UNL     1     -11.051  11.842  68.551  1.00  0.00    -0.209 OA 
HETATM   10  H   UNL     1     -10.715  12.575  68.049  1.00  0.00     0.000 HD 
HETATM   11  C   UNL     1     -12.771  13.610  71.229  1.00  0.00    -0.443 A  
HETATM   12  C   UNL     1     -13.253  12.544  71.992  1.00  0.00    -0.524 A  
ENDBRANCH   4   5
ENDBRANCH   2   4
TORSDOF 2
ENDMDL
MODEL       40
REMARK 921   NORMALIZED FREE ENERGY PREDICTED BY IDOCK:   -4.00 KCAL/MOL
REMARK 922        TOTAL FREE ENERGY PREDICTED BY IDOCK:   -4.65 KCAL/MOL
REMARK 923 INTER-LIGAND FREE ENERGY PREDICTED BY IDOCK:   -4.46 KCAL/MOL
REMARK 924 INTRA-LIGAND FREE ENERGY PREDICTED BY IDOCK:   -0.19 KCAL/MOL
REMARK 927      BINDING AFFINITY PREDICTED BY RF-SCORE:    0.00 PKD
ROOT
HETATM    1  C   UNL     1     -11.781  13.301  69.512  1.00  0.00    -0.384 C  
HETATM    2  C   UNL     1     -11.851  13.764  68.088  1.00  0.00    -0.376 C  
HETATM    3  O   UNL     1     -11.609  14.909  67.731  1.00  0.00    -0.330 OA 
ENDROOT
BRANCH   2   4
HETATM    4  O   UNL     1     -12.275  12.703  67.285  1.00  0.00    -0.425 OA 
BRANCH   4   5
HETATM    5  C   UNL     1     -11.759  12.537  65.983  1.00  0.00    -0.417 A  
HETATM    6  C   UNL     1     -10.543  11.905  65.721  1.00  0.00    -0.309 A  
HETATM    7  C   UNL     1     -10.112  11.798  64.403  1.00  0.00    -0.282 A  
HETATM    8  C   UNL     1     -10.892  12.268  63.351  1.00  0.00    -0.457 A  
HETATM    9  O   UNL     1      -8.907  11.233  64.103  1.00  0.00    -0.383 OA 
HETATM   10  H   UNL     1      -8.614  11.160  63.203  1.00  0.00     0.000 HD 
HETATM   11  C   UNL     1     -12.127  12.863  63.619  1.00  0.00    -0.611 A  
HETATM   12  C   UNL     1     -12.563  12.999  64.938  1.00  0.00    -0.490 A  
ENDBRANCH   4   5
ENDBRANCH   2   4
TORSDOF 2
ENDMDL
MODEL       41
REMARK 921   NORMALIZED FREE ENERGY PREDICTED BY IDOCK:   -3.99 KCAL/MOL
REMARK 922        TOTAL FREE ENERGY PREDICTED BY IDOCK:   -4.64 KCAL/MOL
REMARK 923 INTER-LIGAND FREE ENERGY PREDICTED BY IDOCK:   -4.44 KCAL/MOL
REMARK 924 INTRA-LIGAND FREE ENERGY PREDICTED BY IDOCK:   -0.20 KCAL/MOL
REMARK 927      BINDING AFFINITY PREDICTED BY RF-SCORE:    0.00 PKD
ROOT
HETATM    1  C   UNL     1     -10.914  15.205  65.870  1.00  0.00    -0.339 C  
HETATM    2  C   UNL     1     -11.880  14.412  66.698  1.00  0.00    -0.398 C  
HETATM    3  O   UNL     1     -12.124  14.649  67.873  1.00  0.00    -0.304 OA 
ENDROOT
BRANCH   2   4
HETATM    4  O   UNL     1     -12.390  13.367  65.926  1.00  0.00    -0.434 OA 
BRANCH   4   5
HETATM    5  C   UNL     1     -11.552  12.318  65.493  1.00  0.00    -0.371 A  
HETATM    6  C   UNL     1     -11.267  12.078  64.148  1.00  0.00    -0.441 A  
HETATM    7  C   UNL     1     -10.436  11.013  63.818  1.00  0.00    -0.341 A  
HETATM    8  C   UNL     1      -9.858  10.220  64.804  1.00  0.00    -0.403 A  
HETATM    9  O   UNL     1     -10.170  10.709  62.515  1.00  0.00    -0.758 OA 
HETATM   10  H   UNL     1      -9.603   9.981  62.290  1.00  0.00     0.000 HD 
HETATM   11  C   UNL     1     -10.115  10.492  66.149  1.00  0.00    -0.306 A  
HETATM   12  C   UNL     1     -10.965  11.544  66.496  1.00  0.00    -0.346 A  
ENDBRANCH   4   5
ENDBRANCH   2   4
TORSDOF 2
ENDMDL
MODEL       42
REMARK 921   NORMALIZED FREE ENERGY PREDICTED BY IDOCK:   -3.98 KCAL/MOL
REMARK 922        TOTAL FREE ENERGY PREDICTED BY IDOCK:   -4.63 KCAL/MOL
REMARK 923 INTER-LIGAND FREE ENERGY PREDICTED BY IDOCK:   -4.54 KCAL/MOL
REMARK 924 INTRA-LIGAND FREE ENERGY PREDICTED BY IDOCK:   -0.09 KCAL/MOL
REMARK 927      BINDING AFFINITY PREDICTED BY RF-SCORE:    0.00 PKD
ROOT
HETATM    1  C   UNL     1     -10.778  12.207  63.539  1.00  0.00    -0.509 C  
HETATM    2  C   UNL     1     -11.571  13.401  63.981  1.00  0.00    -0.385 C  
HETATM    3  O   UNL     1     -12.587  13.789  63.421  1.00  0.00    -0.842 OA 
ENDROOT
BRANCH   2   4
HETATM    4  O   UNL     1     -10.933  13.991  65.073  1.00  0.00    -0.335 OA 
BRANCH   4   5
HETATM    5  C   UNL     1     -10.737  13.268  66.269  1.00  0.00    -0.286 A  
HETATM    6  C   UNL     1     -11.686  12.388  66.790  1.00  0.00    -0.430 A  
HETATM    7  C   UNL     1     -11.406  11.727  67.981  1.00  0.00    -0.288 A  
HETATM    8  C   UNL     1     -10.187  11.897  68.628  1.00  0.00    -0.202 A  
HETATM    9  O   UNL     1     -12.324  10.896  68.554  1.00  0.00    -0.807 OA 
HETATM   10  H   UNL     1     -12.132  10.445  69.367  1.00  0.00     0.000 HD 
HETATM   11  C   UNL     1      -9.226  12.748  68.078  1.00  0.00    -0.208 A  
HETATM   12  C   UNL     1      -9.501  13.436  66.895  1.00  0.00    -0.253 A  
ENDBRANCH   4   5
ENDBRANCH   2   4
TORSDOF 2
ENDMDL
MODEL       43
REMARK 921   NORMALIZED FREE ENERGY PREDICTED BY IDOCK:   -3.97 KCAL/MOL
REMARK 922        TOTAL FREE ENERGY PREDICTED BY IDOCK:   -4.62 KCAL/MOL
REMARK 923 INTER-LIGAND FREE ENERGY PREDICTED BY IDOCK:   -4.46 KCAL/MOL
REMARK 924 INTRA-LIGAND FREE ENERGY PREDICTED BY IDOCK:   -0.16 KCAL/MOL
REMARK 927      BINDING AFFINITY PREDICTED BY RF-SCORE:    0.00 PKD
ROOT
HETATM    1  C   UNL     1     -12.124  12.010  63.570  1.00  0.00    -0.628 C  
HETATM    2  C   UNL     1     -11.903  13.467  63.849  1.00  0.00    -0.439 C  
HETATM    3  O   UNL     1     -12.721  14.340  63.593  1.00  0.00    -0.783 OA 
ENDROOT
BRANCH   2   4
HETATM    4  O   UNL     1     -10.627  13.639  64.386  1.00  0.00    -0.423 OA 
BRANCH   4   5
HETATM    5  C   UNL     1     -10.444  14.354  65.589  1.00  0.00    -0.334 A  
HETATM    6  C   UNL     1     -10.428  13.742  66.843  1.00  0.00    -0.272 A  
HETATM    7  C   UNL     1     -10.251  14.532  67.973  1.00  0.00    -0.233 A  
HETATM    8  C   UNL     1     -10.048  15.904  67.867  1.00  0.00    -0.235 A  
HETATM    9  O   UNL     1     -10.278  13.985  69.222  1.00  0.00    -0.426 OA 
HETATM   10  H   UNL     1     -10.158  14.525  69.994  1.00  0.00     0.000 HD 
HETATM   11  C   UNL     1     -10.025  16.504  66.605  1.00  0.00    -0.284 A  
HETATM   12  C   UNL     1     -10.223  15.727  65.462  1.00  0.00    -0.407 A  
ENDBRANCH   4   5
ENDBRANCH   2   4
TORSDOF 2
ENDMDL
MODEL       44
REMARK 921   NORMALIZED FREE ENERGY PREDICTED BY IDOCK:   -3.97 KCAL/MOL
REMARK 922        TOTAL FREE ENERGY PREDICTED BY IDOCK:   -4.62 KCAL/MOL
REMARK 923 INTER-LIGAND FREE ENERGY PREDICTED BY IDOCK:   -4.40 KCAL/MOL
REMARK 924 INTRA-LIGAND FREE ENERGY PREDICTED BY IDOCK:   -0.22 KCAL/MOL
REMARK 927      BINDING AFFINITY PREDICTED BY RF-SCORE:    0.00 PKD
ROOT
HETATM    1  C   UNL     1      -7.904  15.668  67.748  1.00  0.00    -0.158 C  
HETATM    2  C   UNL     1      -8.896  15.618  66.625  1.00  0.00    -0.292 C  
HETATM    3  O   UNL     1      -9.666  14.686  66.437  1.00  0.00    -0.267 OA 
ENDROOT
BRANCH   2   4
HETATM    4  O   UNL     1      -8.750  16.761  65.837  1.00  0.00    -0.504 OA 
BRANCH   4   5
HETATM    5  C   UNL     1      -9.057  18.036  66.357  1.00  0.00    -0.235 A  
HETATM    6  C   UNL     1      -8.121  19.067  66.450  1.00  0.00    -0.308 A  
HETATM    7  C   UNL     1      -8.517  20.287  66.986  1.00  0.00    -0.319 A  
HETATM    8  C   UNL     1      -9.831  20.503  67.388  1.00  0.00    -0.574 A  
HETATM    9  O   UNL     1      -7.624  21.306  67.142  1.00  0.00    -0.734 OA 
HETATM   10  H   UNL     1      -7.894  22.139  67.509  1.00  0.00     0.000 HD 
HETATM   11  C   UNL     1     -10.772  19.480  67.255  1.00  0.00    -0.604 A  
HETATM   12  C   UNL     1     -10.385  18.242  66.738  1.00  0.00    -0.403 A  
ENDBRANCH   4   5
ENDBRANCH   2   4
TORSDOF 2
ENDMDL
MODEL       45
REMARK 921   NORMALIZED FREE ENERGY PREDICTED BY IDOCK:   -3.96 KCAL/MOL
REMARK 922        TOTAL FREE ENERGY PREDICTED BY IDOCK:   -4.61 KCAL/MOL
REMARK 923 INTER-LIGAND FREE ENERGY PREDICTED BY IDOCK:   -4.38 KCAL/MOL
REMARK 924 INTRA-LIGAND FREE ENERGY PREDICTED BY IDOCK:   -0.23 KCAL/MOL
REMARK 927      BINDING AFFINITY PREDICTED BY RF-SCORE:    0.00 PKD
ROOT
HETATM    1  C   UNL     1     -14.267  15.368  72.201  1.00  0.00    -0.660 C  
HETATM    2  C   UNL     1     -12.794  15.507  72.444  1.00  0.00    -0.405 C  
HETATM    3  O   UNL     1     -12.300  16.366  73.160  1.00  0.00    -0.482 OA 
ENDROOT
BRANCH   2   4
HETATM    4  O   UNL     1     -12.116  14.544  71.694  1.00  0.00    -0.342 OA 
BRANCH   4   5
HETATM    5  C   UNL     1     -11.861  14.751  70.322  1.00  0.00    -0.302 A  
HETATM    6  C   UNL     1     -11.346  15.945  69.815  1.00  0.00    -0.347 A  
HETATM    7  C   UNL     1     -11.137  16.058  68.445  1.00  0.00    -0.351 A  
HETATM    8  C   UNL     1     -11.390  14.992  67.589  1.00  0.00    -0.342 A  
HETATM    9  O   UNL     1     -10.682  17.223  67.900  1.00  0.00    -0.372 OA 
HETATM   10  H   UNL     1     -10.540  17.300  66.964  1.00  0.00     0.000 HD 
HETATM   11  C   UNL     1     -11.867  13.786  68.109  1.00  0.00    -0.411 A  
HETATM   12  C   UNL     1     -12.103  13.664  69.479  1.00  0.00    -0.368 A  
ENDBRANCH   4   5
ENDBRANCH   2   4
TORSDOF 2
ENDMDL
MODEL       46
REMARK 921   NORMALIZED FREE ENERGY PREDICTED BY IDOCK:   -3.96 KCAL/MOL
REMARK 922        TOTAL FREE ENERGY PREDICTED BY IDOCK:   -4.61 KCAL/MOL
REMARK 923 INTER-LIGAND FREE ENERGY PREDICTED BY IDOCK:   -4.40 KCAL/MOL
REMARK 924 INTRA-LIGAND FREE ENERGY PREDICTED BY IDOCK:   -0.21 KCAL/MOL
REMARK 927      BINDING AFFINITY PREDICTED BY RF-SCORE:    0.00 PKD
ROOT
HETATM    1  C   UNL     1     -12.133  12.998  70.299  1.00  0.00    -0.388 C  
HETATM    2  C   UNL     1     -11.732  12.322  69.022  1.00  0.00    -0.324 C  
HETATM    3  O   UNL     1     -12.049  11.178  68.729  1.00  0.00    -0.522 OA 
ENDROOT
BRANCH   2   4
HETATM    4  O   UNL     1     -10.922  13.187  68.284  1.00  0.00    -0.234 OA 
BRANCH   4   5
HETATM    5  C   UNL     1     -11.143  13.376  66.904  1.00  0.00    -0.292 A  
HETATM    6  C   UNL     1     -10.254  12.934  65.923  1.00  0.00    -0.299 A  
HETATM    7  C   UNL     1     -10.554  13.176  64.587  1.00  0.00    -0.392 A  
HETATM    8  C   UNL     1     -11.737  13.807  64.219  1.00  0.00    -0.426 A  
HETATM    9  O   UNL     1      -9.691  12.807  63.597  1.00  0.00    -0.655 OA 
HETATM   10  H   UNL     1      -9.896  12.972  62.685  1.00  0.00     0.000 HD 
HETATM   11  C   UNL     1     -12.641  14.210  65.204  1.00  0.00    -0.426 A  
HETATM   12  C   UNL     1     -12.344  13.995  66.551  1.00  0.00    -0.442 A  
ENDBRANCH   4   5
ENDBRANCH   2   4
TORSDOF 2
ENDMDL
MODEL       47
REMARK 921   NORMALIZED FREE ENERGY PREDICTED BY IDOCK:   -3.96 KCAL/MOL
REMARK 922        TOTAL FREE ENERGY PREDICTED BY IDOCK:   -4.61 KCAL/MOL
REMARK 923 INTER-LIGAND FREE ENERGY PREDICTED BY IDOCK:   -4.40 KCAL/MOL
REMARK 924 INTRA-LIGAND FREE ENERGY PREDICTED BY IDOCK:   -0.21 KCAL/MOL
REMARK 927      BINDING AFFINITY PREDICTED BY RF-SCORE:    0.00 PKD
ROOT
HETATM    1  C   UNL     1      -9.215  11.575  68.466  1.00  0.00    -0.167 C  
HETATM    2  C   UNL     1      -9.614  12.958  68.043  1.00  0.00    -0.221 C  
HETATM    3  O   UNL     1     -10.152  13.768  68.784  1.00  0.00    -0.214 OA 
ENDROOT
BRANCH   2   4
HETATM    4  O   UNL     1      -9.314  13.124  66.689  1.00  0.00    -0.246 OA 
BRANCH   4   5
HETATM    5  C   UNL     1     -10.334  13.408  65.757  1.00  0.00    -0.293 A  
HETATM    6  C   UNL     1     -10.567  14.686  65.250  1.00  0.00    -0.409 A  
HETATM    7  C   UNL     1     -11.604  14.870  64.341  1.00  0.00    -0.288 A  
HETATM    8  C   UNL     1     -12.375  13.798  63.905  1.00  0.00    -0.346 A  
HETATM    9  O   UNL     1     -11.900  16.110  63.857  1.00  0.00    -1.359 OA 
HETATM   10  H   UNL     1     -12.608  16.235  63.236  1.00  0.00     0.000 HD 
HETATM   11  C   UNL     1     -12.110  12.514  64.387  1.00  0.00    -0.500 A  
HETATM   12  C   UNL     1     -11.087  12.317  65.316  1.00  0.00    -0.359 A  
ENDBRANCH   4   5
ENDBRANCH   2   4
TORSDOF 2
ENDMDL
MODEL       48
REMARK 921   NORMALIZED FREE ENERGY PREDICTED BY IDOCK:   -3.96 KCAL/MOL
REMARK 922        TOTAL FREE ENERGY PREDICTED BY IDOCK:   -4.61 KCAL/MOL
REMARK 923 INTER-LIGAND FREE ENERGY PREDICTED BY IDOCK:   -4.44 KCAL/MOL
REMARK 924 INTRA-LIGAND FREE ENERGY PREDICTED BY IDOCK:   -0.17 KCAL/MOL
REMARK 927      BINDING AFFINITY PREDICTED BY RF-SCORE:    0.00 PKD
ROOT
HETATM    1  C   UNL     1     -10.586  10.286  67.042  1.00  0.00    -0.302 C  
HETATM    2  C   UNL     1     -11.280  11.443  67.698  1.00  0.00    -0.283 C  
HETATM    3  O   UNL     1     -12.091  12.161  67.130  1.00  0.00    -0.575 OA 
ENDROOT
BRANCH   2   4
HETATM    4  O   UNL     1     -10.810  11.573  69.006  1.00  0.00    -0.207 OA 
BRANCH   4   5
HETATM    5  C   UNL     1     -11.710  11.748  70.078  1.00  0.00    -0.305 A  
HETATM    6  C   UNL     1     -12.276  10.683  70.780  1.00  0.00    -0.474 A  
HETATM    7  C   UNL     1     -13.161  10.956  71.817  1.00  0.00    -0.459 A  
HETATM    8  C   UNL     1     -13.452  12.265  72.187  1.00  0.00    -0.431 A  
HETATM    9  O   UNL     1     -13.776   9.947  72.497  1.00  0.00    -0.649 OA 
HETATM   10  H   UNL     1     -14.381  10.134  73.205  1.00  0.00     0.000 HD 
HETATM   11  C   UNL     1     -12.850  13.326  71.507  1.00  0.00    -0.419 A  
HETATM   12  C   UNL     1     -11.977  13.068  70.449  1.00  0.00    -0.337 A  
ENDBRANCH   4   5
ENDBRANCH   2   4
TORSDOF 2
ENDMDL
MODEL       49
REMARK 921   NORMALIZED FREE ENERGY PREDICTED BY IDOCK:   -3.93 KCAL/MOL
REMARK 922        TOTAL FREE ENERGY PREDICTED BY IDOCK:   -4.57 KCAL/MOL
REMARK 923 INTER-LIGAND FREE ENERGY PREDICTED BY IDOCK:   -4.36 KCAL/MOL
REMARK 924 INTRA-LIGAND FREE ENERGY PREDICTED BY IDOCK:   -0.21 KCAL/MOL
REMARK 927      BINDING AFFINITY PREDICTED BY RF-SCORE:    0.00 PKD
ROOT
HETATM    1  C   UNL     1     -11.535   6.784  70.921  1.00  0.00    -0.384 C  
HETATM    2  C   UNL     1     -11.734   8.014  71.755  1.00  0.00    -0.291 C  
HETATM    3  O   UNL     1     -11.055   8.289  72.735  1.00  0.00    -0.367 OA 
ENDROOT
BRANCH   2   4
HETATM    4  O   UNL     1     -12.822   8.731  71.256  1.00  0.00    -0.302 OA 
BRANCH   4   5
HETATM    5  C   UNL     1     -12.761  10.135  71.130  1.00  0.00    -0.396 A  
HETATM    6  C   UNL     1     -13.359  11.008  72.040  1.00  0.00    -0.393 A  
HETATM    7  C   UNL     1     -13.252  12.378  71.826  1.00  0.00    -0.334 A  
HETATM    8  C   UNL     1     -12.527  12.883  70.752  1.00  0.00    -0.370 A  
HETATM    9  O   UNL     1     -13.863  13.267  72.661  1.00  0.00    -0.712 OA 
HETATM   10  H   UNL     1     -13.790  14.203  72.514  1.00  0.00     0.000 HD 
HETATM   11  C   UNL     1     -11.897  12.004  69.869  1.00  0.00    -0.405 A  
HETATM   12  C   UNL     1     -12.013  10.626  70.057  1.00  0.00    -0.408 A  
ENDBRANCH   4   5
ENDBRANCH   2   4
TORSDOF 2
ENDMDL
MODEL       50
REMARK 921   NORMALIZED FREE ENERGY PREDICTED BY IDOCK:   -3.89 KCAL/MOL
REMARK 922        TOTAL FREE ENERGY PREDICTED BY IDOCK:   -4.53 KCAL/MOL
REMARK 923 INTER-LIGAND FREE ENERGY PREDICTED BY IDOCK:   -4.34 KCAL/MOL
REMARK 924 INTRA-LIGAND FREE ENERGY PREDICTED BY IDOCK:   -0.18 KCAL/MOL
REMARK 927      BINDING AFFINITY PREDICTED BY RF-SCORE:    0.00 PKD
ROOT
HETATM    1  C   UNL     1     -11.228  11.991  63.672  1.00  0.00    -0.528 C  
HETATM    2  C   UNL     1     -11.625  13.429  63.817  1.00  0.00    -0.313 C  
HETATM    3  O   UNL     1     -12.612  13.920  63.285  1.00  0.00    -0.824 OA 
ENDROOT
BRANCH   2   4
HETATM    4  O   UNL     1     -10.674  14.088  64.598  1.00  0.00    -0.407 OA 
BRANCH   4   5
HETATM    5  C   UNL     1     -10.657  13.926  65.999  1.00  0.00    -0.293 A  
HETATM    6  C   UNL     1      -9.478  13.820  66.738  1.00  0.00    -0.281 A  
HETATM    7  C   UNL     1      -9.563  13.652  68.116  1.00  0.00    -0.221 A  
HETATM    8  C   UNL     1     -10.794  13.631  68.763  1.00  0.00    -0.279 A  
HETATM    9  O   UNL     1      -8.439  13.495  68.873  1.00  0.00    -0.358 OA 
HETATM   10  H   UNL     1      -8.497  13.379  69.814  1.00  0.00     0.000 HD 
HETATM   11  C   UNL     1     -11.968  13.778  68.021  1.00  0.00    -0.390 A  
HETATM   12  C   UNL     1     -11.900  13.925  66.635  1.00  0.00    -0.447 A  
ENDBRANCH   4   5
ENDBRANCH   2   4
TORSDOF 2
ENDMDL
MODEL       51
REMARK 921   NORMALIZED FREE ENERGY PREDICTED BY IDOCK:   -3.87 KCAL/MOL
REMARK 922        TOTAL FREE ENERGY PREDICTED BY IDOCK:   -4.51 KCAL/MOL
REMARK 923 INTER-LIGAND FREE ENERGY PREDICTED BY IDOCK:   -4.34 KCAL/MOL
REMARK 924 INTRA-LIGAND FREE ENERGY PREDICTED BY IDOCK:   -0.17 KCAL/MOL
REMARK 927      BINDING AFFINITY PREDICTED BY RF-SCORE:    0.00 PKD
ROOT
HETATM    1  C   UNL     1      -9.878  11.198  68.716  1.00  0.00    -0.201 C  
HETATM    2  C   UNL     1     -10.950  12.209  68.438  1.00  0.00    -0.235 C  
HETATM    3  O   UNL     1     -11.033  13.287  69.009  1.00  0.00    -0.247 OA 
ENDROOT
BRANCH   2   4
HETATM    4  O   UNL     1     -11.826  11.691  67.483  1.00  0.00    -0.591 OA 
BRANCH   4   5
HETATM    5  C   UNL     1     -11.743  12.099  66.135  1.00  0.00    -0.315 A  
HETATM    6  C   UNL     1     -11.235  11.284  65.123  1.00  0.00    -0.071 A  
HETATM    7  C   UNL     1     -11.184  11.778  63.824  1.00  0.00    -0.436 A  
HETATM    8  C   UNL     1     -11.668  13.046  63.518  1.00  0.00    -0.532 A  
HETATM    9  O   UNL     1     -10.649  11.036  62.812  1.00  0.00    -0.772 OA 
HETATM   10  H   UNL     1     -10.615  11.374  61.925  1.00  0.00     0.000 HD 
HETATM   11  C   UNL     1     -12.213  13.840  64.529  1.00  0.00    -0.441 A  
HETATM   12  C   UNL     1     -12.251  13.367  65.842  1.00  0.00    -0.502 A  
ENDBRANCH   4   5
ENDBRANCH   2   4
TORSDOF 2
ENDMDL
MODEL       52
REMARK 921   NORMALIZED FREE ENERGY PREDICTED BY IDOCK:   -3.86 KCAL/MOL
REMARK 922        TOTAL FREE ENERGY PREDICTED BY IDOCK:   -4.50 KCAL/MOL
REMARK 923 INTER-LIGAND FREE ENERGY PREDICTED BY IDOCK:   -4.33 KCAL/MOL
REMARK 924 INTRA-LIGAND FREE ENERGY PREDICTED BY IDOCK:   -0.17 KCAL/MOL
REMARK 927      BINDING AFFINITY PREDICTED BY RF-SCORE:    0.00 PKD
ROOT
HETATM    1  C   UNL     1     -13.237  14.280  72.818  1.00  0.00    -0.614 C  
HETATM    2  C   UNL     1     -12.721  13.964  71.446  1.00  0.00    -0.365 C  
HETATM    3  O   UNL     1     -11.907  14.655  70.849  1.00  0.00    -0.298 OA 
ENDROOT
BRANCH   2   4
HETATM    4  O   UNL     1     -13.353  12.812  70.976  1.00  0.00     0.033 OA 
BRANCH   4   5
HETATM    5  C   UNL     1     -12.721  11.555  71.075  1.00  0.00    -0.328 A  
HETATM    6  C   UNL     1     -13.145  10.556  71.952  1.00  0.00    -0.567 A  
HETATM    7  C   UNL     1     -12.452   9.352  71.985  1.00  0.00    -0.365 A  
HETATM    8  C   UNL     1     -11.378   9.117  71.133  1.00  0.00    -0.392 A  
HETATM    9  O   UNL     1     -12.800   8.366  72.861  1.00  0.00    -0.659 OA 
HETATM   10  H   UNL     1     -12.325   7.543  72.884  1.00  0.00     0.000 HD 
HETATM   11  C   UNL     1     -10.984  10.106  70.229  1.00  0.00    -0.380 A  
HETATM   12  C   UNL     1     -11.656  11.329  70.199  1.00  0.00    -0.393 A  
ENDBRANCH   4   5
ENDBRANCH   2   4
TORSDOF 2
ENDMDL
MODEL       53
REMARK 921   NORMALIZED FREE ENERGY PREDICTED BY IDOCK:   -3.86 KCAL/MOL
REMARK 922        TOTAL FREE ENERGY PREDICTED BY IDOCK:   -4.50 KCAL/MOL
REMARK 923 INTER-LIGAND FREE ENERGY PREDICTED BY IDOCK:   -4.44 KCAL/MOL
REMARK 924 INTRA-LIGAND FREE ENERGY PREDICTED BY IDOCK:   -0.06 KCAL/MOL
REMARK 927      BINDING AFFINITY PREDICTED BY RF-SCORE:    0.00 PKD
ROOT
HETATM    1  C   UNL     1     -13.225   9.698  71.769  1.00  0.00    -0.520 C  
HETATM    2  C   UNL     1     -12.788  11.130  71.698  1.00  0.00    -0.419 C  
HETATM    3  O   UNL     1     -13.345  12.042  72.294  1.00  0.00    -0.485 OA 
ENDROOT
BRANCH   2   4
HETATM    4  O   UNL     1     -11.706  11.233  70.823  1.00  0.00    -0.276 OA 
BRANCH   4   5
HETATM    5  C   UNL     1     -11.752  12.114  69.722  1.00  0.00    -0.310 A  
HETATM    6  C   UNL     1     -11.810  13.501  69.859  1.00  0.00    -0.386 A  
HETATM    7  C   UNL     1     -11.863  14.287  68.713  1.00  0.00    -0.341 A  
HETATM    8  C   UNL     1     -11.816  13.716  67.446  1.00  0.00    -0.429 A  
HETATM    9  O   UNL     1     -11.971  15.645  68.799  1.00  0.00    -0.503 OA 
HETATM   10  H   UNL     1     -12.007  16.181  68.016  1.00  0.00     0.000 HD 
HETATM   11  C   UNL     1     -11.717  12.328  67.317  1.00  0.00    -0.394 A  
HETATM   12  C   UNL     1     -11.685  11.524  68.458  1.00  0.00    -0.379 A  
ENDBRANCH   4   5
ENDBRANCH   2   4
TORSDOF 2
ENDMDL
MODEL       54
REMARK 921   NORMALIZED FREE ENERGY PREDICTED BY IDOCK:   -3.86 KCAL/MOL
REMARK 922        TOTAL FREE ENERGY PREDICTED BY IDOCK:   -4.50 KCAL/MOL
REMARK 923 INTER-LIGAND FREE ENERGY PREDICTED BY IDOCK:   -4.30 KCAL/MOL
REMARK 924 INTRA-LIGAND FREE ENERGY PREDICTED BY IDOCK:   -0.20 KCAL/MOL
REMARK 927      BINDING AFFINITY PREDICTED BY RF-SCORE:    0.00 PKD
ROOT
HETATM    1  C   UNL     1     -11.870  12.147  65.159  1.00  0.00    -0.356 C  
HETATM    2  C   UNL     1     -12.179  13.485  65.762  1.00  0.00    -0.461 C  
HETATM    3  O   UNL     1     -13.124  14.183  65.421  1.00  0.00    -0.743 OA 
ENDROOT
BRANCH   2   4
HETATM    4  O   UNL     1     -11.201  13.795  66.709  1.00  0.00    -0.303 OA 
BRANCH   4   5
HETATM    5  C   UNL     1     -11.540  13.940  68.070  1.00  0.00    -0.333 A  
HETATM    6  C   UNL     1     -11.663  12.859  68.944  1.00  0.00    -0.370 A  
HETATM    7  C   UNL     1     -12.011  13.102  70.268  1.00  0.00    -0.292 A  
HETATM    8  C   UNL     1     -12.193  14.398  70.737  1.00  0.00    -0.413 A  
HETATM    9  O   UNL     1     -12.192  12.073  71.145  1.00  0.00    -0.294 OA 
HETATM   10  H   UNL     1     -12.429  12.239  72.049  1.00  0.00     0.000 HD 
HETATM   11  C   UNL     1     -12.028  15.478  69.867  1.00  0.00    -0.381 A  
HETATM   12  C   UNL     1     -11.701  15.250  68.529  1.00  0.00    -0.352 A  
ENDBRANCH   4   5
ENDBRANCH   2   4
TORSDOF 2
ENDMDL
MODEL       55
REMARK 921   NORMALIZED FREE ENERGY PREDICTED BY IDOCK:   -3.85 KCAL/MOL
REMARK 922        TOTAL FREE ENERGY PREDICTED BY IDOCK:   -4.49 KCAL/MOL
REMARK 923 INTER-LIGAND FREE ENERGY PREDICTED BY IDOCK:   -4.33 KCAL/MOL
REMARK 924 INTRA-LIGAND FREE ENERGY PREDICTED BY IDOCK:   -0.16 KCAL/MOL
REMARK 927      BINDING AFFINITY PREDICTED BY RF-SCORE:    0.00 PKD
ROOT
HETATM    1  C   UNL     1     -10.426  18.303  66.500  1.00  0.00    -0.378 C  
HETATM    2  C   UNL     1     -10.583  17.211  65.485  1.00  0.00    -0.150 C  
HETATM    3  O   UNL     1     -11.262  17.315  64.473  1.00  0.00    -1.083 OA 
ENDROOT
BRANCH   2   4
HETATM    4  O   UNL     1      -9.881  16.084  65.917  1.00  0.00    -0.306 OA 
BRANCH   4   5
HETATM    5  C   UNL     1     -10.534  15.065  66.641  1.00  0.00    -0.284 A  
HETATM    6  C   UNL     1     -10.653  15.075  68.031  1.00  0.00    -0.250 A  
HETATM    7  C   UNL     1     -11.306  14.019  68.657  1.00  0.00    -0.276 A  
HETATM    8  C   UNL     1     -11.874  12.986  67.919  1.00  0.00    -0.389 A  
HETATM    9  O   UNL     1     -11.402  13.961  70.017  1.00  0.00    -0.449 OA 
HETATM   10  H   UNL     1     -11.848  13.240  70.444  1.00  0.00     0.000 HD 
HETATM   11  C   UNL     1     -11.787  13.004  66.525  1.00  0.00    -0.464 A  
HETATM   12  C   UNL     1     -11.115  14.045  65.883  1.00  0.00    -0.301 A  
ENDBRANCH   4   5
ENDBRANCH   2   4
TORSDOF 2
ENDMDL
MODEL       56
REMARK 921   NORMALIZED FREE ENERGY PREDICTED BY IDOCK:   -3.83 KCAL/MOL
REMARK 922        TOTAL FREE ENERGY PREDICTED BY IDOCK:   -4.47 KCAL/MOL
REMARK 923 INTER-LIGAND FREE ENERGY PREDICTED BY IDOCK:   -4.54 KCAL/MOL
REMARK 924 INTRA-LIGAND FREE ENERGY PREDICTED BY IDOCK:    0.08 KCAL/MOL
REMARK 927      BINDING AFFINITY PREDICTED BY RF-SCORE:    0.00 PKD
ROOT
HETATM    1  C   UNL     1     -12.335   9.716  71.849  1.00  0.00    -0.437 C  
HETATM    2  C   UNL     1     -12.156  10.882  70.925  1.00  0.00    -0.349 C  
HETATM    3  O   UNL     1     -11.241  10.978  70.119  1.00  0.00    -0.270 OA 
ENDROOT
BRANCH   2   4
HETATM    4  O   UNL     1     -13.157  11.822  71.178  1.00  0.00    -0.248 OA 
BRANCH   4   5
HETATM    5  C   UNL     1     -12.826  13.154  71.505  1.00  0.00    -0.307 A  
HETATM    6  C   UNL     1     -13.124  13.731  72.740  1.00  0.00    -0.432 A  
HETATM    7  C   UNL     1     -12.766  15.056  72.965  1.00  0.00    -0.456 A  
HETATM    8  C   UNL     1     -12.084  15.790  72.002  1.00  0.00    -0.562 A  
HETATM    9  O   UNL     1     -13.082  15.677  74.138  1.00  0.00    -0.684 OA 
HETATM   10  H   UNL     1     -12.837  16.581  74.292  1.00  0.00     0.000 HD 
HETATM   11  C   UNL     1     -11.753  15.193  70.783  1.00  0.00    -0.370 A  
HETATM   12  C   UNL     1     -12.124  13.871  70.533  1.00  0.00    -0.426 A  
ENDBRANCH   4   5
ENDBRANCH   2   4
TORSDOF 2
ENDMDL
MODEL       57
REMARK 921   NORMALIZED FREE ENERGY PREDICTED BY IDOCK:   -3.82 KCAL/MOL
REMARK 922        TOTAL FREE ENERGY PREDICTED BY IDOCK:   -4.45 KCAL/MOL
REMARK 923 INTER-LIGAND FREE ENERGY PREDICTED BY IDOCK:   -4.24 KCAL/MOL
REMARK 924 INTRA-LIGAND FREE ENERGY PREDICTED BY IDOCK:   -0.21 KCAL/MOL
REMARK 927      BINDING AFFINITY PREDICTED BY RF-SCORE:    0.00 PKD
ROOT
HETATM    1  C   UNL     1     -10.598   8.913  67.590  1.00  0.00    -0.292 C  
HETATM    2  C   UNL     1     -10.366  10.366  67.880  1.00  0.00    -0.190 C  
HETATM    3  O   UNL     1     -10.672  10.907  68.934  1.00  0.00    -0.189 OA 
ENDROOT
BRANCH   2   4
HETATM    4  O   UNL     1      -9.807  10.972  66.754  1.00  0.00    -0.189 OA 
BRANCH   4   5
HETATM    5  C   UNL     1     -10.630  11.553  65.767  1.00  0.00    -0.263 A  
HETATM    6  C   UNL     1     -11.532  12.583  66.038  1.00  0.00    -0.423 A  
HETATM    7  C   UNL     1     -12.309  13.085  65.000  1.00  0.00    -0.473 A  
HETATM    8  C   UNL     1     -12.168  12.609  63.700  1.00  0.00    -0.624 A  
HETATM    9  O   UNL     1     -13.239  14.056  65.227  1.00  0.00    -0.782 OA 
HETATM   10  H   UNL     1     -13.770  14.399  64.518  1.00  0.00     0.000 HD 
HETATM   11  C   UNL     1     -11.233  11.607  63.430  1.00  0.00    -0.401 A  
HETATM   12  C   UNL     1     -10.462  11.076  64.465  1.00  0.00    -0.411 A  
ENDBRANCH   4   5
ENDBRANCH   2   4
TORSDOF 2
ENDMDL
MODEL       58
REMARK 921   NORMALIZED FREE ENERGY PREDICTED BY IDOCK:   -3.80 KCAL/MOL
REMARK 922        TOTAL FREE ENERGY PREDICTED BY IDOCK:   -4.44 KCAL/MOL
REMARK 923 INTER-LIGAND FREE ENERGY PREDICTED BY IDOCK:   -4.42 KCAL/MOL
REMARK 924 INTRA-LIGAND FREE ENERGY PREDICTED BY IDOCK:   -0.01 KCAL/MOL
REMARK 927      BINDING AFFINITY PREDICTED BY RF-SCORE:    0.00 PKD
ROOT
HETATM    1  C   UNL     1     -10.324  10.089  66.914  1.00  0.00    -0.297 C  
HETATM    2  C   UNL     1     -11.197  10.744  67.942  1.00  0.00    -0.318 C  
HETATM    3  O   UNL     1     -12.155  11.453  67.669  1.00  0.00    -0.630 OA 
ENDROOT
BRANCH   2   4
HETATM    4  O   UNL     1     -10.704  10.448  69.214  1.00  0.00    -0.205 OA 
BRANCH   4   5
HETATM    5  C   UNL     1     -11.575  10.040  70.245  1.00  0.00    -0.280 A  
HETATM    6  C   UNL     1     -11.617   8.735  70.736  1.00  0.00    -0.288 A  
HETATM    7  C   UNL     1     -12.518   8.426  71.749  1.00  0.00    -0.335 A  
HETATM    8  C   UNL     1     -13.339   9.402  72.303  1.00  0.00    -0.539 A  
HETATM    9  O   UNL     1     -12.629   7.152  72.224  1.00  0.00    -0.504 OA 
HETATM   10  H   UNL     1     -13.245   6.941  72.916  1.00  0.00     0.000 HD 
HETATM   11  C   UNL     1     -13.262  10.716  71.835  1.00  0.00    -0.528 A  
HETATM   12  C   UNL     1     -12.379  11.037  70.803  1.00  0.00    -0.496 A  
ENDBRANCH   4   5
ENDBRANCH   2   4
TORSDOF 2
ENDMDL
MODEL       59
REMARK 921   NORMALIZED FREE ENERGY PREDICTED BY IDOCK:   -3.80 KCAL/MOL
REMARK 922        TOTAL FREE ENERGY PREDICTED BY IDOCK:   -4.43 KCAL/MOL
REMARK 923 INTER-LIGAND FREE ENERGY PREDICTED BY IDOCK:   -4.24 KCAL/MOL
REMARK 924 INTRA-LIGAND FREE ENERGY PREDICTED BY IDOCK:   -0.19 KCAL/MOL
REMARK 927      BINDING AFFINITY PREDICTED BY RF-SCORE:    0.00 PKD
ROOT
HETATM    1  C   UNL     1      -9.998   9.102  71.407  1.00  0.00    -0.373 C  
HETATM    2  C   UNL     1     -11.467   9.023  71.700  1.00  0.00    -0.361 C  
HETATM    3  O   UNL     1     -11.943   8.376  72.622  1.00  0.00    -0.396 OA 
ENDROOT
BRANCH   2   4
HETATM    4  O   UNL     1     -12.163   9.754  70.736  1.00  0.00    -0.286 OA 
BRANCH   4   5
HETATM    5  C   UNL     1     -12.423  11.128  70.925  1.00  0.00    -0.409 A  
HETATM    6  C   UNL     1     -11.956  12.117  70.059  1.00  0.00    -0.391 A  
HETATM    7  C   UNL     1     -12.256  13.447  70.335  1.00  0.00    -0.345 A  
HETATM    8  C   UNL     1     -13.044  13.795  71.427  1.00  0.00    -0.413 A  
HETATM    9  O   UNL     1     -11.779  14.451  69.545  1.00  0.00    -0.275 OA 
HETATM   10  H   UNL     1     -11.984  15.359  69.733  1.00  0.00     0.000 HD 
HETATM   11  C   UNL     1     -13.542  12.795  72.266  1.00  0.00    -0.563 A  
HETATM   12  C   UNL     1     -13.231  11.458  72.016  1.00  0.00    -0.432 A  
ENDBRANCH   4   5
ENDBRANCH   2   4
TORSDOF 2
ENDMDL
MODEL       60
REMARK 921   NORMALIZED FREE ENERGY PREDICTED BY IDOCK:   -3.80 KCAL/MOL
REMARK 922        TOTAL FREE ENERGY PREDICTED BY IDOCK:   -4.43 KCAL/MOL
REMARK 923 INTER-LIGAND FREE ENERGY PREDICTED BY IDOCK:   -4.24 KCAL/MOL
REMARK 924 INTRA-LIGAND FREE ENERGY PREDICTED BY IDOCK:   -0.18 KCAL/MOL
REMARK 927      BINDING AFFINITY PREDICTED BY RF-SCORE:    0.00 PKD
ROOT
HETATM    1  C   UNL     1     -11.634  11.416  69.576  1.00  0.00    -0.399 C  
HETATM    2  C   UNL     1     -11.143  11.194  68.176  1.00  0.00    -0.264 C  
HETATM    3  O   UNL     1     -10.039  10.741  67.906  1.00  0.00    -0.166 OA 
ENDROOT
BRANCH   2   4
HETATM    4  O   UNL     1     -12.118  11.628  67.277  1.00  0.00    -0.595 OA 
BRANCH   4   5
HETATM    5  C   UNL     1     -11.895  12.758  66.464  1.00  0.00    -0.405 A  
HETATM    6  C   UNL     1     -11.323  13.938  66.942  1.00  0.00    -0.343 A  
HETATM    7  C   UNL     1     -11.151  15.004  66.065  1.00  0.00    -0.329 A  
HETATM    8  C   UNL     1     -11.499  14.894  64.723  1.00  0.00    -0.410 A  
HETATM    9  O   UNL     1     -10.642  16.193  66.498  1.00  0.00    -0.308 OA 
HETATM   10  H   UNL     1     -10.525  16.921  65.899  1.00  0.00     0.000 HD 
HETATM   11  C   UNL     1     -12.033  13.696  64.243  1.00  0.00    -0.488 A  
HETATM   12  C   UNL     1     -12.232  12.624  65.116  1.00  0.00    -0.539 A  
ENDBRANCH   4   5
ENDBRANCH   2   4
TORSDOF 2
ENDMDL
MODEL       61
REMARK 921   NORMALIZED FREE ENERGY PREDICTED BY IDOCK:   -3.78 KCAL/MOL
REMARK 922        TOTAL FREE ENERGY PREDICTED BY IDOCK:   -4.41 KCAL/MOL
REMARK 923 INTER-LIGAND FREE ENERGY PREDICTED BY IDOCK:   -4.23 KCAL/MOL
REMARK 924 INTRA-LIGAND FREE ENERGY PREDICTED BY IDOCK:   -0.18 KCAL/MOL
REMARK 927      BINDING AFFINITY PREDICTED BY RF-SCORE:    0.00 PKD
ROOT
HETATM    1  C   UNL     1     -10.252  10.059  67.793  1.00  0.00    -0.235 C  
HETATM    2  C   UNL     1     -10.618  10.728  69.084  1.00  0.00    -0.222 C  
HETATM    3  O   UNL     1     -11.107  11.847  69.156  1.00  0.00    -0.233 OA 
ENDROOT
BRANCH   2   4
HETATM    4  O   UNL     1     -10.268   9.893  70.146  1.00  0.00    -0.254 OA 
BRANCH   4   5
HETATM    5  C   UNL     1     -11.226   9.046  70.741  1.00  0.00    -0.275 A  
HETATM    6  C   UNL     1     -12.182   9.498  71.651  1.00  0.00    -0.477 A  
HETATM    7  C   UNL     1     -13.079   8.585  72.192  1.00  0.00    -0.358 A  
HETATM    8  C   UNL     1     -13.064   7.248  71.808  1.00  0.00    -0.365 A  
HETATM    9  O   UNL     1     -13.998   8.972  73.122  1.00  0.00    -1.130 OA 
HETATM   10  H   UNL     1     -14.611   8.348  73.492  1.00  0.00     0.000 HD 
HETATM   11  C   UNL     1     -12.130   6.810  70.866  1.00  0.00    -0.421 A  
HETATM   12  C   UNL     1     -11.208   7.711  70.330  1.00  0.00    -0.258 A  
ENDBRANCH   4   5
ENDBRANCH   2   4
TORSDOF 2
ENDMDL
MODEL       62
REMARK 921   NORMALIZED FREE ENERGY PREDICTED BY IDOCK:   -3.76 KCAL/MOL
REMARK 922        TOTAL FREE ENERGY PREDICTED BY IDOCK:   -4.38 KCAL/MOL
REMARK 923 INTER-LIGAND FREE ENERGY PREDICTED BY IDOCK:   -4.22 KCAL/MOL
REMARK 924 INTRA-LIGAND FREE ENERGY PREDICTED BY IDOCK:   -0.16 KCAL/MOL
REMARK 927      BINDING AFFINITY PREDICTED BY RF-SCORE:    0.00 PKD
ROOT
HETATM    1  C   UNL     1      -5.619  18.186  69.939  1.00  0.00    -0.238 C  
HETATM    2  C   UNL     1      -6.297  19.489  69.638  1.00  0.00    -0.316 C  
HETATM    3  O   UNL     1      -6.476  20.371  70.466  1.00  0.00    -0.458 OA 
ENDROOT
BRANCH   2   4
HETATM    4  O   UNL     1      -6.713  19.489  68.305  1.00  0.00    -0.249 OA 
BRANCH   4   5
HETATM    5  C   UNL     1      -8.077  19.344  67.978  1.00  0.00    -0.310 A  
HETATM    6  C   UNL     1      -8.843  18.247  68.374  1.00  0.00    -0.321 A  
HETATM    7  C   UNL     1     -10.179  18.188  67.994  1.00  0.00    -0.380 A  
HETATM    8  C   UNL     1     -10.766  19.220  67.270  1.00  0.00    -0.594 A  
HETATM    9  O   UNL     1     -10.953  17.111  68.316  1.00  0.00    -0.352 OA 
HETATM   10  H   UNL     1     -11.865  17.072  68.056  1.00  0.00     0.000 HD 
HETATM   11  C   UNL     1     -10.004  20.334  66.912  1.00  0.00    -0.592 A  
HETATM   12  C   UNL     1      -8.656  20.397  67.266  1.00  0.00    -0.414 A  
ENDBRANCH   4   5
ENDBRANCH   2   4
TORSDOF 2
ENDMDL
MODEL       63
REMARK 921   NORMALIZED FREE ENERGY PREDICTED BY IDOCK:   -3.76 KCAL/MOL
REMARK 922        TOTAL FREE ENERGY PREDICTED BY IDOCK:   -4.38 KCAL/MOL
REMARK 923 INTER-LIGAND FREE ENERGY PREDICTED BY IDOCK:   -4.21 KCAL/MOL
REMARK 924 INTRA-LIGAND FREE ENERGY PREDICTED BY IDOCK:   -0.17 KCAL/MOL
REMARK 927      BINDING AFFINITY PREDICTED BY RF-SCORE:    0.00 PKD
ROOT
HETATM    1  C   UNL     1     -11.598  14.661  69.880  1.00  0.00    -0.333 C  
HETATM    2  C   UNL     1     -10.497  15.173  68.999  1.00  0.00    -0.248 C  
HETATM    3  O   UNL     1      -9.954  16.259  69.150  1.00  0.00    -0.235 OA 
ENDROOT
BRANCH   2   4
HETATM    4  O   UNL     1     -10.253  14.242  67.988  1.00  0.00    -0.220 OA 
BRANCH   4   5
HETATM    5  C   UNL     1     -10.958  14.304  66.768  1.00  0.00    -0.304 A  
HETATM    6  C   UNL     1     -11.880  13.335  66.372  1.00  0.00    -0.446 A  
HETATM    7  C   UNL     1     -12.519  13.477  65.146  1.00  0.00    -0.451 A  
HETATM    8  C   UNL     1     -12.286  14.585  64.338  1.00  0.00    -0.480 A  
HETATM    9  O   UNL     1     -13.390  12.529  64.695  1.00  0.00    -0.804 OA 
HETATM   10  H   UNL     1     -13.827  12.627  63.857  1.00  0.00     0.000 HD 
HETATM   11  C   UNL     1     -11.392  15.572  64.759  1.00  0.00    -0.362 A  
HETATM   12  C   UNL     1     -10.725  15.432  65.978  1.00  0.00    -0.326 A  
ENDBRANCH   4   5
ENDBRANCH   2   4
TORSDOF 2
ENDMDL
MODEL       64
REMARK 921   NORMALIZED FREE ENERGY PREDICTED BY IDOCK:   -3.75 KCAL/MOL
REMARK 922        TOTAL FREE ENERGY PREDICTED BY IDOCK:   -4.38 KCAL/MOL
REMARK 923 INTER-LIGAND FREE ENERGY PREDICTED BY IDOCK:   -4.17 KCAL/MOL
REMARK 924 INTRA-LIGAND FREE ENERGY PREDICTED BY IDOCK:   -0.21 KCAL/MOL
REMARK 927      BINDING AFFINITY PREDICTED BY RF-SCORE:    0.00 PKD
ROOT
HETATM    1  C   UNL     1     -10.847   5.184  72.316  1.00  0.00    -0.241 C  
HETATM    2  C   UNL     1     -10.974   6.215  71.235  1.00  0.00    -0.282 C  
HETATM    3  O   UNL     1     -11.357   5.968  70.100  1.00  0.00    -0.372 OA 
ENDROOT
BRANCH   2   4
HETATM    4  O   UNL     1     -10.545   7.448  71.730  1.00  0.00    -0.202 OA 
BRANCH   4   5
HETATM    5  C   UNL     1     -11.384   8.580  71.662  1.00  0.00    -0.295 A  
HETATM    6  C   UNL     1     -11.055   9.729  70.943  1.00  0.00    -0.428 A  
HETATM    7  C   UNL     1     -11.943  10.800  70.944  1.00  0.00    -0.333 A  
HETATM    8  C   UNL     1     -13.161  10.723  71.611  1.00  0.00    -0.551 A  
HETATM    9  O   UNL     1     -11.641  11.961  70.295  1.00  0.00    -0.504 OA 
HETATM   10  H   UNL     1     -12.248  12.692  70.297  1.00  0.00     0.000 HD 
HETATM   11  C   UNL     1     -13.501   9.554  72.296  1.00  0.00    -0.521 A  
HETATM   12  C   UNL     1     -12.611   8.479  72.323  1.00  0.00    -0.438 A  
ENDBRANCH   4   5
ENDBRANCH   2   4
TORSDOF 2
ENDMDL
MODEL       65
REMARK 921   NORMALIZED FREE ENERGY PREDICTED BY IDOCK:   -3.75 KCAL/MOL
REMARK 922        TOTAL FREE ENERGY PREDICTED BY IDOCK:   -4.37 KCAL/MOL
REMARK 923 INTER-LIGAND FREE ENERGY PREDICTED BY IDOCK:   -4.17 KCAL/MOL
REMARK 924 INTRA-LIGAND FREE ENERGY PREDICTED BY IDOCK:   -0.21 KCAL/MOL
REMARK 927      BINDING AFFINITY PREDICTED BY RF-SCORE:    0.00 PKD
ROOT
HETATM    1  C   UNL     1     -10.152  14.547  65.567  1.00  0.00    -0.394 C  
HETATM    2  C   UNL     1     -10.672  15.234  66.795  1.00  0.00    -0.313 C  
HETATM    3  O   UNL     1     -11.824  15.135  67.193  1.00  0.00    -0.233 OA 
ENDROOT
BRANCH   2   4
HETATM    4  O   UNL     1      -9.653  16.012  67.347  1.00  0.00    -0.223 OA 
BRANCH   4   5
HETATM    5  C   UNL     1      -9.798  17.411  67.458  1.00  0.00    -0.277 A  
HETATM    6  C   UNL     1     -10.018  18.060  68.673  1.00  0.00    -0.396 A  
HETATM    7  C   UNL     1     -10.157  19.443  68.681  1.00  0.00    -0.428 A  
HETATM    8  C   UNL     1     -10.038  20.184  67.510  1.00  0.00    -0.549 A  
HETATM    9  O   UNL     1     -10.423  20.115  69.838  1.00  0.00    -0.627 OA 
HETATM   10  H   UNL     1     -10.519  21.060  69.842  1.00  0.00     0.000 HD 
HETATM   11  C   UNL     1      -9.777  19.531  66.303  1.00  0.00    -0.481 A  
HETATM   12  C   UNL     1      -9.657  18.141  66.275  1.00  0.00    -0.246 A  
ENDBRANCH   4   5
ENDBRANCH   2   4
TORSDOF 2
ENDMDL
MODEL       66
REMARK 921   NORMALIZED FREE ENERGY PREDICTED BY IDOCK:   -3.74 KCAL/MOL
REMARK 922        TOTAL FREE ENERGY PREDICTED BY IDOCK:   -4.37 KCAL/MOL
REMARK 923 INTER-LIGAND FREE ENERGY PREDICTED BY IDOCK:   -4.27 KCAL/MOL
REMARK 924 INTRA-LIGAND FREE ENERGY PREDICTED BY IDOCK:   -0.09 KCAL/MOL
REMARK 927      BINDING AFFINITY PREDICTED BY RF-SCORE:    0.00 PKD
ROOT
HETATM    1  C   UNL     1      -9.640  14.177  67.926  1.00  0.00    -0.223 C  
HETATM    2  C   UNL     1     -11.029  13.620  67.836  1.00  0.00    -0.259 C  
HETATM    3  O   UNL     1     -11.870  14.013  67.039  1.00  0.00    -0.383 OA 
ENDROOT
BRANCH   2   4
HETATM    4  O   UNL     1     -11.193  12.645  68.821  1.00  0.00    -0.247 OA 
BRANCH   4   5
HETATM    5  C   UNL     1     -11.991  12.898  69.957  1.00  0.00    -0.309 A  
HETATM    6  C   UNL     1     -12.491  14.162  70.269  1.00  0.00    -0.416 A  
HETATM    7  C   UNL     1     -13.261  14.315  71.417  1.00  0.00    -0.349 A  
HETATM    8  C   UNL     1     -13.571  13.226  72.225  1.00  0.00    -0.703 A  
HETATM    9  O   UNL     1     -13.730  15.541  71.789  1.00  0.00    -0.476 OA 
HETATM   10  H   UNL     1     -14.255  15.645  72.573  1.00  0.00     0.000 HD 
HETATM   11  C   UNL     1     -13.100  11.956  71.883  1.00  0.00    -0.474 A  
HETATM   12  C   UNL     1     -12.308  11.790  70.747  1.00  0.00    -0.433 A  
ENDBRANCH   4   5
ENDBRANCH   2   4
TORSDOF 2
ENDMDL
MODEL       67
REMARK 921   NORMALIZED FREE ENERGY PREDICTED BY IDOCK:   -3.73 KCAL/MOL
REMARK 922        TOTAL FREE ENERGY PREDICTED BY IDOCK:   -4.35 KCAL/MOL
REMARK 923 INTER-LIGAND FREE ENERGY PREDICTED BY IDOCK:   -4.15 KCAL/MOL
REMARK 924 INTRA-LIGAND FREE ENERGY PREDICTED BY IDOCK:   -0.20 KCAL/MOL
REMARK 927      BINDING AFFINITY PREDICTED BY RF-SCORE:    0.00 PKD
ROOT
HETATM    1  C   UNL     1     -10.694   5.326  72.207  1.00  0.00    -0.282 C  
HETATM    2  C   UNL     1     -11.083   6.669  72.748  1.00  0.00    -0.249 C  
HETATM    3  O   UNL     1     -10.577   7.175  73.741  1.00  0.00    -0.377 OA 
ENDROOT
BRANCH   2   4
HETATM    4  O   UNL     1     -12.119   7.189  71.972  1.00  0.00    -0.299 OA 
BRANCH   4   5
HETATM    5  C   UNL     1     -12.127   8.551  71.604  1.00  0.00    -0.321 A  
HETATM    6  C   UNL     1     -11.197   9.107  70.725  1.00  0.00    -0.336 A  
HETATM    7  C   UNL     1     -11.280  10.464  70.430  1.00  0.00    -0.321 A  
HETATM    8  C   UNL     1     -12.294  11.254  70.961  1.00  0.00    -0.472 A  
HETATM    9  O   UNL     1     -10.363  11.061  69.616  1.00  0.00    -0.431 OA 
HETATM   10  H   UNL     1     -10.420  11.988  69.414  1.00  0.00     0.000 HD 
HETATM   11  C   UNL     1     -13.245  10.682  71.808  1.00  0.00    -0.526 A  
HETATM   12  C   UNL     1     -13.163   9.326  72.131  1.00  0.00    -0.535 A  
ENDBRANCH   4   5
ENDBRANCH   2   4
TORSDOF 2
ENDMDL
MODEL       68
REMARK 921   NORMALIZED FREE ENERGY PREDICTED BY IDOCK:   -3.71 KCAL/MOL
REMARK 922        TOTAL FREE ENERGY PREDICTED BY IDOCK:   -4.33 KCAL/MOL
REMARK 923 INTER-LIGAND FREE ENERGY PREDICTED BY IDOCK:   -4.26 KCAL/MOL
REMARK 924 INTRA-LIGAND FREE ENERGY PREDICTED BY IDOCK:   -0.07 KCAL/MOL
REMARK 927      BINDING AFFINITY PREDICTED BY RF-SCORE:    0.00 PKD
ROOT
HETATM    1  C   UNL     1     -10.406  19.722  66.020  1.00  0.00    -0.612 C  
HETATM    2  C   UNL     1     -10.537  18.304  66.488  1.00  0.00    -0.288 C  
HETATM    3  O   UNL     1     -10.851  17.989  67.628  1.00  0.00    -0.390 OA 
ENDROOT
BRANCH   2   4
HETATM    4  O   UNL     1     -10.199  17.446  65.440  1.00  0.00    -0.603 OA 
BRANCH   4   5
HETATM    5  C   UNL     1     -10.296  16.047  65.597  1.00  0.00    -0.392 A  
HETATM    6  C   UNL     1     -11.305  15.283  65.010  1.00  0.00    -0.359 A  
HETATM    7  C   UNL     1     -11.323  13.911  65.230  1.00  0.00    -0.314 A  
HETATM    8  C   UNL     1     -10.333  13.291  65.986  1.00  0.00    -0.290 A  
HETATM    9  O   UNL     1     -12.318  13.131  64.717  1.00  0.00    -0.400 OA 
HETATM   10  H   UNL     1     -12.330  12.193  64.869  1.00  0.00     0.000 HD 
HETATM   11  C   UNL     1      -9.303  14.057  66.537  1.00  0.00    -0.274 A  
HETATM   12  C   UNL     1      -9.284  15.439  66.343  1.00  0.00    -0.339 A  
ENDBRANCH   4   5
ENDBRANCH   2   4
TORSDOF 2
ENDMDL
MODEL       69
REMARK 921   NORMALIZED FREE ENERGY PREDICTED BY IDOCK:   -3.71 KCAL/MOL
REMARK 922        TOTAL FREE ENERGY PREDICTED BY IDOCK:   -4.33 KCAL/MOL
REMARK 923 INTER-LIGAND FREE ENERGY PREDICTED BY IDOCK:   -4.15 KCAL/MOL
REMARK 924 INTRA-LIGAND FREE ENERGY PREDICTED BY IDOCK:   -0.18 KCAL/MOL
REMARK 927      BINDING AFFINITY PREDICTED BY RF-SCORE:    0.00 PKD
ROOT
HETATM    1  C   UNL     1     -10.183  10.151  66.750  1.00  0.00    -0.289 C  
HETATM    2  C   UNL     1     -11.109  10.947  67.621  1.00  0.00    -0.313 C  
HETATM    3  O   UNL     1     -12.101  11.531  67.205  1.00  0.00    -0.548 OA 
ENDROOT
BRANCH   2   4
HETATM    4  O   UNL     1     -10.622  10.940  68.929  1.00  0.00    -0.188 OA 
BRANCH   4   5
HETATM    5  C   UNL     1     -11.491  10.719  70.018  1.00  0.00    -0.331 A  
HETATM    6  C   UNL     1     -12.181  11.747  70.662  1.00  0.00    -0.443 A  
HETATM    7  C   UNL     1     -13.008  11.431  71.734  1.00  0.00    -0.414 A  
HETATM    8  C   UNL     1     -13.189  10.113  72.139  1.00  0.00    -0.463 A  
HETATM    9  O   UNL     1     -13.663  12.408  72.426  1.00  0.00    -0.571 OA 
HETATM   10  H   UNL     1     -14.228  12.192  73.158  1.00  0.00     0.000 HD 
HETATM   11  C   UNL     1     -12.526   9.085  71.463  1.00  0.00    -0.395 A  
HETATM   12  C   UNL     1     -11.675   9.388  70.400  1.00  0.00    -0.195 A  
ENDBRANCH   4   5
ENDBRANCH   2   4
TORSDOF 2
ENDMDL
MODEL       70
REMARK 921   NORMALIZED FREE ENERGY PREDICTED BY IDOCK:   -3.69 KCAL/MOL
REMARK 922        TOTAL FREE ENERGY PREDICTED BY IDOCK:   -4.30 KCAL/MOL
REMARK 923 INTER-LIGAND FREE ENERGY PREDICTED BY IDOCK:   -4.16 KCAL/MOL
REMARK 924 INTRA-LIGAND FREE ENERGY PREDICTED BY IDOCK:   -0.15 KCAL/MOL
REMARK 927      BINDING AFFINITY PREDICTED BY RF-SCORE:    0.00 PKD
ROOT
HETATM    1  C   UNL     1     -10.439  14.132  65.069  1.00  0.00    -0.447 C  
HETATM    2  C   UNL     1     -11.058  14.612  66.348  1.00  0.00    -0.334 C  
HETATM    3  O   UNL     1     -12.234  14.444  66.640  1.00  0.00    -0.424 OA 
ENDROOT
BRANCH   2   4
HETATM    4  O   UNL     1     -10.096  15.301  67.088  1.00  0.00    -0.236 OA 
BRANCH   4   5
HETATM    5  C   UNL     1     -10.141  16.707  67.193  1.00  0.00    -0.276 A  
HETATM    6  C   UNL     1     -10.396  17.544  66.106  1.00  0.00    -0.330 A  
HETATM    7  C   UNL     1     -10.410  18.920  66.307  1.00  0.00    -0.453 A  
HETATM    8  C   UNL     1     -10.220  19.464  67.573  1.00  0.00    -0.536 A  
HETATM    9  O   UNL     1     -10.605  19.778  65.265  1.00  0.00    -0.368 OA 
HETATM   10  H   UNL     1     -10.615  20.718  65.402  1.00  0.00     0.000 HD 
HETATM   11  C   UNL     1     -10.007  18.618  68.663  1.00  0.00    -0.431 A  
HETATM   12  C   UNL     1      -9.967  17.235  68.475  1.00  0.00    -0.320 A  
ENDBRANCH   4   5
ENDBRANCH   2   4
TORSDOF 2
ENDMDL
MODEL       71
REMARK 921   NORMALIZED FREE ENERGY PREDICTED BY IDOCK:   -3.67 KCAL/MOL
REMARK 922        TOTAL FREE ENERGY PREDICTED BY IDOCK:   -4.29 KCAL/MOL
REMARK 923 INTER-LIGAND FREE ENERGY PREDICTED BY IDOCK:   -4.09 KCAL/MOL
REMARK 924 INTRA-LIGAND FREE ENERGY PREDICTED BY IDOCK:   -0.19 KCAL/MOL
REMARK 927      BINDING AFFINITY PREDICTED BY RF-SCORE:    0.00 PKD
ROOT
HETATM    1  C   UNL     1     -11.871  13.069  69.610  1.00  0.00    -0.385 C  
HETATM    2  C   UNL     1     -11.916  11.590  69.368  1.00  0.00    -0.325 C  
HETATM    3  O   UNL     1     -12.344  11.081  68.341  1.00  0.00    -0.528 OA 
ENDROOT
BRANCH   2   4
HETATM    4  O   UNL     1     -11.446  10.928  70.504  1.00  0.00    -0.312 OA 
BRANCH   4   5
HETATM    5  C   UNL     1     -12.032   9.715  70.922  1.00  0.00    -0.309 A  
HETATM    6  C   UNL     1     -11.360   8.493  70.887  1.00  0.00    -0.304 A  
HETATM    7  C   UNL     1     -12.025   7.348  71.312  1.00  0.00    -0.313 A  
HETATM    8  C   UNL     1     -13.323   7.413  71.807  1.00  0.00    -0.373 A  
HETATM    9  O   UNL     1     -11.425   6.125  71.249  1.00  0.00    -0.294 OA 
HETATM   10  H   UNL     1     -11.880   5.343  71.539  1.00  0.00     0.000 HD 
HETATM   11  C   UNL     1     -13.975   8.646  71.877  1.00  0.00    -0.501 A  
HETATM   12  C   UNL     1     -13.329   9.801  71.434  1.00  0.00    -0.449 A  
ENDBRANCH   4   5
ENDBRANCH   2   4
TORSDOF 2
ENDMDL
MODEL       72
REMARK 921   NORMALIZED FREE ENERGY PREDICTED BY IDOCK:   -3.63 KCAL/MOL
REMARK 922        TOTAL FREE ENERGY PREDICTED BY IDOCK:   -4.24 KCAL/MOL
REMARK 923 INTER-LIGAND FREE ENERGY PREDICTED BY IDOCK:   -4.17 KCAL/MOL
REMARK 924 INTRA-LIGAND FREE ENERGY PREDICTED BY IDOCK:   -0.08 KCAL/MOL
REMARK 927      BINDING AFFINITY PREDICTED BY RF-SCORE:    0.00 PKD
ROOT
HETATM    1  C   UNL     1     -12.426  12.258  70.767  1.00  0.00    -0.356 C  
HETATM    2  C   UNL     1     -12.375  11.043  69.890  1.00  0.00    -0.288 C  
HETATM    3  O   UNL     1     -12.173  11.082  68.684  1.00  0.00    -0.571 OA 
ENDROOT
BRANCH   2   4
HETATM    4  O   UNL     1     -12.640   9.912  70.663  1.00  0.00    -0.260 OA 
BRANCH   4   5
HETATM    5  C   UNL     1     -11.599   9.250  71.348  1.00  0.00    -0.367 A  
HETATM    6  C   UNL     1     -11.820   8.415  72.444  1.00  0.00    -0.452 A  
HETATM    7  C   UNL     1     -10.728   7.813  73.060  1.00  0.00    -0.384 A  
HETATM    8  C   UNL     1      -9.438   7.998  72.576  1.00  0.00    -0.297 A  
HETATM    9  O   UNL     1     -10.891   7.029  74.165  1.00  0.00    -0.484 OA 
HETATM   10  H   UNL     1     -10.145   6.619  74.585  1.00  0.00     0.000 HD 
HETATM   11  C   UNL     1      -9.229   8.804  71.454  1.00  0.00    -0.325 A  
HETATM   12  C   UNL     1     -10.312   9.432  70.838  1.00  0.00    -0.380 A  
ENDBRANCH   4   5
ENDBRANCH   2   4
TORSDOF 2
ENDMDL
MODEL       73
REMARK 921   NORMALIZED FREE ENERGY PREDICTED BY IDOCK:   -3.62 KCAL/MOL
REMARK 922        TOTAL FREE ENERGY PREDICTED BY IDOCK:   -4.23 KCAL/MOL
REMARK 923 INTER-LIGAND FREE ENERGY PREDICTED BY IDOCK:   -4.02 KCAL/MOL
REMARK 924 INTRA-LIGAND FREE ENERGY PREDICTED BY IDOCK:   -0.21 KCAL/MOL
REMARK 927      BINDING AFFINITY PREDICTED BY RF-SCORE:    0.00 PKD
ROOT
HETATM    1  C   UNL     1      -9.028   6.777  69.600  1.00  0.00    -0.143 C  
HETATM    2  C   UNL     1     -10.470   6.708  70.004  1.00  0.00    -0.212 C  
HETATM    3  O   UNL     1     -11.347   6.206  69.315  1.00  0.00    -0.416 OA 
ENDROOT
BRANCH   2   4
HETATM    4  O   UNL     1     -10.628   7.342  71.238  1.00  0.00    -0.219 OA 
BRANCH   4   5
HETATM    5  C   UNL     1     -11.431   8.495  71.356  1.00  0.00    -0.287 A  
HETATM    6  C   UNL     1     -11.114   9.709  70.747  1.00  0.00    -0.403 A  
HETATM    7  C   UNL     1     -11.964  10.795  70.929  1.00  0.00    -0.333 A  
HETATM    8  C   UNL     1     -13.135  10.674  71.669  1.00  0.00    -0.555 A  
HETATM    9  O   UNL     1     -11.668  12.014  70.394  1.00  0.00    -0.506 OA 
HETATM   10  H   UNL     1     -12.249  12.755  70.520  1.00  0.00     0.000 HD 
HETATM   11  C   UNL     1     -13.467   9.444  72.242  1.00  0.00    -0.539 A  
HETATM   12  C   UNL     1     -12.613   8.351  72.086  1.00  0.00    -0.412 A  
ENDBRANCH   4   5
ENDBRANCH   2   4
TORSDOF 2
ENDMDL
MODEL       74
REMARK 921   NORMALIZED FREE ENERGY PREDICTED BY IDOCK:   -3.62 KCAL/MOL
REMARK 922        TOTAL FREE ENERGY PREDICTED BY IDOCK:   -4.23 KCAL/MOL
REMARK 923 INTER-LIGAND FREE ENERGY PREDICTED BY IDOCK:   -4.23 KCAL/MOL
REMARK 924 INTRA-LIGAND FREE ENERGY PREDICTED BY IDOCK:    0.00 KCAL/MOL
REMARK 927      BINDING AFFINITY PREDICTED BY RF-SCORE:    0.00 PKD
ROOT
HETATM    1  C   UNL     1     -10.481  14.331  65.389  1.00  0.00    -0.382 C  
HETATM    2  C   UNL     1     -11.815  14.029  66.003  1.00  0.00    -0.388 C  
HETATM    3  O   UNL     1     -12.727  13.472  65.408  1.00  0.00    -0.540 OA 
ENDROOT
BRANCH   2   4
HETATM    4  O   UNL     1     -11.838  14.523  67.308  1.00  0.00    -0.394 OA 
BRANCH   4   5
HETATM    5  C   UNL     1     -11.986  13.649  68.405  1.00  0.00    -0.356 A  
HETATM    6  C   UNL     1     -12.398  14.075  69.668  1.00  0.00    -0.309 A  
HETATM    7  C   UNL     1     -12.506  13.140  70.691  1.00  0.00    -0.286 A  
HETATM    8  C   UNL     1     -12.251  11.792  70.462  1.00  0.00    -0.438 A  
HETATM    9  O   UNL     1     -12.857  13.518  71.954  1.00  0.00    -0.319 OA 
HETATM   10  H   UNL     1     -12.930  12.879  72.652  1.00  0.00     0.000 HD 
HETATM   11  C   UNL     1     -11.878  11.366  69.185  1.00  0.00    -0.413 A  
HETATM   12  C   UNL     1     -11.745  12.296  68.153  1.00  0.00    -0.408 A  
ENDBRANCH   4   5
ENDBRANCH   2   4
TORSDOF 2
ENDMDL
MODEL       75
REMARK 921   NORMALIZED FREE ENERGY PREDICTED BY IDOCK:   -3.61 KCAL/MOL
REMARK 922        TOTAL FREE ENERGY PREDICTED BY IDOCK:   -4.22 KCAL/MOL
REMARK 923 INTER-LIGAND FREE ENERGY PREDICTED BY IDOCK:   -3.98 KCAL/MOL
REMARK 924 INTRA-LIGAND FREE ENERGY PREDICTED BY IDOCK:   -0.23 KCAL/MOL
REMARK 927      BINDING AFFINITY PREDICTED BY RF-SCORE:    0.00 PKD
ROOT
HETATM    1  C   UNL     1     -12.812   7.125  71.503  1.00  0.00    -0.434 C  
HETATM    2  C   UNL     1     -13.130   8.496  72.022  1.00  0.00    -0.371 C  
HETATM    3  O   UNL     1     -14.257   8.867  72.317  1.00  0.00    -0.447 OA 
ENDROOT
BRANCH   2   4
HETATM    4  O   UNL     1     -11.958   9.253  72.056  1.00  0.00    -0.364 OA 
BRANCH   4   5
HETATM    5  C   UNL     1     -11.409   9.782  70.869  1.00  0.00    -0.365 A  
HETATM    6  C   UNL     1     -12.112  10.638  70.021  1.00  0.00    -0.393 A  
HETATM    7  C   UNL     1     -11.489  11.101  68.867  1.00  0.00    -0.295 A  
HETATM    8  C   UNL     1     -10.173  10.760  68.574  1.00  0.00    -0.192 A  
HETATM    9  O   UNL     1     -12.155  11.898  67.983  1.00  0.00    -0.541 OA 
HETATM   10  H   UNL     1     -11.729  12.214  67.195  1.00  0.00     0.000 HD 
HETATM   11  C   UNL     1      -9.462   9.936  69.450  1.00  0.00    -0.226 A  
HETATM   12  C   UNL     1     -10.080   9.445  70.601  1.00  0.00    -0.356 A  
ENDBRANCH   4   5
ENDBRANCH   2   4
TORSDOF 2
ENDMDL
MODEL       76
REMARK 921   NORMALIZED FREE ENERGY PREDICTED BY IDOCK:   -3.60 KCAL/MOL
REMARK 922        TOTAL FREE ENERGY PREDICTED BY IDOCK:   -4.21 KCAL/MOL
REMARK 923 INTER-LIGAND FREE ENERGY PREDICTED BY IDOCK:   -4.12 KCAL/MOL
REMARK 924 INTRA-LIGAND FREE ENERGY PREDICTED BY IDOCK:   -0.09 KCAL/MOL
REMARK 927      BINDING AFFINITY PREDICTED BY RF-SCORE:    0.00 PKD
ROOT
HETATM    1  C   UNL     1     -10.712  19.068  67.239  1.00  0.00    -0.556 C  
HETATM    2  C   UNL     1      -9.979  18.064  68.078  1.00  0.00    -0.343 C  
HETATM    3  O   UNL     1      -8.773  18.093  68.277  1.00  0.00    -0.270 OA 
ENDROOT
BRANCH   2   4
HETATM    4  O   UNL     1     -10.884  17.102  68.530  1.00  0.00    -0.349 OA 
BRANCH   4   5
HETATM    5  C   UNL     1     -10.999  15.858  67.874  1.00  0.00    -0.327 A  
HETATM    6  C   UNL     1     -10.444  15.606  66.619  1.00  0.00    -0.301 A  
HETATM    7  C   UNL     1     -10.619  14.350  66.048  1.00  0.00    -0.302 A  
HETATM    8  C   UNL     1     -11.295  13.341  66.725  1.00  0.00    -0.359 A  
HETATM    9  O   UNL     1     -10.138  14.073  64.802  1.00  0.00    -0.572 OA 
HETATM   10  H   UNL     1     -10.258  13.216  64.413  1.00  0.00     0.000 HD 
HETATM   11  C   UNL     1     -11.813  13.589  67.999  1.00  0.00    -0.400 A  
HETATM   12  C   UNL     1     -11.665  14.851  68.576  1.00  0.00    -0.338 A  
ENDBRANCH   4   5
ENDBRANCH   2   4
TORSDOF 2
ENDMDL
MODEL       77
REMARK 921   NORMALIZED FREE ENERGY PREDICTED BY IDOCK:   -3.56 KCAL/MOL
REMARK 922        TOTAL FREE ENERGY PREDICTED BY IDOCK:   -4.16 KCAL/MOL
REMARK 923 INTER-LIGAND FREE ENERGY PREDICTED BY IDOCK:   -4.16 KCAL/MOL
REMARK 924 INTRA-LIGAND FREE ENERGY PREDICTED BY IDOCK:    0.00 KCAL/MOL
REMARK 927      BINDING AFFINITY PREDICTED BY RF-SCORE:    0.00 PKD
ROOT
HETATM    1  C   UNL     1      -8.096  19.319  68.578  1.00  0.00    -0.401 C  
HETATM    2  C   UNL     1      -9.556  19.393  68.245  1.00  0.00    -0.378 C  
HETATM    3  O   UNL     1     -10.058  20.293  67.585  1.00  0.00    -0.404 OA 
ENDROOT
BRANCH   2   4
HETATM    4  O   UNL     1     -10.215  18.318  68.843  1.00  0.00    -0.386 OA 
BRANCH   4   5
HETATM    5  C   UNL     1     -10.566  17.180  68.087  1.00  0.00    -0.380 A  
HETATM    6  C   UNL     1     -11.357  16.147  68.590  1.00  0.00    -0.365 A  
HETATM    7  C   UNL     1     -11.641  15.059  67.772  1.00  0.00    -0.319 A  
HETATM    8  C   UNL     1     -11.188  15.010  66.458  1.00  0.00    -0.312 A  
HETATM    9  O   UNL     1     -12.369  14.003  68.237  1.00  0.00    -0.537 OA 
HETATM   10  H   UNL     1     -12.563  13.260  67.677  1.00  0.00     0.000 HD 
HETATM   11  C   UNL     1     -10.430  16.067  65.949  1.00  0.00    -0.373 A  
HETATM   12  C   UNL     1     -10.117  17.156  66.765  1.00  0.00    -0.303 A  
ENDBRANCH   4   5
ENDBRANCH   2   4
TORSDOF 2
ENDMDL
MODEL       78
REMARK 921   NORMALIZED FREE ENERGY PREDICTED BY IDOCK:   -3.55 KCAL/MOL
REMARK 922        TOTAL FREE ENERGY PREDICTED BY IDOCK:   -4.15 KCAL/MOL
REMARK 923 INTER-LIGAND FREE ENERGY PREDICTED BY IDOCK:   -3.93 KCAL/MOL
REMARK 924 INTRA-LIGAND FREE ENERGY PREDICTED BY IDOCK:   -0.22 KCAL/MOL
REMARK 927      BINDING AFFINITY PREDICTED BY RF-SCORE:    0.00 PKD
ROOT
HETATM    1  C   UNL     1      -9.542   7.098  73.445  1.00  0.00    -0.249 C  
HETATM    2  C   UNL     1      -9.776   6.504  72.088  1.00  0.00    -0.151 C  
HETATM    3  O   UNL     1      -9.481   5.356  71.787  1.00  0.00    -0.145 OA 
ENDROOT
BRANCH   2   4
HETATM    4  O   UNL     1     -10.325   7.480  71.254  1.00  0.00    -0.193 OA 
BRANCH   4   5
HETATM    5  C   UNL     1     -11.617   7.990  71.497  1.00  0.00    -0.275 A  
HETATM    6  C   UNL     1     -11.865   9.333  71.782  1.00  0.00    -0.454 A  
HETATM    7  C   UNL     1     -13.173   9.739  72.018  1.00  0.00    -0.460 A  
HETATM    8  C   UNL     1     -14.232   8.841  71.931  1.00  0.00    -0.467 A  
HETATM    9  O   UNL     1     -13.457  11.032  72.350  1.00  0.00    -0.591 OA 
HETATM   10  H   UNL     1     -14.351  11.309  72.511  1.00  0.00     0.000 HD 
HETATM   11  C   UNL     1     -13.981   7.506  71.605  1.00  0.00    -0.523 A  
HETATM   12  C   UNL     1     -12.670   7.078  71.387  1.00  0.00    -0.421 A  
ENDBRANCH   4   5
ENDBRANCH   2   4
TORSDOF 2
ENDMDL
MODEL       79
REMARK 921   NORMALIZED FREE ENERGY PREDICTED BY IDOCK:   -3.55 KCAL/MOL
REMARK 922        TOTAL FREE ENERGY PREDICTED BY IDOCK:   -4.15 KCAL/MOL
REMARK 923 INTER-LIGAND FREE ENERGY PREDICTED BY IDOCK:   -3.99 KCAL/MOL
REMARK 924 INTRA-LIGAND FREE ENERGY PREDICTED BY IDOCK:   -0.15 KCAL/MOL
REMARK 927      BINDING AFFINITY PREDICTED BY RF-SCORE:    0.00 PKD
ROOT
HETATM    1  C   UNL     1      -9.842  14.808  67.907  1.00  0.00    -0.212 C  
HETATM    2  C   UNL     1     -10.397  15.772  68.912  1.00  0.00    -0.224 C  
HETATM    3  O   UNL     1     -10.373  15.585  70.120  1.00  0.00    -0.304 OA 
ENDROOT
BRANCH   2   4
HETATM    4  O   UNL     1     -10.968  16.854  68.239  1.00  0.00    -0.364 OA 
BRANCH   4   5
HETATM    5  C   UNL     1     -10.209  18.011  67.965  1.00  0.00    -0.382 A  
HETATM    6  C   UNL     1      -9.004  18.301  68.606  1.00  0.00    -0.303 A  
HETATM    7  C   UNL     1      -8.333  19.473  68.276  1.00  0.00    -0.340 A  
HETATM    8  C   UNL     1      -8.819  20.328  67.293  1.00  0.00    -0.454 A  
HETATM    9  O   UNL     1      -7.178  19.822  68.913  1.00  0.00    -0.334 OA 
HETATM   10  H   UNL     1      -6.719  20.623  68.687  1.00  0.00     0.000 HD 
HETATM   11  C   UNL     1     -10.005  20.010  66.626  1.00  0.00    -0.598 A  
HETATM   12  C   UNL     1     -10.703  18.849  66.962  1.00  0.00    -0.477 A  
ENDBRANCH   4   5
ENDBRANCH   2   4
TORSDOF 2
ENDMDL
MODEL       80
REMARK 921   NORMALIZED FREE ENERGY PREDICTED BY IDOCK:   -3.54 KCAL/MOL
REMARK 922        TOTAL FREE ENERGY PREDICTED BY IDOCK:   -4.14 KCAL/MOL
REMARK 923 INTER-LIGAND FREE ENERGY PREDICTED BY IDOCK:   -3.99 KCAL/MOL
REMARK 924 INTRA-LIGAND FREE ENERGY PREDICTED BY IDOCK:   -0.15 KCAL/MOL
REMARK 927      BINDING AFFINITY PREDICTED BY RF-SCORE:    0.00 PKD
ROOT
HETATM    1  C   UNL     1     -10.086  16.800  67.054  1.00  0.00    -0.276 C  
HETATM    2  C   UNL     1     -10.476  17.975  66.207  1.00  0.00    -0.335 C  
HETATM    3  O   UNL     1     -10.911  17.879  65.068  1.00  0.00    -0.776 OA 
ENDROOT
BRANCH   2   4
HETATM    4  O   UNL     1     -10.216  19.151  66.913  1.00  0.00    -0.342 OA 
BRANCH   4   5
HETATM    5  C   UNL     1      -8.893  19.511  67.247  1.00  0.00    -0.303 A  
HETATM    6  C   UNL     1      -8.393  19.452  68.548  1.00  0.00    -0.399 A  
HETATM    7  C   UNL     1      -7.078  19.837  68.780  1.00  0.00    -0.330 A  
HETATM    8  C   UNL     1      -6.250  20.234  67.735  1.00  0.00    -0.269 A  
HETATM    9  O   UNL     1      -6.562  19.843  70.043  1.00  0.00    -0.351 OA 
HETATM   10  H   UNL     1      -5.663  20.106  70.201  1.00  0.00     0.000 HD 
HETATM   11  C   UNL     1      -6.746  20.252  66.429  1.00  0.00    -0.261 A  
HETATM   12  C   UNL     1      -8.071  19.890  66.183  1.00  0.00    -0.347 A  
ENDBRANCH   4   5
ENDBRANCH   2   4
TORSDOF 2
ENDMDL
MODEL       81
REMARK 921   NORMALIZED FREE ENERGY PREDICTED BY IDOCK:   -3.53 KCAL/MOL
REMARK 922        TOTAL FREE ENERGY PREDICTED BY IDOCK:   -4.13 KCAL/MOL
REMARK 923 INTER-LIGAND FREE ENERGY PREDICTED BY IDOCK:   -4.01 KCAL/MOL
REMARK 924 INTRA-LIGAND FREE ENERGY PREDICTED BY IDOCK:   -0.11 KCAL/MOL
REMARK 927      BINDING AFFINITY PREDICTED BY RF-SCORE:    0.00 PKD
ROOT
HETATM    1  C   UNL     1     -10.487  13.278  64.949  1.00  0.00    -0.387 C  
HETATM    2  C   UNL     1     -11.548  12.308  65.376  1.00  0.00    -0.363 C  
HETATM    3  O   UNL     1     -12.745  12.486  65.198  1.00  0.00    -0.659 OA 
ENDROOT
BRANCH   2   4
HETATM    4  O   UNL     1     -10.944  11.232  66.030  1.00  0.00    -0.257 OA 
BRANCH   4   5
HETATM    5  C   UNL     1     -11.108  11.053  67.419  1.00  0.00    -0.305 A  
HETATM    6  C   UNL     1     -11.523  12.073  68.275  1.00  0.00    -0.361 A  
HETATM    7  C   UNL     1     -11.646  11.803  69.633  1.00  0.00    -0.323 A  
HETATM    8  C   UNL     1     -11.405  10.529  70.137  1.00  0.00    -0.400 A  
HETATM    9  O   UNL     1     -12.000  12.782  70.514  1.00  0.00    -0.493 OA 
HETATM   10  H   UNL     1     -12.083  12.597  71.442  1.00  0.00     0.000 HD 
HETATM   11  C   UNL     1     -11.029   9.502  69.268  1.00  0.00    -0.167 A  
HETATM   12  C   UNL     1     -10.880   9.763  67.905  1.00  0.00    -0.298 A  
ENDBRANCH   4   5
ENDBRANCH   2   4
TORSDOF 2
ENDMDL
MODEL       82
REMARK 921   NORMALIZED FREE ENERGY PREDICTED BY IDOCK:   -3.52 KCAL/MOL
REMARK 922        TOTAL FREE ENERGY PREDICTED BY IDOCK:   -4.11 KCAL/MOL
REMARK 923 INTER-LIGAND FREE ENERGY PREDICTED BY IDOCK:   -4.20 KCAL/MOL
REMARK 924 INTRA-LIGAND FREE ENERGY PREDICTED BY IDOCK:    0.08 KCAL/MOL
REMARK 927      BINDING AFFINITY PREDICTED BY RF-SCORE:    0.00 PKD
ROOT
HETATM    1  C   UNL     1     -11.897  15.630  70.390  1.00  0.00    -0.395 C  
HETATM    2  C   UNL     1     -10.816  15.776  69.361  1.00  0.00    -0.269 C  
HETATM    3  O   UNL     1     -10.341  14.838  68.735  1.00  0.00    -0.234 OA 
ENDROOT
BRANCH   2   4
HETATM    4  O   UNL     1     -10.435  17.116  69.288  1.00  0.00    -0.337 OA 
BRANCH   4   5
HETATM    5  C   UNL     1     -10.448  17.802  68.056  1.00  0.00    -0.394 A  
HETATM    6  C   UNL     1     -10.806  17.195  66.851  1.00  0.00    -0.005 A  
HETATM    7  C   UNL     1     -10.779  17.951  65.685  1.00  0.00    -0.052 A  
HETATM    8  C   UNL     1     -10.445  19.301  65.710  1.00  0.00    -0.438 A  
HETATM    9  O   UNL     1     -11.073  17.388  64.477  1.00  0.00    -1.008 OA 
HETATM   10  H   UNL     1     -11.054  17.905  63.681  1.00  0.00     0.000 HD 
HETATM   11  C   UNL     1     -10.128  19.912  66.926  1.00  0.00    -0.579 A  
HETATM   12  C   UNL     1     -10.128  19.161  68.103  1.00  0.00    -0.486 A  
ENDBRANCH   4   5
ENDBRANCH   2   4
TORSDOF 2
ENDMDL
MODEL       83
REMARK 921   NORMALIZED FREE ENERGY PREDICTED BY IDOCK:   -3.51 KCAL/MOL
REMARK 922        TOTAL FREE ENERGY PREDICTED BY IDOCK:   -4.11 KCAL/MOL
REMARK 923 INTER-LIGAND FREE ENERGY PREDICTED BY IDOCK:   -4.08 KCAL/MOL
REMARK 924 INTRA-LIGAND FREE ENERGY PREDICTED BY IDOCK:   -0.03 KCAL/MOL
REMARK 927      BINDING AFFINITY PREDICTED BY RF-SCORE:    0.00 PKD
ROOT
HETATM    1  C   UNL     1     -10.531  18.300  66.097  1.00  0.00    -0.403 C  
HETATM    2  C   UNL     1     -10.609  17.060  65.257  1.00  0.00    -0.080 C  
HETATM    3  O   UNL     1     -11.185  17.003  64.179  1.00  0.00    -1.130 OA 
ENDROOT
BRANCH   2   4
HETATM    4  O   UNL     1      -9.970  16.015  65.927  1.00  0.00    -0.308 OA 
BRANCH   4   5
HETATM    5  C   UNL     1     -10.194  15.802  67.304  1.00  0.00    -0.268 A  
HETATM    6  C   UNL     1     -11.414  15.360  67.817  1.00  0.00    -0.284 A  
HETATM    7  C   UNL     1     -11.541  15.189  69.191  1.00  0.00    -0.323 A  
HETATM    8  C   UNL     1     -10.465  15.407  70.046  1.00  0.00    -0.301 A  
HETATM    9  O   UNL     1     -12.728  14.807  69.743  1.00  0.00    -0.576 OA 
HETATM   10  H   UNL     1     -12.815  14.690  70.682  1.00  0.00     0.000 HD 
HETATM   11  C   UNL     1      -9.236  15.810  69.520  1.00  0.00    -0.215 A  
HETATM   12  C   UNL     1      -9.098  16.008  68.145  1.00  0.00    -0.187 A  
ENDBRANCH   4   5
ENDBRANCH   2   4
TORSDOF 2
ENDMDL
MODEL       84
REMARK 921   NORMALIZED FREE ENERGY PREDICTED BY IDOCK:   -3.48 KCAL/MOL
REMARK 922        TOTAL FREE ENERGY PREDICTED BY IDOCK:   -4.07 KCAL/MOL
REMARK 923 INTER-LIGAND FREE ENERGY PREDICTED BY IDOCK:   -4.26 KCAL/MOL
REMARK 924 INTRA-LIGAND FREE ENERGY PREDICTED BY IDOCK:    0.18 KCAL/MOL
REMARK 927      BINDING AFFINITY PREDICTED BY RF-SCORE:    0.00 PKD
ROOT
HETATM    1  C   UNL     1     -11.255  12.101  63.454  1.00  0.00    -0.494 C  
HETATM    2  C   UNL     1     -12.302  12.908  64.162  1.00  0.00    -0.376 C  
HETATM    3  O   UNL     1     -13.267  12.419  64.734  1.00  0.00    -0.784 OA 
ENDROOT
BRANCH   2   4
HETATM    4  O   UNL     1     -12.012  14.264  64.010  1.00  0.00    -0.403 OA 
BRANCH   4   5
HETATM    5  C   UNL     1     -11.051  14.890  64.833  1.00  0.00    -0.414 A  
HETATM    6  C   UNL     1     -10.012  14.196  65.452  1.00  0.00    -0.321 A  
HETATM    7  C   UNL     1      -9.119  14.899  66.254  1.00  0.00    -0.227 A  
HETATM    8  C   UNL     1      -9.223  16.277  66.409  1.00  0.00    -0.332 A  
HETATM    9  O   UNL     1      -8.117  14.254  66.919  1.00  0.00    -0.379 OA 
HETATM   10  H   UNL     1      -7.508  14.735  67.467  1.00  0.00     0.000 HD 
HETATM   11  C   UNL     1     -10.243  16.971  65.752  1.00  0.00    -0.262 A  
HETATM   12  C   UNL     1     -11.160  16.276  64.962  1.00  0.00    -0.262 A  
ENDBRANCH   4   5
ENDBRANCH   2   4
TORSDOF 2
ENDMDL
MODEL       85
REMARK 921   NORMALIZED FREE ENERGY PREDICTED BY IDOCK:   -3.48 KCAL/MOL
REMARK 922        TOTAL FREE ENERGY PREDICTED BY IDOCK:   -4.07 KCAL/MOL
REMARK 923 INTER-LIGAND FREE ENERGY PREDICTED BY IDOCK:   -3.87 KCAL/MOL
REMARK 924 INTRA-LIGAND FREE ENERGY PREDICTED BY IDOCK:   -0.20 KCAL/MOL
REMARK 927      BINDING AFFINITY PREDICTED BY RF-SCORE:    0.00 PKD
ROOT
HETATM    1  C   UNL     1     -10.079  15.446  67.451  1.00  0.00    -0.233 C  
HETATM    2  C   UNL     1     -10.405  16.559  66.501  1.00  0.00    -0.305 C  
HETATM    3  O   UNL     1     -10.562  16.403  65.298  1.00  0.00    -0.548 OA 
ENDROOT
BRANCH   2   4
HETATM    4  O   UNL     1     -10.446  17.763  67.206  1.00  0.00    -0.356 OA 
BRANCH   4   5
HETATM    5  C   UNL     1      -9.292  18.566  67.324  1.00  0.00    -0.280 A  
HETATM    6  C   UNL     1      -8.740  19.268  66.252  1.00  0.00    -0.333 A  
HETATM    7  C   UNL     1      -7.594  20.026  66.464  1.00  0.00    -0.288 A  
HETATM    8  C   UNL     1      -7.022  20.126  67.728  1.00  0.00    -0.313 A  
HETATM    9  O   UNL     1      -6.991  20.688  65.435  1.00  0.00    -0.480 OA 
HETATM   10  H   UNL     1      -6.208  21.206  65.580  1.00  0.00     0.000 HD 
HETATM   11  C   UNL     1      -7.604  19.453  68.805  1.00  0.00    -0.398 A  
HETATM   12  C   UNL     1      -8.741  18.670  68.603  1.00  0.00    -0.333 A  
ENDBRANCH   4   5
ENDBRANCH   2   4
TORSDOF 2
ENDMDL
MODEL       86
REMARK 921   NORMALIZED FREE ENERGY PREDICTED BY IDOCK:   -3.47 KCAL/MOL
REMARK 922        TOTAL FREE ENERGY PREDICTED BY IDOCK:   -4.06 KCAL/MOL
REMARK 923 INTER-LIGAND FREE ENERGY PREDICTED BY IDOCK:   -3.86 KCAL/MOL
REMARK 924 INTRA-LIGAND FREE ENERGY PREDICTED BY IDOCK:   -0.20 KCAL/MOL
REMARK 927      BINDING AFFINITY PREDICTED BY RF-SCORE:    0.00 PKD
ROOT
HETATM    1  C   UNL     1     -10.119  14.160  68.500  1.00  0.00    -0.243 C  
HETATM    2  C   UNL     1     -10.131  15.034  67.281  1.00  0.00    -0.235 C  
HETATM    3  O   UNL     1      -9.603  14.729  66.221  1.00  0.00    -0.280 OA 
ENDROOT
BRANCH   2   4
HETATM    4  O   UNL     1     -10.785  16.229  67.583  1.00  0.00    -0.313 OA 
BRANCH   4   5
HETATM    5  C   UNL     1     -10.103  17.461  67.503  1.00  0.00    -0.322 A  
HETATM    6  C   UNL     1     -10.412  18.443  66.561  1.00  0.00    -0.411 A  
HETATM    7  C   UNL     1      -9.676  19.622  66.554  1.00  0.00    -0.399 A  
HETATM    8  C   UNL     1      -8.676  19.851  67.492  1.00  0.00    -0.401 A  
HETATM    9  O   UNL     1      -9.909  20.588  65.619  1.00  0.00    -0.597 OA 
HETATM   10  H   UNL     1      -9.406  21.394  65.614  1.00  0.00     0.000 HD 
HETATM   11  C   UNL     1      -8.399  18.881  68.459  1.00  0.00    -0.384 A  
HETATM   12  C   UNL     1      -9.114  17.682  68.465  1.00  0.00    -0.279 A  
ENDBRANCH   4   5
ENDBRANCH   2   4
TORSDOF 2
ENDMDL
MODEL       87
REMARK 921   NORMALIZED FREE ENERGY PREDICTED BY IDOCK:   -3.46 KCAL/MOL
REMARK 922        TOTAL FREE ENERGY PREDICTED BY IDOCK:   -4.06 KCAL/MOL
REMARK 923 INTER-LIGAND FREE ENERGY PREDICTED BY IDOCK:   -3.82 KCAL/MOL
REMARK 924 INTRA-LIGAND FREE ENERGY PREDICTED BY IDOCK:   -0.24 KCAL/MOL
REMARK 927      BINDING AFFINITY PREDICTED BY RF-SCORE:    0.00 PKD
ROOT
HETATM    1  C   UNL     1      -9.625  16.018  67.256  1.00  0.00    -0.227 C  
HETATM    2  C   UNL     1     -10.554  15.532  66.185  1.00  0.00    -0.315 C  
HETATM    3  O   UNL     1     -10.329  15.642  64.987  1.00  0.00    -0.413 OA 
ENDROOT
BRANCH   2   4
HETATM    4  O   UNL     1     -11.698  14.998  66.781  1.00  0.00    -0.288 OA 
BRANCH   4   5
HETATM    5  C   UNL     1     -11.659  13.732  67.404  1.00  0.00    -0.362 A  
HETATM    6  C   UNL     1     -11.981  13.535  68.747  1.00  0.00    -0.374 A  
HETATM    7  C   UNL     1     -11.903  12.250  69.274  1.00  0.00    -0.306 A  
HETATM    8  C   UNL     1     -11.556  11.166  68.476  1.00  0.00    -0.385 A  
HETATM    9  O   UNL     1     -12.160  12.018  70.593  1.00  0.00    -0.408 OA 
HETATM   10  H   UNL     1     -12.107  11.140  70.953  1.00  0.00     0.000 HD 
HETATM   11  C   UNL     1     -11.275  11.365  67.123  1.00  0.00    -0.363 A  
HETATM   12  C   UNL     1     -11.326  12.652  66.584  1.00  0.00    -0.379 A  
ENDBRANCH   4   5
ENDBRANCH   2   4
TORSDOF 2
ENDMDL
MODEL       88
REMARK 921   NORMALIZED FREE ENERGY PREDICTED BY IDOCK:   -3.46 KCAL/MOL
REMARK 922        TOTAL FREE ENERGY PREDICTED BY IDOCK:   -4.05 KCAL/MOL
REMARK 923 INTER-LIGAND FREE ENERGY PREDICTED BY IDOCK:   -3.89 KCAL/MOL
REMARK 924 INTRA-LIGAND FREE ENERGY PREDICTED BY IDOCK:   -0.16 KCAL/MOL
REMARK 927      BINDING AFFINITY PREDICTED BY RF-SCORE:    0.00 PKD
ROOT
HETATM    1  C   UNL     1     -10.802  14.376  64.781  1.00  0.00    -0.415 C  
HETATM    2  C   UNL     1     -11.292  13.408  65.816  1.00  0.00    -0.305 C  
HETATM    3  O   UNL     1     -10.928  12.242  65.884  1.00  0.00    -0.280 OA 
ENDROOT
BRANCH   2   4
HETATM    4  O   UNL     1     -12.236  14.044  66.623  1.00  0.00    -0.442 OA 
BRANCH   4   5
HETATM    5  C   UNL     1     -11.857  14.628  67.849  1.00  0.00    -0.320 A  
HETATM    6  C   UNL     1     -11.385  15.937  67.956  1.00  0.00    -0.284 A  
HETATM    7  C   UNL     1     -11.026  16.422  69.208  1.00  0.00    -0.322 A  
HETATM    8  C   UNL     1     -11.171  15.641  70.350  1.00  0.00    -0.374 A  
HETATM    9  O   UNL     1     -10.513  17.677  69.354  1.00  0.00    -0.394 OA 
HETATM   10  H   UNL     1     -10.268  18.008  70.209  1.00  0.00     0.000 HD 
HETATM   11  C   UNL     1     -11.682  14.345  70.241  1.00  0.00    -0.355 A  
HETATM   12  C   UNL     1     -12.027  13.836  68.988  1.00  0.00    -0.399 A  
ENDBRANCH   4   5
ENDBRANCH   2   4
TORSDOF 2
ENDMDL
MODEL       89
REMARK 921   NORMALIZED FREE ENERGY PREDICTED BY IDOCK:   -3.44 KCAL/MOL
REMARK 922        TOTAL FREE ENERGY PREDICTED BY IDOCK:   -4.03 KCAL/MOL
REMARK 923 INTER-LIGAND FREE ENERGY PREDICTED BY IDOCK:   -3.82 KCAL/MOL
REMARK 924 INTRA-LIGAND FREE ENERGY PREDICTED BY IDOCK:   -0.21 KCAL/MOL
REMARK 927      BINDING AFFINITY PREDICTED BY RF-SCORE:    0.00 PKD
ROOT
HETATM    1  C   UNL     1     -11.327  12.633  67.339  1.00  0.00    -0.367 C  
HETATM    2  C   UNL     1     -11.961  12.478  68.689  1.00  0.00    -0.224 C  
HETATM    3  O   UNL     1     -12.036  13.378  69.513  1.00  0.00    -0.311 OA 
ENDROOT
BRANCH   2   4
HETATM    4  O   UNL     1     -12.387  11.157  68.842  1.00  0.00    -0.512 OA 
BRANCH   4   5
HETATM    5  C   UNL     1     -12.019  10.411  69.981  1.00  0.00    -0.247 A  
HETATM    6  C   UNL     1     -10.702  10.042  70.257  1.00  0.00    -0.367 A  
HETATM    7  C   UNL     1     -10.439   9.298  71.401  1.00  0.00    -0.338 A  
HETATM    8  C   UNL     1     -11.456   8.957  72.287  1.00  0.00    -0.307 A  
HETATM    9  O   UNL     1      -9.174   8.872  71.685  1.00  0.00    -0.253 OA 
HETATM   10  H   UNL     1      -8.995   8.363  72.467  1.00  0.00     0.000 HD 
HETATM   11  C   UNL     1     -12.766   9.365  72.026  1.00  0.00    -0.483 A  
HETATM   12  C   UNL     1     -13.050  10.094  70.870  1.00  0.00    -0.412 A  
ENDBRANCH   4   5
ENDBRANCH   2   4
TORSDOF 2
ENDMDL
MODEL       90
REMARK 921   NORMALIZED FREE ENERGY PREDICTED BY IDOCK:   -3.44 KCAL/MOL
REMARK 922        TOTAL FREE ENERGY PREDICTED BY IDOCK:   -4.03 KCAL/MOL
REMARK 923 INTER-LIGAND FREE ENERGY PREDICTED BY IDOCK:   -3.84 KCAL/MOL
REMARK 924 INTRA-LIGAND FREE ENERGY PREDICTED BY IDOCK:   -0.19 KCAL/MOL
REMARK 927      BINDING AFFINITY PREDICTED BY RF-SCORE:    0.00 PKD
ROOT
HETATM    1  C   UNL     1     -11.183  15.586  64.706  1.00  0.00    -0.399 C  
HETATM    2  C   UNL     1     -11.768  14.212  64.575  1.00  0.00    -0.413 C  
HETATM    3  O   UNL     1     -12.930  13.939  64.839  1.00  0.00    -0.711 OA 
ENDROOT
BRANCH   2   4
HETATM    4  O   UNL     1     -10.768  13.330  64.161  1.00  0.00    -0.405 OA 
BRANCH   4   5
HETATM    5  C   UNL     1     -10.319  12.301  65.015  1.00  0.00    -0.291 A  
HETATM    6  C   UNL     1     -10.038  12.502  66.367  1.00  0.00    -0.255 A  
HETATM    7  C   UNL     1      -9.591  11.427  67.127  1.00  0.00    -0.179 A  
HETATM    8  C   UNL     1      -9.463  10.158  66.572  1.00  0.00    -0.214 A  
HETATM    9  O   UNL     1      -9.256  11.588  68.440  1.00  0.00    -0.182 OA 
HETATM   10  H   UNL     1      -8.951  10.853  68.958  1.00  0.00     0.000 HD 
HETATM   11  C   UNL     1      -9.786   9.956  65.228  1.00  0.00    -0.383 A  
HETATM   12  C   UNL     1     -10.215  11.029  64.446  1.00  0.00    -0.409 A  
ENDBRANCH   4   5
ENDBRANCH   2   4
TORSDOF 2
ENDMDL
MODEL       91
REMARK 921   NORMALIZED FREE ENERGY PREDICTED BY IDOCK:   -3.43 KCAL/MOL
REMARK 922        TOTAL FREE ENERGY PREDICTED BY IDOCK:   -4.02 KCAL/MOL
REMARK 923 INTER-LIGAND FREE ENERGY PREDICTED BY IDOCK:   -3.84 KCAL/MOL
REMARK 924 INTRA-LIGAND FREE ENERGY PREDICTED BY IDOCK:   -0.18 KCAL/MOL
REMARK 927      BINDING AFFINITY PREDICTED BY RF-SCORE:    0.00 PKD
ROOT
HETATM    1  C   UNL     1     -10.365   8.366  67.084  1.00  0.00    -0.381 C  
HETATM    2  C   UNL     1      -9.976   9.677  67.698  1.00  0.00    -0.174 C  
HETATM    3  O   UNL     1      -8.822  10.073  67.785  1.00  0.00    -0.125 OA 
ENDROOT
BRANCH   2   4
HETATM    4  O   UNL     1     -11.122  10.313  68.178  1.00  0.00    -0.272 OA 
BRANCH   4   5
HETATM    5  C   UNL     1     -11.431  11.632  67.783  1.00  0.00    -0.302 A  
HETATM    6  C   UNL     1     -11.706  12.654  68.691  1.00  0.00    -0.364 A  
HETATM    7  C   UNL     1     -12.010  13.921  68.204  1.00  0.00    -0.350 A  
HETATM    8  C   UNL     1     -12.002  14.188  66.839  1.00  0.00    -0.479 A  
HETATM    9  O   UNL     1     -12.334  14.939  69.053  1.00  0.00    -0.565 OA 
HETATM   10  H   UNL     1     -12.542  15.804  68.720  1.00  0.00     0.000 HD 
HETATM   11  C   UNL     1     -11.686  13.168  65.938  1.00  0.00    -0.427 A  
HETATM   12  C   UNL     1     -11.400  11.886  66.410  1.00  0.00    -0.400 A  
ENDBRANCH   4   5
ENDBRANCH   2   4
TORSDOF 2
ENDMDL
MODEL       92
REMARK 921   NORMALIZED FREE ENERGY PREDICTED BY IDOCK:   -3.42 KCAL/MOL
REMARK 922        TOTAL FREE ENERGY PREDICTED BY IDOCK:   -4.01 KCAL/MOL
REMARK 923 INTER-LIGAND FREE ENERGY PREDICTED BY IDOCK:   -3.83 KCAL/MOL
REMARK 924 INTRA-LIGAND FREE ENERGY PREDICTED BY IDOCK:   -0.18 KCAL/MOL
REMARK 927      BINDING AFFINITY PREDICTED BY RF-SCORE:    0.00 PKD
ROOT
HETATM    1  C   UNL     1      -8.901   9.742  67.448  1.00  0.00    -0.137 C  
HETATM    2  C   UNL     1      -9.979   9.981  66.432  1.00  0.00    -0.237 C  
HETATM    3  O   UNL     1      -9.842   9.776  65.234  1.00  0.00    -0.313 OA 
ENDROOT
BRANCH   2   4
HETATM    4  O   UNL     1     -11.101  10.506  67.074  1.00  0.00    -0.236 OA 
BRANCH   4   5
HETATM    5  C   UNL     1     -11.419  11.875  66.961  1.00  0.00    -0.316 A  
HETATM    6  C   UNL     1     -11.879  12.454  65.778  1.00  0.00    -0.467 A  
HETATM    7  C   UNL     1     -12.158  13.817  65.761  1.00  0.00    -0.429 A  
HETATM    8  C   UNL     1     -12.026  14.592  66.908  1.00  0.00    -0.371 A  
HETATM    9  O   UNL     1     -12.562  14.435  64.614  1.00  0.00    -0.622 OA 
HETATM   10  H   UNL     1     -12.751  15.366  64.603  1.00  0.00     0.000 HD 
HETATM   11  C   UNL     1     -11.604  13.997  68.099  1.00  0.00    -0.369 A  
HETATM   12  C   UNL     1     -11.299  12.635  68.127  1.00  0.00    -0.334 A  
ENDBRANCH   4   5
ENDBRANCH   2   4
TORSDOF 2
ENDMDL
MODEL       93
REMARK 921   NORMALIZED FREE ENERGY PREDICTED BY IDOCK:   -3.41 KCAL/MOL
REMARK 922        TOTAL FREE ENERGY PREDICTED BY IDOCK:   -4.00 KCAL/MOL
REMARK 923 INTER-LIGAND FREE ENERGY PREDICTED BY IDOCK:   -3.78 KCAL/MOL
REMARK 924 INTRA-LIGAND FREE ENERGY PREDICTED BY IDOCK:   -0.21 KCAL/MOL
REMARK 927      BINDING AFFINITY PREDICTED BY RF-SCORE:    0.00 PKD
ROOT
HETATM    1  C   UNL     1      -7.913  14.103  67.220  1.00  0.00    -0.171 C  
HETATM    2  C   UNL     1      -8.690  15.286  67.716  1.00  0.00    -0.165 C  
HETATM    3  O   UNL     1      -8.178  16.345  68.051  1.00  0.00    -0.164 OA 
ENDROOT
BRANCH   2   4
HETATM    4  O   UNL     1     -10.044  14.951  67.769  1.00  0.00    -0.232 OA 
BRANCH   4   5
HETATM    5  C   UNL     1     -10.808  14.858  66.587  1.00  0.00    -0.319 A  
HETATM    6  C   UNL     1     -11.690  13.807  66.330  1.00  0.00    -0.404 A  
HETATM    7  C   UNL     1     -12.393  13.798  65.131  1.00  0.00    -0.448 A  
HETATM    8  C   UNL     1     -12.262  14.835  64.213  1.00  0.00    -0.402 A  
HETATM    9  O   UNL     1     -13.227  12.766  64.815  1.00  0.00    -0.812 OA 
HETATM   10  H   UNL     1     -13.707  12.760  63.996  1.00  0.00     0.000 HD 
HETATM   11  C   UNL     1     -11.409  15.904  64.495  1.00  0.00    -0.316 A  
HETATM   12  C   UNL     1     -10.679  15.917  65.685  1.00  0.00    -0.350 A  
ENDBRANCH   4   5
ENDBRANCH   2   4
TORSDOF 2
ENDMDL
MODEL       94
REMARK 921   NORMALIZED FREE ENERGY PREDICTED BY IDOCK:   -3.41 KCAL/MOL
REMARK 922        TOTAL FREE ENERGY PREDICTED BY IDOCK:   -3.99 KCAL/MOL
REMARK 923 INTER-LIGAND FREE ENERGY PREDICTED BY IDOCK:   -3.78 KCAL/MOL
REMARK 924 INTRA-LIGAND FREE ENERGY PREDICTED BY IDOCK:   -0.22 KCAL/MOL
REMARK 927      BINDING AFFINITY PREDICTED BY RF-SCORE:    0.00 PKD
ROOT
HETATM    1  C   UNL     1      -5.328  18.239  70.597  1.00  0.00    -0.260 C  
HETATM    2  C   UNL     1      -6.079  19.298  69.848  1.00  0.00    -0.258 C  
HETATM    3  O   UNL     1      -6.398  20.376  70.330  1.00  0.00    -0.445 OA 
ENDROOT
BRANCH   2   4
HETATM    4  O   UNL     1      -6.378  18.827  68.569  1.00  0.00    -0.217 OA 
BRANCH   4   5
HETATM    5  C   UNL     1      -7.707  18.822  68.096  1.00  0.00    -0.285 A  
HETATM    6  C   UNL     1      -8.172  19.708  67.124  1.00  0.00    -0.323 A  
HETATM    7  C   UNL     1      -9.504  19.633  66.729  1.00  0.00    -0.367 A  
HETATM    8  C   UNL     1     -10.356  18.667  67.255  1.00  0.00    -0.440 A  
HETATM    9  O   UNL     1     -10.015  20.510  65.819  1.00  0.00    -0.591 OA 
HETATM   10  H   UNL     1     -10.925  20.458  65.550  1.00  0.00     0.000 HD 
HETATM   11  C   UNL     1      -9.872  17.758  68.198  1.00  0.00    -0.326 A  
HETATM   12  C   UNL     1      -8.544  17.834  68.621  1.00  0.00    -0.264 A  
ENDBRANCH   4   5
ENDBRANCH   2   4
TORSDOF 2
ENDMDL
MODEL       95
REMARK 921   NORMALIZED FREE ENERGY PREDICTED BY IDOCK:   -3.40 KCAL/MOL
REMARK 922        TOTAL FREE ENERGY PREDICTED BY IDOCK:   -3.99 KCAL/MOL
REMARK 923 INTER-LIGAND FREE ENERGY PREDICTED BY IDOCK:   -3.89 KCAL/MOL
REMARK 924 INTRA-LIGAND FREE ENERGY PREDICTED BY IDOCK:   -0.09 KCAL/MOL
REMARK 927      BINDING AFFINITY PREDICTED BY RF-SCORE:    0.00 PKD
ROOT
HETATM    1  C   UNL     1      -9.749  19.352  67.525  1.00  0.00    -0.432 C  
HETATM    2  C   UNL     1      -9.868  18.649  66.206  1.00  0.00    -0.342 C  
HETATM    3  O   UNL     1     -10.792  18.825  65.423  1.00  0.00    -0.563 OA 
ENDROOT
BRANCH   2   4
HETATM    4  O   UNL     1      -8.802  17.759  66.066  1.00  0.00    -0.494 OA 
BRANCH   4   5
HETATM    5  C   UNL     1      -8.992  16.375  66.261  1.00  0.00    -0.333 A  
HETATM    6  C   UNL     1     -10.069  15.670  65.723  1.00  0.00    -0.394 A  
HETATM    7  C   UNL     1     -10.175  14.308  65.979  1.00  0.00    -0.315 A  
HETATM    8  C   UNL     1      -9.209  13.638  66.721  1.00  0.00    -0.251 A  
HETATM    9  O   UNL     1     -11.237  13.588  65.515  1.00  0.00    -0.292 OA 
HETATM   10  H   UNL     1     -11.310  12.658  65.690  1.00  0.00     0.000 HD 
HETATM   11  C   UNL     1      -8.112  14.343  67.223  1.00  0.00    -0.209 A  
HETATM   12  C   UNL     1      -8.002  15.715  66.994  1.00  0.00    -0.268 A  
ENDBRANCH   4   5
ENDBRANCH   2   4
TORSDOF 2
ENDMDL
MODEL       96
REMARK 921   NORMALIZED FREE ENERGY PREDICTED BY IDOCK:   -3.40 KCAL/MOL
REMARK 922        TOTAL FREE ENERGY PREDICTED BY IDOCK:   -3.98 KCAL/MOL
REMARK 923 INTER-LIGAND FREE ENERGY PREDICTED BY IDOCK:   -3.93 KCAL/MOL
REMARK 924 INTRA-LIGAND FREE ENERGY PREDICTED BY IDOCK:   -0.05 KCAL/MOL
REMARK 927      BINDING AFFINITY PREDICTED BY RF-SCORE:    0.00 PKD
ROOT
HETATM    1  C   UNL     1     -12.122   9.906  72.043  1.00  0.00    -0.103 C  
HETATM    2  C   UNL     1     -12.100  10.863  70.889  1.00  0.00    -0.349 C  
HETATM    3  O   UNL     1     -11.224  10.880  70.035  1.00  0.00    -0.281 OA 
ENDROOT
BRANCH   2   4
HETATM    4  O   UNL     1     -13.192  11.727  70.993  1.00  0.00    -0.075 OA 
BRANCH   4   5
HETATM    5  C   UNL     1     -12.998  13.103  71.236  1.00  0.00    -0.254 A  
HETATM    6  C   UNL     1     -12.172  13.906  70.448  1.00  0.00    -0.438 A  
HETATM    7  C   UNL     1     -12.037  15.251  70.772  1.00  0.00    -0.351 A  
HETATM    8  C   UNL     1     -12.741  15.810  71.834  1.00  0.00    -0.516 A  
HETATM    9  O   UNL     1     -11.202  16.063  70.061  1.00  0.00    -0.315 OA 
HETATM   10  H   UNL     1     -11.110  16.982  70.283  1.00  0.00     0.000 HD 
HETATM   11  C   UNL     1     -13.597  15.008  72.592  1.00  0.00    -0.566 A  
HETATM   12  C   UNL     1     -13.727  13.651  72.294  1.00  0.00    -0.687 A  
ENDBRANCH   4   5
ENDBRANCH   2   4
TORSDOF 2
ENDMDL
MODEL       97
REMARK 921   NORMALIZED FREE ENERGY PREDICTED BY IDOCK:   -3.40 KCAL/MOL
REMARK 922        TOTAL FREE ENERGY PREDICTED BY IDOCK:   -3.98 KCAL/MOL
REMARK 923 INTER-LIGAND FREE ENERGY PREDICTED BY IDOCK:   -3.87 KCAL/MOL
REMARK 924 INTRA-LIGAND FREE ENERGY PREDICTED BY IDOCK:   -0.11 KCAL/MOL
REMARK 927      BINDING AFFINITY PREDICTED BY RF-SCORE:    0.00 PKD
ROOT
HETATM    1  C   UNL     1     -10.145  17.477  69.022  1.00  0.00    -0.291 C  
HETATM    2  C   UNL     1     -10.774  16.734  67.881  1.00  0.00    -0.347 C  
HETATM    3  O   UNL     1     -10.446  16.878  66.711  1.00  0.00    -0.307 OA 
ENDROOT
BRANCH   2   4
HETATM    4  O   UNL     1     -11.794  15.919  68.376  1.00  0.00    -0.322 OA 
BRANCH   4   5
HETATM    5  C   UNL     1     -11.713  14.515  68.256  1.00  0.00    -0.335 A  
HETATM    6  C   UNL     1     -11.711  13.855  67.027  1.00  0.00    -0.426 A  
HETATM    7  C   UNL     1     -11.639  12.467  67.010  1.00  0.00    -0.365 A  
HETATM    8  C   UNL     1     -11.526  11.739  68.190  1.00  0.00    -0.382 A  
HETATM    9  O   UNL     1     -11.684  11.776  65.835  1.00  0.00    -0.397 OA 
HETATM   10  H   UNL     1     -11.635  10.828  65.824  1.00  0.00     0.000 HD 
HETATM   11  C   UNL     1     -11.488  12.409  69.415  1.00  0.00    -0.336 A  
HETATM   12  C   UNL     1     -11.582  13.801  69.449  1.00  0.00    -0.365 A  
ENDBRANCH   4   5
ENDBRANCH   2   4
TORSDOF 2
ENDMDL
MODEL       98
REMARK 921   NORMALIZED FREE ENERGY PREDICTED BY IDOCK:   -3.40 KCAL/MOL
REMARK 922        TOTAL FREE ENERGY PREDICTED BY IDOCK:   -3.98 KCAL/MOL
REMARK 923 INTER-LIGAND FREE ENERGY PREDICTED BY IDOCK:   -3.81 KCAL/MOL
REMARK 924 INTRA-LIGAND FREE ENERGY PREDICTED BY IDOCK:   -0.17 KCAL/MOL
REMARK 927      BINDING AFFINITY PREDICTED BY RF-SCORE:    0.00 PKD
ROOT
HETATM    1  C   UNL     1      -7.750  10.672  66.234  1.00  0.00    -0.143 C  
HETATM    2  C   UNL     1      -8.403  11.833  66.923  1.00  0.00    -0.170 C  
HETATM    3  O   UNL     1      -7.809  12.847  67.259  1.00  0.00    -0.167 OA 
ENDROOT
BRANCH   2   4
HETATM    4  O   UNL     1      -9.748  11.532  67.145  1.00  0.00    -0.182 OA 
BRANCH   4   5
HETATM    5  C   UNL     1     -10.765  12.264  66.496  1.00  0.00    -0.246 A  
HETATM    6  C   UNL     1     -11.367  11.843  65.309  1.00  0.00    -0.333 A  
HETATM    7  C   UNL     1     -12.354  12.638  64.739  1.00  0.00    -0.489 A  
HETATM    8  C   UNL     1     -12.775  13.813  65.352  1.00  0.00    -0.513 A  
HETATM    9  O   UNL     1     -12.935  12.292  63.554  1.00  0.00    -0.776 OA 
HETATM   10  H   UNL     1     -13.609  12.836  63.164  1.00  0.00     0.000 HD 
HETATM   11  C   UNL     1     -12.196  14.207  66.561  1.00  0.00    -0.463 A  
HETATM   12  C   UNL     1     -11.188  13.431  67.135  1.00  0.00    -0.325 A  
ENDBRANCH   4   5
ENDBRANCH   2   4
TORSDOF 2
ENDMDL
MODEL       99
REMARK 921   NORMALIZED FREE ENERGY PREDICTED BY IDOCK:   -3.37 KCAL/MOL
REMARK 922        TOTAL FREE ENERGY PREDICTED BY IDOCK:   -3.95 KCAL/MOL
REMARK 923 INTER-LIGAND FREE ENERGY PREDICTED BY IDOCK:   -3.77 KCAL/MOL
REMARK 924 INTRA-LIGAND FREE ENERGY PREDICTED BY IDOCK:   -0.19 KCAL/MOL
REMARK 927      BINDING AFFINITY PREDICTED BY RF-SCORE:    0.00 PKD
ROOT
HETATM    1  C   UNL     1     -10.652   5.725  66.957  1.00  0.00    -0.373 C  
HETATM    2  C   UNL     1     -10.782   6.703  68.087  1.00  0.00    -0.258 C  
HETATM    3  O   UNL     1     -10.305   7.829  68.071  1.00  0.00    -0.200 OA 
ENDROOT
BRANCH   2   4
HETATM    4  O   UNL     1     -11.477   6.098  69.135  1.00  0.00    -0.379 OA 
BRANCH   4   5
HETATM    5  C   UNL     1     -11.327   6.561  70.459  1.00  0.00    -0.367 A  
HETATM    6  C   UNL     1     -12.283   7.346  71.104  1.00  0.00    -0.357 A  
HETATM    7  C   UNL     1     -12.040   7.763  72.408  1.00  0.00    -0.250 A  
HETATM    8  C   UNL     1     -10.888   7.375  73.085  1.00  0.00    -0.435 A  
HETATM    9  O   UNL     1     -12.923   8.573  73.061  1.00  0.00    -0.719 OA 
HETATM   10  H   UNL     1     -12.757   8.858  73.952  1.00  0.00     0.000 HD 
HETATM   11  C   UNL     1      -9.955   6.556  72.446  1.00  0.00    -0.183 A  
HETATM   12  C   UNL     1     -10.173   6.147  71.129  1.00  0.00    -0.245 A  
ENDBRANCH   4   5
ENDBRANCH   2   4
TORSDOF 2
ENDMDL
MODEL      100
REMARK 921   NORMALIZED FREE ENERGY PREDICTED BY IDOCK:   -3.36 KCAL/MOL
REMARK 922        TOTAL FREE ENERGY PREDICTED BY IDOCK:   -3.94 KCAL/MOL
REMARK 923 INTER-LIGAND FREE ENERGY PREDICTED BY IDOCK:   -3.76 KCAL/MOL
REMARK 924 INTRA-LIGAND FREE ENERGY PREDICTED BY IDOCK:   -0.18 KCAL/MOL
REMARK 927      BINDING AFFINITY PREDICTED BY RF-SCORE:    0.00 PKD
ROOT
HETATM    1  C   UNL     1     -12.324  14.081  70.602  1.00  0.00    -0.446 C  
HETATM    2  C   UNL     1     -11.912  15.475  70.234  1.00  0.00    -0.374 C  
HETATM    3  O   UNL     1     -11.448  16.280  71.030  1.00  0.00    -0.407 OA 
ENDROOT
BRANCH   2   4
HETATM    4  O   UNL     1     -12.190  15.691  68.883  1.00  0.00    -0.251 OA 
BRANCH   4   5
HETATM    5  C   UNL     1     -11.441  15.036  67.882  1.00  0.00    -0.340 A  
HETATM    6  C   UNL     1     -10.067  15.215  67.719  1.00  0.00    -0.230 A  
HETATM    7  C   UNL     1      -9.418  14.533  66.696  1.00  0.00    -0.283 A  
HETATM    8  C   UNL     1     -10.106  13.651  65.870  1.00  0.00    -0.320 A  
HETATM    9  O   UNL     1      -8.086  14.715  66.468  1.00  0.00    -0.310 OA 
HETATM   10  H   UNL     1      -7.642  14.249  65.769  1.00  0.00     0.000 HD 
HETATM   11  C   UNL     1     -11.474  13.446  66.066  1.00  0.00    -0.351 A  
HETATM   12  C   UNL     1     -12.145  14.140  67.074  1.00  0.00    -0.449 A  
ENDBRANCH   4   5
ENDBRANCH   2   4
TORSDOF 2
ENDMDL
MODEL      101
REMARK 921   NORMALIZED FREE ENERGY PREDICTED BY IDOCK:   -3.36 KCAL/MOL
REMARK 922        TOTAL FREE ENERGY PREDICTED BY IDOCK:   -3.94 KCAL/MOL
REMARK 923 INTER-LIGAND FREE ENERGY PREDICTED BY IDOCK:   -3.74 KCAL/MOL
REMARK 924 INTRA-LIGAND FREE ENERGY PREDICTED BY IDOCK:   -0.19 KCAL/MOL
REMARK 927      BINDING AFFINITY PREDICTED BY RF-SCORE:    0.00 PKD
ROOT
HETATM    1  C   UNL     1      -7.707  13.801  68.291  1.00  0.00    -0.138 C  
HETATM    2  C   UNL     1      -9.011  13.151  67.937  1.00  0.00    -0.200 C  
HETATM    3  O   UNL     1      -9.345  12.040  68.324  1.00  0.00    -0.194 OA 
ENDROOT
BRANCH   2   4
HETATM    4  O   UNL     1      -9.722  13.993  67.079  1.00  0.00    -0.241 OA 
BRANCH   4   5
HETATM    5  C   UNL     1     -10.533  13.458  66.057  1.00  0.00    -0.294 A  
HETATM    6  C   UNL     1     -10.018  12.775  64.955  1.00  0.00    -0.159 A  
HETATM    7  C   UNL     1     -10.898  12.292  63.992  1.00  0.00    -0.389 A  
HETATM    8  C   UNL     1     -12.273  12.443  64.135  1.00  0.00    -0.558 A  
HETATM    9  O   UNL     1     -10.437  11.662  62.874  1.00  0.00    -0.653 OA 
HETATM   10  H   UNL     1     -11.038  11.333  62.217  1.00  0.00     0.000 HD 
HETATM   11  C   UNL     1     -12.784  13.093  65.261  1.00  0.00    -0.457 A  
HETATM   12  C   UNL     1     -11.912  13.603  66.225  1.00  0.00    -0.461 A  
ENDBRANCH   4   5
ENDBRANCH   2   4
TORSDOF 2
ENDMDL
MODEL      102
REMARK 921   NORMALIZED FREE ENERGY PREDICTED BY IDOCK:   -3.34 KCAL/MOL
REMARK 922        TOTAL FREE ENERGY PREDICTED BY IDOCK:   -3.91 KCAL/MOL
REMARK 923 INTER-LIGAND FREE ENERGY PREDICTED BY IDOCK:   -3.73 KCAL/MOL
REMARK 924 INTRA-LIGAND FREE ENERGY PREDICTED BY IDOCK:   -0.18 KCAL/MOL
REMARK 927      BINDING AFFINITY PREDICTED BY RF-SCORE:    0.00 PKD
ROOT
HETATM    1  C   UNL     1      -9.483   4.883  67.977  1.00  0.00    -0.173 C  
HETATM    2  C   UNL     1     -10.679   5.747  68.243  1.00  0.00    -0.208 C  
HETATM    3  O   UNL     1     -11.224   6.436  67.392  1.00  0.00    -0.352 OA 
ENDROOT
BRANCH   2   4
HETATM    4  O   UNL     1     -11.011   5.661  69.597  1.00  0.00    -0.348 OA 
BRANCH   4   5
HETATM    5  C   UNL     1     -11.167   6.828  70.373  1.00  0.00    -0.328 A  
HETATM    6  C   UNL     1     -12.302   7.083  71.144  1.00  0.00    -0.423 A  
HETATM    7  C   UNL     1     -12.369   8.268  71.869  1.00  0.00    -0.338 A  
HETATM    8  C   UNL     1     -11.311   9.171  71.870  1.00  0.00    -0.416 A  
HETATM    9  O   UNL     1     -13.479   8.583  72.597  1.00  0.00    -0.614 OA 
HETATM   10  H   UNL     1     -13.525   9.392  73.092  1.00  0.00     0.000 HD 
HETATM   11  C   UNL     1     -10.162   8.890  71.128  1.00  0.00    -0.336 A  
HETATM   12  C   UNL     1     -10.088   7.715  70.377  1.00  0.00    -0.190 A  
ENDBRANCH   4   5
ENDBRANCH   2   4
TORSDOF 2
ENDMDL
MODEL      103
REMARK 921   NORMALIZED FREE ENERGY PREDICTED BY IDOCK:   -3.33 KCAL/MOL
REMARK 922        TOTAL FREE ENERGY PREDICTED BY IDOCK:   -3.90 KCAL/MOL
REMARK 923 INTER-LIGAND FREE ENERGY PREDICTED BY IDOCK:   -3.78 KCAL/MOL
REMARK 924 INTRA-LIGAND FREE ENERGY PREDICTED BY IDOCK:   -0.12 KCAL/MOL
REMARK 927      BINDING AFFINITY PREDICTED BY RF-SCORE:    0.00 PKD
ROOT
HETATM    1  C   UNL     1      -7.628   8.413  70.496  1.00  0.00    -0.074 C  
HETATM    2  C   UNL     1      -8.810   9.336  70.476  1.00  0.00    -0.241 C  
HETATM    3  O   UNL     1      -9.042  10.123  69.569  1.00  0.00    -0.199 OA 
ENDROOT
BRANCH   2   4
HETATM    4  O   UNL     1      -9.536   9.172  71.656  1.00  0.00    -0.277 OA 
BRANCH   4   5
HETATM    5  C   UNL     1     -10.821   8.590  71.634  1.00  0.00    -0.286 A  
HETATM    6  C   UNL     1     -11.915   9.134  72.307  1.00  0.00    -0.277 A  
HETATM    7  C   UNL     1     -13.141   8.481  72.234  1.00  0.00    -0.334 A  
HETATM    8  C   UNL     1     -13.297   7.328  71.472  1.00  0.00    -0.435 A  
HETATM    9  O   UNL     1     -14.226   8.949  72.916  1.00  0.00    -1.034 OA 
HETATM   10  H   UNL     1     -15.062   8.502  72.866  1.00  0.00     0.000 HD 
HETATM   11  C   UNL     1     -12.206   6.812  70.768  1.00  0.00    -0.353 A  
HETATM   12  C   UNL     1     -10.964   7.443  70.849  1.00  0.00    -0.271 A  
ENDBRANCH   4   5
ENDBRANCH   2   4
TORSDOF 2
ENDMDL
MODEL      104
REMARK 921   NORMALIZED FREE ENERGY PREDICTED BY IDOCK:   -3.32 KCAL/MOL
REMARK 922        TOTAL FREE ENERGY PREDICTED BY IDOCK:   -3.89 KCAL/MOL
REMARK 923 INTER-LIGAND FREE ENERGY PREDICTED BY IDOCK:   -3.70 KCAL/MOL
REMARK 924 INTRA-LIGAND FREE ENERGY PREDICTED BY IDOCK:   -0.19 KCAL/MOL
REMARK 927      BINDING AFFINITY PREDICTED BY RF-SCORE:    0.00 PKD
ROOT
HETATM    1  C   UNL     1     -10.110   5.719  70.703  1.00  0.00    -0.263 C  
HETATM    2  C   UNL     1     -11.192   6.733  70.928  1.00  0.00    -0.292 C  
HETATM    3  O   UNL     1     -12.367   6.550  70.641  1.00  0.00    -0.277 OA 
ENDROOT
BRANCH   2   4
HETATM    4  O   UNL     1     -10.625   7.894  71.457  1.00  0.00    -0.217 OA 
BRANCH   4   5
HETATM    5  C   UNL     1     -11.141   9.163  71.121  1.00  0.00    -0.323 A  
HETATM    6  C   UNL     1     -12.097   9.825  71.893  1.00  0.00    -0.331 A  
HETATM    7  C   UNL     1     -12.553  11.070  71.475  1.00  0.00    -0.356 A  
HETATM    8  C   UNL     1     -12.041  11.677  70.333  1.00  0.00    -0.462 A  
HETATM    9  O   UNL     1     -13.522  11.731  72.170  1.00  0.00    -0.537 OA 
HETATM   10  H   UNL     1     -13.834  12.582  71.884  1.00  0.00     0.000 HD 
HETATM   11  C   UNL     1     -11.055  11.026  69.587  1.00  0.00    -0.320 A  
HETATM   12  C   UNL     1     -10.603   9.766  69.982  1.00  0.00    -0.320 A  
ENDBRANCH   4   5
ENDBRANCH   2   4
TORSDOF 2
ENDMDL
MODEL      105
REMARK 921   NORMALIZED FREE ENERGY PREDICTED BY IDOCK:   -3.30 KCAL/MOL
REMARK 922        TOTAL FREE ENERGY PREDICTED BY IDOCK:   -3.87 KCAL/MOL
REMARK 923 INTER-LIGAND FREE ENERGY PREDICTED BY IDOCK:   -3.71 KCAL/MOL
REMARK 924 INTRA-LIGAND FREE ENERGY PREDICTED BY IDOCK:   -0.16 KCAL/MOL
REMARK 927      BINDING AFFINITY PREDICTED BY RF-SCORE:    0.00 PKD
ROOT
HETATM    1  C   UNL     1     -13.035  10.365  71.429  1.00  0.00    -0.545 C  
HETATM    2  C   UNL     1     -11.933   9.349  71.393  1.00  0.00    -0.371 C  
HETATM    3  O   UNL     1     -10.747   9.634  71.304  1.00  0.00    -0.335 OA 
ENDROOT
BRANCH   2   4
HETATM    4  O   UNL     1     -12.491   8.070  71.430  1.00  0.00    -0.311 OA 
BRANCH   4   5
HETATM    5  C   UNL     1     -11.699   6.932  71.170  1.00  0.00    -0.336 A  
HETATM    6  C   UNL     1     -11.302   6.558  69.885  1.00  0.00    -0.469 A  
HETATM    7  C   UNL     1     -10.529   5.413  69.728  1.00  0.00    -0.307 A  
HETATM    8  C   UNL     1     -10.115   4.669  70.827  1.00  0.00    -0.264 A  
HETATM    9  O   UNL     1     -10.160   4.982  68.487  1.00  0.00    -0.162 OA 
HETATM   10  H   UNL     1      -9.632   4.200  68.380  1.00  0.00     0.000 HD 
HETATM   11  C   UNL     1     -10.482   5.072  72.113  1.00  0.00    -0.274 A  
HETATM   12  C   UNL     1     -11.277   6.207  72.286  1.00  0.00    -0.334 A  
ENDBRANCH   4   5
ENDBRANCH   2   4
TORSDOF 2
ENDMDL
MODEL      106
REMARK 921   NORMALIZED FREE ENERGY PREDICTED BY IDOCK:   -3.28 KCAL/MOL
REMARK 922        TOTAL FREE ENERGY PREDICTED BY IDOCK:   -3.85 KCAL/MOL
REMARK 923 INTER-LIGAND FREE ENERGY PREDICTED BY IDOCK:   -3.62 KCAL/MOL
REMARK 924 INTRA-LIGAND FREE ENERGY PREDICTED BY IDOCK:   -0.23 KCAL/MOL
REMARK 927      BINDING AFFINITY PREDICTED BY RF-SCORE:    0.00 PKD
ROOT
HETATM    1  C   UNL     1      -8.215  15.527  69.064  1.00  0.00    -0.227 C  
HETATM    2  C   UNL     1      -8.916  16.568  68.243  1.00  0.00    -0.214 C  
HETATM    3  O   UNL     1      -8.381  17.592  67.842  1.00  0.00    -0.225 OA 
ENDROOT
BRANCH   2   4
HETATM    4  O   UNL     1     -10.248  16.190  68.069  1.00  0.00    -0.241 OA 
BRANCH   4   5
HETATM    5  C   UNL     1     -10.592  15.162  67.167  1.00  0.00    -0.295 A  
HETATM    6  C   UNL     1     -11.247  13.994  67.558  1.00  0.00    -0.328 A  
HETATM    7  C   UNL     1     -11.535  13.032  66.596  1.00  0.00    -0.336 A  
HETATM    8  C   UNL     1     -11.222  13.237  65.257  1.00  0.00    -0.315 A  
HETATM    9  O   UNL     1     -12.129  11.853  66.940  1.00  0.00    -0.599 OA 
HETATM   10  H   UNL     1     -12.326  11.196  66.283  1.00  0.00     0.000 HD 
HETATM   11  C   UNL     1     -10.603  14.427  64.867  1.00  0.00    -0.456 A  
HETATM   12  C   UNL     1     -10.287  15.393  65.824  1.00  0.00    -0.381 A  
ENDBRANCH   4   5
ENDBRANCH   2   4
TORSDOF 2
ENDMDL
MODEL      107
REMARK 921   NORMALIZED FREE ENERGY PREDICTED BY IDOCK:   -3.25 KCAL/MOL
REMARK 922        TOTAL FREE ENERGY PREDICTED BY IDOCK:   -3.81 KCAL/MOL
REMARK 923 INTER-LIGAND FREE ENERGY PREDICTED BY IDOCK:   -3.82 KCAL/MOL
REMARK 924 INTRA-LIGAND FREE ENERGY PREDICTED BY IDOCK:    0.00 KCAL/MOL
REMARK 927      BINDING AFFINITY PREDICTED BY RF-SCORE:    0.00 PKD
ROOT
HETATM    1  C   UNL     1     -12.589  13.450  65.388  1.00  0.00    -0.528 C  
HETATM    2  C   UNL     1     -11.547  13.601  66.456  1.00  0.00    -0.366 C  
HETATM    3  O   UNL     1     -10.420  14.028  66.251  1.00  0.00    -0.278 OA 
ENDROOT
BRANCH   2   4
HETATM    4  O   UNL     1     -12.065  13.136  67.666  1.00  0.00    -0.331 OA 
BRANCH   4   5
HETATM    5  C   UNL     1     -11.647  11.898  68.198  1.00  0.00    -0.334 A  
HETATM    6  C   UNL     1     -11.845  11.537  69.531  1.00  0.00    -0.419 A  
HETATM    7  C   UNL     1     -11.389  10.298  69.966  1.00  0.00    -0.301 A  
HETATM    8  C   UNL     1     -10.782   9.407  69.088  1.00  0.00    -0.216 A  
HETATM    9  O   UNL     1     -11.516   9.923  71.272  1.00  0.00    -0.365 OA 
HETATM   10  H   UNL     1     -11.203   9.077  71.569  1.00  0.00     0.000 HD 
HETATM   11  C   UNL     1     -10.624   9.759  67.746  1.00  0.00    -0.320 A  
HETATM   12  C   UNL     1     -11.057  11.008  67.298  1.00  0.00    -0.359 A  
ENDBRANCH   4   5
ENDBRANCH   2   4
TORSDOF 2
ENDMDL
MODEL      108
REMARK 921   NORMALIZED FREE ENERGY PREDICTED BY IDOCK:   -3.25 KCAL/MOL
REMARK 922        TOTAL FREE ENERGY PREDICTED BY IDOCK:   -3.81 KCAL/MOL
REMARK 923 INTER-LIGAND FREE ENERGY PREDICTED BY IDOCK:   -3.62 KCAL/MOL
REMARK 924 INTRA-LIGAND FREE ENERGY PREDICTED BY IDOCK:   -0.20 KCAL/MOL
REMARK 927      BINDING AFFINITY PREDICTED BY RF-SCORE:    0.00 PKD
ROOT
HETATM    1  C   UNL     1     -12.262  11.467  70.824  1.00  0.00    -0.463 C  
HETATM    2  C   UNL     1     -11.503  10.224  70.468  1.00  0.00    -0.343 C  
HETATM    3  O   UNL     1     -10.383  10.228  69.975  1.00  0.00    -0.258 OA 
ENDROOT
BRANCH   2   4
HETATM    4  O   UNL     1     -12.298   9.111  70.744  1.00  0.00    -0.199 OA 
BRANCH   4   5
HETATM    5  C   UNL     1     -11.758   7.990  71.409  1.00  0.00    -0.287 A  
HETATM    6  C   UNL     1     -11.174   8.064  72.674  1.00  0.00    -0.462 A  
HETATM    7  C   UNL     1     -10.660   6.905  73.245  1.00  0.00    -0.325 A  
HETATM    8  C   UNL     1     -10.758   5.679  72.596  1.00  0.00    -0.285 A  
HETATM    9  O   UNL     1     -10.035   6.938  74.458  1.00  0.00    -0.462 OA 
HETATM   10  H   UNL     1      -9.684   6.146  74.847  1.00  0.00     0.000 HD 
HETATM   11  C   UNL     1     -11.381   5.606  71.348  1.00  0.00    -0.085 A  
HETATM   12  C   UNL     1     -11.882   6.764  70.751  1.00  0.00    -0.446 A  
ENDBRANCH   4   5
ENDBRANCH   2   4
TORSDOF 2
ENDMDL
MODEL      109
REMARK 921   NORMALIZED FREE ENERGY PREDICTED BY IDOCK:   -3.25 KCAL/MOL
REMARK 922        TOTAL FREE ENERGY PREDICTED BY IDOCK:   -3.81 KCAL/MOL
REMARK 923 INTER-LIGAND FREE ENERGY PREDICTED BY IDOCK:   -3.61 KCAL/MOL
REMARK 924 INTRA-LIGAND FREE ENERGY PREDICTED BY IDOCK:   -0.20 KCAL/MOL
REMARK 927      BINDING AFFINITY PREDICTED BY RF-SCORE:    0.00 PKD
ROOT
HETATM    1  C   UNL     1     -13.806   9.088  72.444  1.00  0.00    -0.540 C  
HETATM    2  C   UNL     1     -12.519   8.709  71.774  1.00  0.00    -0.346 C  
HETATM    3  O   UNL     1     -11.511   9.401  71.796  1.00  0.00    -0.380 OA 
ENDROOT
BRANCH   2   4
HETATM    4  O   UNL     1     -12.693   7.495  71.107  1.00  0.00    -0.310 OA 
BRANCH   4   5
HETATM    5  C   UNL     1     -11.741   6.462  71.235  1.00  0.00    -0.300 A  
HETATM    6  C   UNL     1     -11.434   5.856  72.454  1.00  0.00    -0.358 A  
HETATM    7  C   UNL     1     -10.473   4.852  72.481  1.00  0.00    -0.205 A  
HETATM    8  C   UNL     1      -9.853   4.418  71.314  1.00  0.00    -0.260 A  
HETATM    9  O   UNL     1     -10.104   4.266  73.657  1.00  0.00    -0.131 OA 
HETATM   10  H   UNL     1      -9.448   3.580  73.675  1.00  0.00     0.000 HD 
HETATM   11  C   UNL     1     -10.196   5.001  70.092  1.00  0.00    -0.329 A  
HETATM   12  C   UNL     1     -11.142   6.026  70.051  1.00  0.00    -0.451 A  
ENDBRANCH   4   5
ENDBRANCH   2   4
TORSDOF 2
ENDMDL
MODEL      110
REMARK 921   NORMALIZED FREE ENERGY PREDICTED BY IDOCK:   -3.24 KCAL/MOL
REMARK 922        TOTAL FREE ENERGY PREDICTED BY IDOCK:   -3.81 KCAL/MOL
REMARK 923 INTER-LIGAND FREE ENERGY PREDICTED BY IDOCK:   -3.63 KCAL/MOL
REMARK 924 INTRA-LIGAND FREE ENERGY PREDICTED BY IDOCK:   -0.17 KCAL/MOL
REMARK 927      BINDING AFFINITY PREDICTED BY RF-SCORE:    0.00 PKD
ROOT
HETATM    1  C   UNL     1     -12.314  14.590  64.403  1.00  0.00    -0.437 C  
HETATM    2  C   UNL     1     -11.187  15.105  65.249  1.00  0.00    -0.358 C  
HETATM    3  O   UNL     1     -10.330  15.877  64.843  1.00  0.00    -0.517 OA 
ENDROOT
BRANCH   2   4
HETATM    4  O   UNL     1     -11.268  14.525  66.516  1.00  0.00    -0.329 OA 
BRANCH   4   5
HETATM    5  C   UNL     1     -10.923  13.171  66.710  1.00  0.00    -0.279 A  
HETATM    6  C   UNL     1      -9.900  12.537  66.004  1.00  0.00    -0.266 A  
HETATM    7  C   UNL     1      -9.641  11.195  66.258  1.00  0.00    -0.206 A  
HETATM    8  C   UNL     1     -10.352  10.496  67.227  1.00  0.00    -0.275 A  
HETATM    9  O   UNL     1      -8.684  10.521  65.557  1.00  0.00    -0.173 OA 
HETATM   10  H   UNL     1      -8.507   9.604  65.730  1.00  0.00     0.000 HD 
HETATM   11  C   UNL     1     -11.347  11.149  67.959  1.00  0.00    -0.380 A  
HETATM   12  C   UNL     1     -11.635  12.490  67.700  1.00  0.00    -0.416 A  
ENDBRANCH   4   5
ENDBRANCH   2   4
TORSDOF 2
ENDMDL
MODEL      111
REMARK 921   NORMALIZED FREE ENERGY PREDICTED BY IDOCK:   -3.24 KCAL/MOL
REMARK 922        TOTAL FREE ENERGY PREDICTED BY IDOCK:   -3.81 KCAL/MOL
REMARK 923 INTER-LIGAND FREE ENERGY PREDICTED BY IDOCK:   -3.61 KCAL/MOL
REMARK 924 INTRA-LIGAND FREE ENERGY PREDICTED BY IDOCK:   -0.20 KCAL/MOL
REMARK 927      BINDING AFFINITY PREDICTED BY RF-SCORE:    0.00 PKD
ROOT
HETATM    1  C   UNL     1     -11.828  15.871  71.867  1.00  0.00    -0.595 C  
HETATM    2  C   UNL     1     -11.982  15.002  70.655  1.00  0.00    -0.318 C  
HETATM    3  O   UNL     1     -12.291  13.819  70.700  1.00  0.00    -0.339 OA 
ENDROOT
BRANCH   2   4
HETATM    4  O   UNL     1     -11.672  15.748  69.517  1.00  0.00    -0.340 OA 
BRANCH   4   5
HETATM    5  C   UNL     1     -10.619  15.356  68.665  1.00  0.00    -0.239 A  
HETATM    6  C   UNL     1     -10.813  14.990  67.333  1.00  0.00    -0.305 A  
HETATM    7  C   UNL     1      -9.712  14.608  66.574  1.00  0.00    -0.280 A  
HETATM    8  C   UNL     1      -8.428  14.629  67.109  1.00  0.00    -0.244 A  
HETATM    9  O   UNL     1      -9.860  14.195  65.283  1.00  0.00    -0.542 OA 
HETATM   10  H   UNL     1      -9.108  13.934  64.765  1.00  0.00     0.000 HD 
HETATM   11  C   UNL     1      -8.237  15.035  68.432  1.00  0.00    -0.151 A  
HETATM   12  C   UNL     1      -9.334  15.400  69.213  1.00  0.00    -0.254 A  
ENDBRANCH   4   5
ENDBRANCH   2   4
TORSDOF 2
ENDMDL
MODEL      112
REMARK 921   NORMALIZED FREE ENERGY PREDICTED BY IDOCK:   -3.24 KCAL/MOL
REMARK 922        TOTAL FREE ENERGY PREDICTED BY IDOCK:   -3.81 KCAL/MOL
REMARK 923 INTER-LIGAND FREE ENERGY PREDICTED BY IDOCK:   -3.61 KCAL/MOL
REMARK 924 INTRA-LIGAND FREE ENERGY PREDICTED BY IDOCK:   -0.20 KCAL/MOL
REMARK 927      BINDING AFFINITY PREDICTED BY RF-SCORE:    0.00 PKD
ROOT
HETATM    1  C   UNL     1     -11.938  16.006  71.582  1.00  0.00    -0.569 C  
HETATM    2  C   UNL     1     -11.886  15.089  70.397  1.00  0.00    -0.297 C  
HETATM    3  O   UNL     1     -11.940  13.869  70.478  1.00  0.00    -0.323 OA 
ENDROOT
BRANCH   2   4
HETATM    4  O   UNL     1     -11.723  15.850  69.239  1.00  0.00    -0.367 OA 
BRANCH   4   5
HETATM    5  C   UNL     1     -10.499  16.498  68.972  1.00  0.00    -0.303 A  
HETATM    6  C   UNL     1     -10.410  17.852  68.647  1.00  0.00    -0.342 A  
HETATM    7  C   UNL     1      -9.158  18.400  68.390  1.00  0.00    -0.320 A  
HETATM    8  C   UNL     1      -8.002  17.633  68.495  1.00  0.00    -0.283 A  
HETATM    9  O   UNL     1      -9.027  19.706  68.020  1.00  0.00    -0.313 OA 
HETATM   10  H   UNL     1      -8.172  20.080  67.845  1.00  0.00     0.000 HD 
HETATM   11  C   UNL     1      -8.096  16.288  68.861  1.00  0.00    -0.231 A  
HETATM   12  C   UNL     1      -9.347  15.718  69.100  1.00  0.00    -0.258 A  
ENDBRANCH   4   5
ENDBRANCH   2   4
TORSDOF 2
ENDMDL
MODEL      113
REMARK 921   NORMALIZED FREE ENERGY PREDICTED BY IDOCK:   -3.24 KCAL/MOL
REMARK 922        TOTAL FREE ENERGY PREDICTED BY IDOCK:   -3.81 KCAL/MOL
REMARK 923 INTER-LIGAND FREE ENERGY PREDICTED BY IDOCK:   -3.65 KCAL/MOL
REMARK 924 INTRA-LIGAND FREE ENERGY PREDICTED BY IDOCK:   -0.16 KCAL/MOL
REMARK 927      BINDING AFFINITY PREDICTED BY RF-SCORE:    0.00 PKD
ROOT
HETATM    1  C   UNL     1     -10.720  13.773  68.188  1.00  0.00    -0.258 C  
HETATM    2  C   UNL     1     -10.501  14.306  66.803  1.00  0.00    -0.273 C  
HETATM    3  O   UNL     1      -9.915  13.692  65.923  1.00  0.00    -0.299 OA 
ENDROOT
BRANCH   2   4
HETATM    4  O   UNL     1     -11.025  15.598  66.725  1.00  0.00    -0.310 OA 
BRANCH   4   5
HETATM    5  C   UNL     1     -10.248  16.712  67.106  1.00  0.00    -0.290 A  
HETATM    6  C   UNL     1     -10.679  17.656  68.039  1.00  0.00    -0.333 A  
HETATM    7  C   UNL     1      -9.846  18.727  68.343  1.00  0.00    -0.382 A  
HETATM    8  C   UNL     1      -8.585  18.844  67.768  1.00  0.00    -0.318 A  
HETATM    9  O   UNL     1     -10.246  19.701  69.211  1.00  0.00    -0.629 OA 
HETATM   10  H   UNL     1      -9.677  20.433  69.419  1.00  0.00     0.000 HD 
HETATM   11  C   UNL     1      -8.145  17.872  66.866  1.00  0.00    -0.250 A  
HETATM   12  C   UNL     1      -8.978  16.803  66.533  1.00  0.00    -0.304 A  
ENDBRANCH   4   5
ENDBRANCH   2   4
TORSDOF 2
ENDMDL
MODEL      114
REMARK 921   NORMALIZED FREE ENERGY PREDICTED BY IDOCK:   -3.23 KCAL/MOL
REMARK 922        TOTAL FREE ENERGY PREDICTED BY IDOCK:   -3.80 KCAL/MOL
REMARK 923 INTER-LIGAND FREE ENERGY PREDICTED BY IDOCK:   -3.70 KCAL/MOL
REMARK 924 INTRA-LIGAND FREE ENERGY PREDICTED BY IDOCK:   -0.10 KCAL/MOL
REMARK 927      BINDING AFFINITY PREDICTED BY RF-SCORE:    0.00 PKD
ROOT
HETATM    1  C   UNL     1     -10.753  15.661  66.623  1.00  0.00    -0.296 C  
HETATM    2  C   UNL     1     -10.759  16.107  68.055  1.00  0.00    -0.321 C  
HETATM    3  O   UNL     1     -11.773  16.210  68.731  1.00  0.00    -0.364 OA 
ENDROOT
BRANCH   2   4
HETATM    4  O   UNL     1      -9.454  16.417  68.442  1.00  0.00    -0.208 OA 
BRANCH   4   5
HETATM    5  C   UNL     1      -8.910  17.692  68.177  1.00  0.00    -0.269 A  
HETATM    6  C   UNL     1      -9.682  18.778  67.763  1.00  0.00    -0.356 A  
HETATM    7  C   UNL     1      -9.053  19.993  67.517  1.00  0.00    -0.356 A  
HETATM    8  C   UNL     1      -7.686  20.149  67.718  1.00  0.00    -0.321 A  
HETATM    9  O   UNL     1      -9.759  21.069  67.063  1.00  0.00    -0.671 OA 
HETATM   10  H   UNL     1      -9.329  21.899  66.895  1.00  0.00     0.000 HD 
HETATM   11  C   UNL     1      -6.926  19.068  68.172  1.00  0.00    -0.269 A  
HETATM   12  C   UNL     1      -7.539  17.835  68.402  1.00  0.00    -0.269 A  
ENDBRANCH   4   5
ENDBRANCH   2   4
TORSDOF 2
ENDMDL
MODEL      115
REMARK 921   NORMALIZED FREE ENERGY PREDICTED BY IDOCK:   -3.23 KCAL/MOL
REMARK 922        TOTAL FREE ENERGY PREDICTED BY IDOCK:   -3.79 KCAL/MOL
REMARK 923 INTER-LIGAND FREE ENERGY PREDICTED BY IDOCK:   -3.59 KCAL/MOL
REMARK 924 INTRA-LIGAND FREE ENERGY PREDICTED BY IDOCK:   -0.20 KCAL/MOL
REMARK 927      BINDING AFFINITY PREDICTED BY RF-SCORE:    0.00 PKD
ROOT
HETATM    1  C   UNL     1     -11.331   9.268  70.578  1.00  0.00    -0.306 C  
HETATM    2  C   UNL     1     -11.106  10.046  69.316  1.00  0.00    -0.206 C  
HETATM    3  O   UNL     1     -10.093   9.963  68.635  1.00  0.00    -0.163 OA 
ENDROOT
BRANCH   2   4
HETATM    4  O   UNL     1     -12.201  10.885  69.098  1.00  0.00    -0.421 OA 
BRANCH   4   5
HETATM    5  C   UNL     1     -12.019  12.274  68.932  1.00  0.00    -0.248 A  
HETATM    6  C   UNL     1     -11.857  12.878  67.685  1.00  0.00    -0.400 A  
HETATM    7  C   UNL     1     -11.674  14.255  67.624  1.00  0.00    -0.389 A  
HETATM    8  C   UNL     1     -11.695  15.035  68.775  1.00  0.00    -0.360 A  
HETATM    9  O   UNL     1     -11.462  14.882  66.431  1.00  0.00    -0.344 OA 
HETATM   10  H   UNL     1     -11.337  15.822  66.390  1.00  0.00     0.000 HD 
HETATM   11  C   UNL     1     -11.899  14.428  70.017  1.00  0.00    -0.377 A  
HETATM   12  C   UNL     1     -12.061  13.044  70.097  1.00  0.00    -0.377 A  
ENDBRANCH   4   5
ENDBRANCH   2   4
TORSDOF 2
ENDMDL
MODEL      116
REMARK 921   NORMALIZED FREE ENERGY PREDICTED BY IDOCK:   -3.22 KCAL/MOL
REMARK 922        TOTAL FREE ENERGY PREDICTED BY IDOCK:   -3.78 KCAL/MOL
REMARK 923 INTER-LIGAND FREE ENERGY PREDICTED BY IDOCK:   -3.65 KCAL/MOL
REMARK 924 INTRA-LIGAND FREE ENERGY PREDICTED BY IDOCK:   -0.13 KCAL/MOL
REMARK 927      BINDING AFFINITY PREDICTED BY RF-SCORE:    0.00 PKD
ROOT
HETATM    1  C   UNL     1      -9.535  10.116  64.111  1.00  0.00    -0.353 C  
HETATM    2  C   UNL     1      -9.514  11.025  65.303  1.00  0.00    -0.223 C  
HETATM    3  O   UNL     1      -8.518  11.234  65.982  1.00  0.00    -0.167 OA 
ENDROOT
BRANCH   2   4
HETATM    4  O   UNL     1     -10.799  11.527  65.516  1.00  0.00    -0.282 OA 
BRANCH   4   5
HETATM    5  C   UNL     1     -11.233  11.862  66.816  1.00  0.00    -0.327 A  
HETATM    6  C   UNL     1     -11.600  13.156  67.186  1.00  0.00    -0.410 A  
HETATM    7  C   UNL     1     -12.006  13.391  68.495  1.00  0.00    -0.328 A  
HETATM    8  C   UNL     1     -12.090  12.355  69.418  1.00  0.00    -0.237 A  
HETATM    9  O   UNL     1     -12.327  14.649  68.914  1.00  0.00    -0.565 OA 
HETATM   10  H   UNL     1     -12.603  14.809  69.809  1.00  0.00     0.000 HD 
HETATM   11  C   UNL     1     -11.759  11.055  69.030  1.00  0.00    -0.402 A  
HETATM   12  C   UNL     1     -11.329  10.806  67.725  1.00  0.00    -0.354 A  
ENDBRANCH   4   5
ENDBRANCH   2   4
TORSDOF 2
ENDMDL
MODEL      117
REMARK 921   NORMALIZED FREE ENERGY PREDICTED BY IDOCK:   -3.22 KCAL/MOL
REMARK 922        TOTAL FREE ENERGY PREDICTED BY IDOCK:   -3.78 KCAL/MOL
REMARK 923 INTER-LIGAND FREE ENERGY PREDICTED BY IDOCK:   -3.79 KCAL/MOL
REMARK 924 INTRA-LIGAND FREE ENERGY PREDICTED BY IDOCK:    0.01 KCAL/MOL
REMARK 927      BINDING AFFINITY PREDICTED BY RF-SCORE:    0.00 PKD
ROOT
HETATM    1  C   UNL     1      -8.493  16.842  68.225  1.00  0.00    -0.229 C  
HETATM    2  C   UNL     1      -9.452  17.008  67.084  1.00  0.00    -0.242 C  
HETATM    3  O   UNL     1      -9.108  17.249  65.935  1.00  0.00    -0.516 OA 
ENDROOT
BRANCH   2   4
HETATM    4  O   UNL     1     -10.757  16.892  67.566  1.00  0.00    -0.329 OA 
BRANCH   4   5
HETATM    5  C   UNL     1     -11.106  15.849  68.449  1.00  0.00    -0.345 A  
HETATM    6  C   UNL     1     -11.232  16.028  69.827  1.00  0.00    -0.344 A  
HETATM    7  C   UNL     1     -11.571  14.936  70.618  1.00  0.00    -0.291 A  
HETATM    8  C   UNL     1     -11.826  13.691  70.054  1.00  0.00    -0.378 A  
HETATM    9  O   UNL     1     -11.657  15.053  71.975  1.00  0.00    -0.395 OA 
HETATM   10  H   UNL     1     -11.888  14.306  72.515  1.00  0.00     0.000 HD 
HETATM   11  C   UNL     1     -11.738  13.529  68.669  1.00  0.00    -0.389 A  
HETATM   12  C   UNL     1     -11.377  14.610  67.864  1.00  0.00    -0.332 A  
ENDBRANCH   4   5
ENDBRANCH   2   4
TORSDOF 2
ENDMDL
MODEL      118
REMARK 921   NORMALIZED FREE ENERGY PREDICTED BY IDOCK:   -3.20 KCAL/MOL
REMARK 922        TOTAL FREE ENERGY PREDICTED BY IDOCK:   -3.76 KCAL/MOL
REMARK 923 INTER-LIGAND FREE ENERGY PREDICTED BY IDOCK:   -3.68 KCAL/MOL
REMARK 924 INTRA-LIGAND FREE ENERGY PREDICTED BY IDOCK:   -0.08 KCAL/MOL
REMARK 927      BINDING AFFINITY PREDICTED BY RF-SCORE:    0.00 PKD
ROOT
HETATM    1  C   UNL     1      -8.987  15.390  68.451  1.00  0.00    -0.189 C  
HETATM    2  C   UNL     1     -10.414  15.732  68.143  1.00  0.00    -0.263 C  
HETATM    3  O   UNL     1     -10.841  16.876  68.077  1.00  0.00    -0.363 OA 
ENDROOT
BRANCH   2   4
HETATM    4  O   UNL     1     -11.145  14.551  68.001  1.00  0.00    -0.259 OA 
BRANCH   4   5
HETATM    5  C   UNL     1     -11.334  13.972  66.728  1.00  0.00    -0.334 A  
HETATM    6  C   UNL     1     -10.314  13.330  66.025  1.00  0.00    -0.290 A  
HETATM    7  C   UNL     1     -10.595  12.798  64.772  1.00  0.00    -0.327 A  
HETATM    8  C   UNL     1     -11.877  12.859  64.235  1.00  0.00    -0.457 A  
HETATM    9  O   UNL     1      -9.618  12.205  64.027  1.00  0.00    -0.518 OA 
HETATM   10  H   UNL     1      -9.810  11.842  63.170  1.00  0.00     0.000 HD 
HETATM   11  C   UNL     1     -12.902  13.468  64.963  1.00  0.00    -0.330 A  
HETATM   12  C   UNL     1     -12.631  14.027  66.213  1.00  0.00    -0.352 A  
ENDBRANCH   4   5
ENDBRANCH   2   4
TORSDOF 2
ENDMDL
MODEL      119
REMARK 921   NORMALIZED FREE ENERGY PREDICTED BY IDOCK:   -3.19 KCAL/MOL
REMARK 922        TOTAL FREE ENERGY PREDICTED BY IDOCK:   -3.75 KCAL/MOL
REMARK 923 INTER-LIGAND FREE ENERGY PREDICTED BY IDOCK:   -3.69 KCAL/MOL
REMARK 924 INTRA-LIGAND FREE ENERGY PREDICTED BY IDOCK:   -0.06 KCAL/MOL
REMARK 927      BINDING AFFINITY PREDICTED BY RF-SCORE:    0.00 PKD
ROOT
HETATM    1  C   UNL     1     -13.186   9.850  71.926  1.00  0.00    -0.558 C  
HETATM    2  C   UNL     1     -11.955   9.397  71.198  1.00  0.00    -0.337 C  
HETATM    3  O   UNL     1     -11.115  10.160  70.742  1.00  0.00    -0.322 OA 
ENDROOT
BRANCH   2   4
HETATM    4  O   UNL     1     -11.970   8.005  71.099  1.00  0.00    -0.293 OA 
BRANCH   4   5
HETATM    5  C   UNL     1     -11.412   7.206  72.119  1.00  0.00    -0.269 A  
HETATM    6  C   UNL     1     -11.703   5.849  72.268  1.00  0.00    -0.309 A  
HETATM    7  C   UNL     1     -11.110   5.146  73.311  1.00  0.00    -0.327 A  
HETATM    8  C   UNL     1     -10.207   5.762  74.171  1.00  0.00    -0.286 A  
HETATM    9  O   UNL     1     -11.403   3.832  73.526  1.00  0.00    -0.242 OA 
HETATM   10  H   UNL     1     -10.998   3.352  74.239  1.00  0.00     0.000 HD 
HETATM   11  C   UNL     1      -9.890   7.110  73.991  1.00  0.00    -0.314 A  
HETATM   12  C   UNL     1     -10.494   7.835  72.962  1.00  0.00    -0.432 A  
ENDBRANCH   4   5
ENDBRANCH   2   4
TORSDOF 2
ENDMDL
MODEL      120
REMARK 921   NORMALIZED FREE ENERGY PREDICTED BY IDOCK:   -3.18 KCAL/MOL
REMARK 922        TOTAL FREE ENERGY PREDICTED BY IDOCK:   -3.74 KCAL/MOL
REMARK 923 INTER-LIGAND FREE ENERGY PREDICTED BY IDOCK:   -3.54 KCAL/MOL
REMARK 924 INTRA-LIGAND FREE ENERGY PREDICTED BY IDOCK:   -0.20 KCAL/MOL
REMARK 927      BINDING AFFINITY PREDICTED BY RF-SCORE:    0.00 PKD
ROOT
HETATM    1  C   UNL     1     -11.103  13.193  68.923  1.00  0.00    -0.310 C  
HETATM    2  C   UNL     1     -11.806  13.276  67.601  1.00  0.00    -0.357 C  
HETATM    3  O   UNL     1     -12.126  14.328  67.065  1.00  0.00    -0.425 OA 
ENDROOT
BRANCH   2   4
HETATM    4  O   UNL     1     -12.061  11.983  67.140  1.00  0.00    -0.587 OA 
BRANCH   4   5
HETATM    5  C   UNL     1     -11.008  11.161  66.686  1.00  0.00    -0.228 A  
HETATM    6  C   UNL     1     -10.176  11.508  65.622  1.00  0.00    -0.292 A  
HETATM    7  C   UNL     1      -9.170  10.627  65.241  1.00  0.00    -0.197 A  
HETATM    8  C   UNL     1      -8.959   9.437  65.929  1.00  0.00    -0.217 A  
HETATM    9  O   UNL     1      -8.364  10.901  64.175  1.00  0.00    -0.368 OA 
HETATM   10  H   UNL     1      -7.678  10.299  63.915  1.00  0.00     0.000 HD 
HETATM   11  C   UNL     1      -9.770   9.115  67.019  1.00  0.00    -0.245 A  
HETATM   12  C   UNL     1     -10.798   9.979  67.400  1.00  0.00    -0.313 A  
ENDBRANCH   4   5
ENDBRANCH   2   4
TORSDOF 2
ENDMDL
MODEL      121
REMARK 921   NORMALIZED FREE ENERGY PREDICTED BY IDOCK:   -3.18 KCAL/MOL
REMARK 922        TOTAL FREE ENERGY PREDICTED BY IDOCK:   -3.74 KCAL/MOL
REMARK 923 INTER-LIGAND FREE ENERGY PREDICTED BY IDOCK:   -3.72 KCAL/MOL
REMARK 924 INTRA-LIGAND FREE ENERGY PREDICTED BY IDOCK:   -0.01 KCAL/MOL
REMARK 927      BINDING AFFINITY PREDICTED BY RF-SCORE:    0.00 PKD
ROOT
HETATM    1  C   UNL     1     -12.234  12.405  63.490  1.00  0.00    -0.661 C  
HETATM    2  C   UNL     1     -12.264  13.333  64.668  1.00  0.00    -0.407 C  
HETATM    3  O   UNL     1     -13.272  13.906  65.058  1.00  0.00    -0.729 OA 
ENDROOT
BRANCH   2   4
HETATM    4  O   UNL     1     -10.973  13.455  65.184  1.00  0.00    -0.287 OA 
BRANCH   4   5
HETATM    5  C   UNL     1     -10.601  12.769  66.360  1.00  0.00    -0.255 A  
HETATM    6  C   UNL     1      -9.363  12.147  66.519  1.00  0.00    -0.229 A  
HETATM    7  C   UNL     1      -9.092  11.486  67.713  1.00  0.00    -0.165 A  
HETATM    8  C   UNL     1     -10.013  11.477  68.754  1.00  0.00    -0.169 A  
HETATM    9  O   UNL     1      -7.915  10.821  67.894  1.00  0.00    -0.107 OA 
HETATM   10  H   UNL     1      -7.730  10.370  68.709  1.00  0.00     0.000 HD 
HETATM   11  C   UNL     1     -11.235  12.137  68.603  1.00  0.00    -0.318 A  
HETATM   12  C   UNL     1     -11.531  12.785  67.403  1.00  0.00    -0.396 A  
ENDBRANCH   4   5
ENDBRANCH   2   4
TORSDOF 2
ENDMDL
MODEL      122
REMARK 921   NORMALIZED FREE ENERGY PREDICTED BY IDOCK:   -3.18 KCAL/MOL
REMARK 922        TOTAL FREE ENERGY PREDICTED BY IDOCK:   -3.74 KCAL/MOL
REMARK 923 INTER-LIGAND FREE ENERGY PREDICTED BY IDOCK:   -3.56 KCAL/MOL
REMARK 924 INTRA-LIGAND FREE ENERGY PREDICTED BY IDOCK:   -0.18 KCAL/MOL
REMARK 927      BINDING AFFINITY PREDICTED BY RF-SCORE:    0.00 PKD
ROOT
HETATM    1  C   UNL     1     -10.595   8.114  71.355  1.00  0.00    -0.269 C  
HETATM    2  C   UNL     1     -10.300   9.438  70.716  1.00  0.00    -0.298 C  
HETATM    3  O   UNL     1      -9.173   9.823  70.437  1.00  0.00    -0.237 OA 
ENDROOT
BRANCH   2   4
HETATM    4  O   UNL     1     -11.495  10.141  70.550  1.00  0.00    -0.287 OA 
BRANCH   4   5
HETATM    5  C   UNL     1     -11.578  11.212  69.636  1.00  0.00    -0.326 A  
HETATM    6  C   UNL     1     -11.610  11.032  68.253  1.00  0.00    -0.354 A  
HETATM    7  C   UNL     1     -11.683  12.151  67.431  1.00  0.00    -0.304 A  
HETATM    8  C   UNL     1     -11.768  13.432  67.967  1.00  0.00    -0.391 A  
HETATM    9  O   UNL     1     -11.667  12.026  66.073  1.00  0.00    -0.460 OA 
HETATM   10  H   UNL     1     -11.717  12.791  65.512  1.00  0.00     0.000 HD 
HETATM   11  C   UNL     1     -11.776  13.601  69.354  1.00  0.00    -0.379 A  
HETATM   12  C   UNL     1     -11.681  12.489  70.192  1.00  0.00    -0.255 A  
ENDBRANCH   4   5
ENDBRANCH   2   4
TORSDOF 2
ENDMDL
MODEL      123
REMARK 921   NORMALIZED FREE ENERGY PREDICTED BY IDOCK:   -3.17 KCAL/MOL
REMARK 922        TOTAL FREE ENERGY PREDICTED BY IDOCK:   -3.72 KCAL/MOL
REMARK 923 INTER-LIGAND FREE ENERGY PREDICTED BY IDOCK:   -3.53 KCAL/MOL
REMARK 924 INTRA-LIGAND FREE ENERGY PREDICTED BY IDOCK:   -0.19 KCAL/MOL
REMARK 927      BINDING AFFINITY PREDICTED BY RF-SCORE:    0.00 PKD
ROOT
HETATM    1  C   UNL     1      -9.997  14.524  67.079  1.00  0.00    -0.255 C  
HETATM    2  C   UNL     1     -11.364  14.660  67.680  1.00  0.00    -0.336 C  
HETATM    3  O   UNL     1     -11.725  15.626  68.337  1.00  0.00    -0.367 OA 
ENDROOT
BRANCH   2   4
HETATM    4  O   UNL     1     -12.099  13.506  67.404  1.00  0.00    -0.369 OA 
BRANCH   4   5
HETATM    5  C   UNL     1     -11.716  12.262  67.948  1.00  0.00    -0.347 A  
HETATM    6  C   UNL     1     -11.275  11.193  67.168  1.00  0.00    -0.320 A  
HETATM    7  C   UNL     1     -10.928  10.001  67.795  1.00  0.00    -0.249 A  
HETATM    8  C   UNL     1     -10.973   9.879  69.180  1.00  0.00    -0.233 A  
HETATM    9  O   UNL     1     -10.540   8.914  67.069  1.00  0.00    -0.274 OA 
HETATM   10  H   UNL     1     -10.304   8.100  67.498  1.00  0.00     0.000 HD 
HETATM   11  C   UNL     1     -11.376  10.967  69.957  1.00  0.00    -0.386 A  
HETATM   12  C   UNL     1     -11.749  12.162  69.341  1.00  0.00    -0.391 A  
ENDBRANCH   4   5
ENDBRANCH   2   4
TORSDOF 2
ENDMDL
MODEL      124
REMARK 921   NORMALIZED FREE ENERGY PREDICTED BY IDOCK:   -3.16 KCAL/MOL
REMARK 922        TOTAL FREE ENERGY PREDICTED BY IDOCK:   -3.72 KCAL/MOL
REMARK 923 INTER-LIGAND FREE ENERGY PREDICTED BY IDOCK:   -3.53 KCAL/MOL
REMARK 924 INTRA-LIGAND FREE ENERGY PREDICTED BY IDOCK:   -0.19 KCAL/MOL
REMARK 927      BINDING AFFINITY PREDICTED BY RF-SCORE:    0.00 PKD
ROOT
HETATM    1  C   UNL     1     -10.479  11.057  65.457  1.00  0.00    -0.302 C  
HETATM    2  C   UNL     1     -11.363  11.923  66.304  1.00  0.00    -0.334 C  
HETATM    3  O   UNL     1     -12.460  12.330  65.947  1.00  0.00    -0.535 OA 
ENDROOT
BRANCH   2   4
HETATM    4  O   UNL     1     -10.708  12.207  67.503  1.00  0.00    -0.221 OA 
BRANCH   4   5
HETATM    5  C   UNL     1     -10.909  11.397  68.641  1.00  0.00    -0.208 A  
HETATM    6  C   UNL     1      -9.970  10.467  69.088  1.00  0.00    -0.236 A  
HETATM    7  C   UNL     1     -10.262   9.707  70.215  1.00  0.00    -0.277 A  
HETATM    8  C   UNL     1     -11.448   9.891  70.919  1.00  0.00    -0.456 A  
HETATM    9  O   UNL     1      -9.397   8.751  70.659  1.00  0.00    -0.167 OA 
HETATM   10  H   UNL     1      -9.597   8.231  71.429  1.00  0.00     0.000 HD 
HETATM   11  C   UNL     1     -12.364  10.853  70.489  1.00  0.00    -0.463 A  
HETATM   12  C   UNL     1     -12.096  11.609  69.346  1.00  0.00    -0.328 A  
ENDBRANCH   4   5
ENDBRANCH   2   4
TORSDOF 2
ENDMDL
MODEL      125
REMARK 921   NORMALIZED FREE ENERGY PREDICTED BY IDOCK:   -3.15 KCAL/MOL
REMARK 922        TOTAL FREE ENERGY PREDICTED BY IDOCK:   -3.71 KCAL/MOL
REMARK 923 INTER-LIGAND FREE ENERGY PREDICTED BY IDOCK:   -3.58 KCAL/MOL
REMARK 924 INTRA-LIGAND FREE ENERGY PREDICTED BY IDOCK:   -0.13 KCAL/MOL
REMARK 927      BINDING AFFINITY PREDICTED BY RF-SCORE:    0.00 PKD
ROOT
HETATM    1  C   UNL     1      -6.889  15.458  68.953  1.00  0.00    -0.124 C  
HETATM    2  C   UNL     1      -8.015  16.442  68.844  1.00  0.00    -0.236 C  
HETATM    3  O   UNL     1      -7.854  17.648  68.715  1.00  0.00    -0.274 OA 
ENDROOT
BRANCH   2   4
HETATM    4  O   UNL     1      -9.228  15.762  68.964  1.00  0.00    -0.209 OA 
BRANCH   4   5
HETATM    5  C   UNL     1      -9.971  15.411  67.818  1.00  0.00    -0.225 A  
HETATM    6  C   UNL     1      -9.911  16.128  66.622  1.00  0.00    -0.270 A  
HETATM    7  C   UNL     1     -10.689  15.710  65.549  1.00  0.00    -0.389 A  
HETATM    8  C   UNL     1     -11.484  14.572  65.637  1.00  0.00    -0.341 A  
HETATM    9  O   UNL     1     -10.701  16.409  64.377  1.00  0.00    -0.898 OA 
HETATM   10  H   UNL     1     -11.233  16.123  63.644  1.00  0.00     0.000 HD 
HETATM   11  C   UNL     1     -11.508  13.836  66.824  1.00  0.00    -0.367 A  
HETATM   12  C   UNL     1     -10.749  14.255  67.918  1.00  0.00    -0.244 A  
ENDBRANCH   4   5
ENDBRANCH   2   4
TORSDOF 2
ENDMDL
MODEL      126
REMARK 921   NORMALIZED FREE ENERGY PREDICTED BY IDOCK:   -3.15 KCAL/MOL
REMARK 922        TOTAL FREE ENERGY PREDICTED BY IDOCK:   -3.70 KCAL/MOL
REMARK 923 INTER-LIGAND FREE ENERGY PREDICTED BY IDOCK:   -3.49 KCAL/MOL
REMARK 924 INTRA-LIGAND FREE ENERGY PREDICTED BY IDOCK:   -0.20 KCAL/MOL
REMARK 927      BINDING AFFINITY PREDICTED BY RF-SCORE:    0.00 PKD
ROOT
HETATM    1  C   UNL     1     -11.112   6.531  72.608  1.00  0.00    -0.291 C  
HETATM    2  C   UNL     1     -12.071   7.523  72.023  1.00  0.00    -0.291 C  
HETATM    3  O   UNL     1     -13.159   7.222  71.552  1.00  0.00    -0.369 OA 
ENDROOT
BRANCH   2   4
HETATM    4  O   UNL     1     -11.496   8.794  72.068  1.00  0.00    -0.338 OA 
BRANCH   4   5
HETATM    5  C   UNL     1     -11.517   9.633  70.935  1.00  0.00    -0.353 A  
HETATM    6  C   UNL     1     -10.935   9.282  69.716  1.00  0.00    -0.213 A  
HETATM    7  C   UNL     1     -10.998  10.181  68.657  1.00  0.00    -0.230 A  
HETATM    8  C   UNL     1     -11.665  11.395  68.784  1.00  0.00    -0.404 A  
HETATM    9  O   UNL     1     -10.400   9.901  67.464  1.00  0.00    -0.204 OA 
HETATM   10  H   UNL     1     -10.444  10.516  66.741  1.00  0.00     0.000 HD 
HETATM   11  C   UNL     1     -12.280  11.722  69.995  1.00  0.00    -0.317 A  
HETATM   12  C   UNL     1     -12.206  10.840  71.074  1.00  0.00    -0.485 A  
ENDBRANCH   4   5
ENDBRANCH   2   4
TORSDOF 2
ENDMDL
MODEL      127
REMARK 921   NORMALIZED FREE ENERGY PREDICTED BY IDOCK:   -3.12 KCAL/MOL
REMARK 922        TOTAL FREE ENERGY PREDICTED BY IDOCK:   -3.67 KCAL/MOL
REMARK 923 INTER-LIGAND FREE ENERGY PREDICTED BY IDOCK:   -3.53 KCAL/MOL
REMARK 924 INTRA-LIGAND FREE ENERGY PREDICTED BY IDOCK:   -0.13 KCAL/MOL
REMARK 927      BINDING AFFINITY PREDICTED BY RF-SCORE:    0.00 PKD
ROOT
HETATM    1  C   UNL     1     -10.992   5.788  70.836  1.00  0.00    -0.305 C  
HETATM    2  C   UNL     1     -10.837   6.570  69.566  1.00  0.00    -0.304 C  
HETATM    3  O   UNL     1     -11.241   6.187  68.477  1.00  0.00    -0.341 OA 
ENDROOT
BRANCH   2   4
HETATM    4  O   UNL     1     -10.132   7.744  69.837  1.00  0.00    -0.196 OA 
BRANCH   4   5
HETATM    5  C   UNL     1     -10.714   9.005  69.590  1.00  0.00    -0.219 A  
HETATM    6  C   UNL     1     -11.293   9.786  70.590  1.00  0.00    -0.401 A  
HETATM    7  C   UNL     1     -11.850  11.013  70.247  1.00  0.00    -0.367 A  
HETATM    8  C   UNL     1     -11.800  11.484  68.939  1.00  0.00    -0.406 A  
HETATM    9  O   UNL     1     -12.471  11.787  71.183  1.00  0.00    -0.358 OA 
HETATM   10  H   UNL     1     -12.852  12.625  70.947  1.00  0.00     0.000 HD 
HETATM   11  C   UNL     1     -11.183  10.715  67.950  1.00  0.00    -0.376 A  
HETATM   12  C   UNL     1     -10.638   9.471  68.275  1.00  0.00    -0.260 A  
ENDBRANCH   4   5
ENDBRANCH   2   4
TORSDOF 2
ENDMDL
MODEL      128
REMARK 921   NORMALIZED FREE ENERGY PREDICTED BY IDOCK:   -3.11 KCAL/MOL
REMARK 922        TOTAL FREE ENERGY PREDICTED BY IDOCK:   -3.66 KCAL/MOL
REMARK 923 INTER-LIGAND FREE ENERGY PREDICTED BY IDOCK:   -3.59 KCAL/MOL
REMARK 924 INTRA-LIGAND FREE ENERGY PREDICTED BY IDOCK:   -0.06 KCAL/MOL
REMARK 927      BINDING AFFINITY PREDICTED BY RF-SCORE:    0.00 PKD
ROOT
HETATM    1  C   UNL     1      -9.750  13.921  67.880  1.00  0.00    -0.231 C  
HETATM    2  C   UNL     1     -11.232  14.037  68.077  1.00  0.00    -0.279 C  
HETATM    3  O   UNL     1     -12.028  14.217  67.165  1.00  0.00    -0.405 OA 
ENDROOT
BRANCH   2   4
HETATM    4  O   UNL     1     -11.518  13.956  69.441  1.00  0.00    -0.256 OA 
BRANCH   4   5
HETATM    5  C   UNL     1     -11.939  12.738  70.015  1.00  0.00    -0.301 A  
HETATM    6  C   UNL     1     -11.403  11.501  69.656  1.00  0.00    -0.329 A  
HETATM    7  C   UNL     1     -11.890  10.354  70.272  1.00  0.00    -0.312 A  
HETATM    8  C   UNL     1     -12.865  10.428  71.261  1.00  0.00    -0.533 A  
HETATM    9  O   UNL     1     -11.431   9.119  69.917  1.00  0.00    -0.434 OA 
HETATM   10  H   UNL     1     -11.764   8.336  70.338  1.00  0.00     0.000 HD 
HETATM   11  C   UNL     1     -13.368  11.673  71.644  1.00  0.00    -0.254 A  
HETATM   12  C   UNL     1     -12.905  12.833  71.020  1.00  0.00    -0.262 A  
ENDBRANCH   4   5
ENDBRANCH   2   4
TORSDOF 2
ENDMDL
MODEL      129
REMARK 921   NORMALIZED FREE ENERGY PREDICTED BY IDOCK:   -3.11 KCAL/MOL
REMARK 922        TOTAL FREE ENERGY PREDICTED BY IDOCK:   -3.65 KCAL/MOL
REMARK 923 INTER-LIGAND FREE ENERGY PREDICTED BY IDOCK:   -3.86 KCAL/MOL
REMARK 924 INTRA-LIGAND FREE ENERGY PREDICTED BY IDOCK:    0.20 KCAL/MOL
REMARK 927      BINDING AFFINITY PREDICTED BY RF-SCORE:    0.00 PKD
ROOT
HETATM    1  C   UNL     1     -11.220  14.961  65.334  1.00  0.00    -0.359 C  
HETATM    2  C   UNL     1     -11.170  16.305  64.671  1.00  0.00    -0.254 C  
HETATM    3  O   UNL     1     -11.880  16.624  63.728  1.00  0.00    -0.933 OA 
ENDROOT
BRANCH   2   4
HETATM    4  O   UNL     1     -10.172  17.073  65.273  1.00  0.00    -0.601 OA 
BRANCH   4   5
HETATM    5  C   UNL     1      -9.695  16.751  66.561  1.00  0.00    -0.283 A  
HETATM    6  C   UNL     1      -8.488  16.088  66.782  1.00  0.00    -0.295 A  
HETATM    7  C   UNL     1      -8.106  15.805  68.089  1.00  0.00    -0.140 A  
HETATM    8  C   UNL     1      -8.885  16.209  69.168  1.00  0.00    -0.239 A  
HETATM    9  O   UNL     1      -6.959  15.115  68.351  1.00  0.00    -0.101 OA 
HETATM   10  H   UNL     1      -6.699  14.921  69.243  1.00  0.00     0.000 HD 
HETATM   11  C   UNL     1     -10.072  16.908  68.940  1.00  0.00    -0.297 A  
HETATM   12  C   UNL     1     -10.480  17.180  67.633  1.00  0.00    -0.355 A  
ENDBRANCH   4   5
ENDBRANCH   2   4
TORSDOF 2
ENDMDL
MODEL      130
REMARK 921   NORMALIZED FREE ENERGY PREDICTED BY IDOCK:   -3.10 KCAL/MOL
REMARK 922        TOTAL FREE ENERGY PREDICTED BY IDOCK:   -3.64 KCAL/MOL
REMARK 923 INTER-LIGAND FREE ENERGY PREDICTED BY IDOCK:   -3.42 KCAL/MOL
REMARK 924 INTRA-LIGAND FREE ENERGY PREDICTED BY IDOCK:   -0.23 KCAL/MOL
REMARK 927      BINDING AFFINITY PREDICTED BY RF-SCORE:    0.00 PKD
ROOT
HETATM    1  C   UNL     1     -12.518  10.193  71.317  1.00  0.00    -0.510 C  
HETATM    2  C   UNL     1     -13.241   9.031  71.928  1.00  0.00    -0.405 C  
HETATM    3  O   UNL     1     -14.367   8.682  71.603  1.00  0.00    -0.415 OA 
ENDROOT
BRANCH   2   4
HETATM    4  O   UNL     1     -12.443   8.474  72.929  1.00  0.00    -0.276 OA 
BRANCH   4   5
HETATM    5  C   UNL     1     -11.377   7.610  72.601  1.00  0.00    -0.370 A  
HETATM    6  C   UNL     1     -10.053   7.867  72.955  1.00  0.00    -0.384 A  
HETATM    7  C   UNL     1      -9.068   6.960  72.578  1.00  0.00    -0.132 A  
HETATM    8  C   UNL     1      -9.391   5.791  71.898  1.00  0.00    -0.165 A  
HETATM    9  O   UNL     1      -7.754   7.195  72.858  1.00  0.00    -0.085 OA 
HETATM   10  H   UNL     1      -7.082   6.575  72.600  1.00  0.00     0.000 HD 
HETATM   11  C   UNL     1     -10.725   5.520  71.583  1.00  0.00    -0.296 A  
HETATM   12  C   UNL     1     -11.722   6.432  71.935  1.00  0.00    -0.378 A  
ENDBRANCH   4   5
ENDBRANCH   2   4
TORSDOF 2
ENDMDL
MODEL      131
REMARK 921   NORMALIZED FREE ENERGY PREDICTED BY IDOCK:   -3.08 KCAL/MOL
REMARK 922        TOTAL FREE ENERGY PREDICTED BY IDOCK:   -3.62 KCAL/MOL
REMARK 923 INTER-LIGAND FREE ENERGY PREDICTED BY IDOCK:   -3.41 KCAL/MOL
REMARK 924 INTRA-LIGAND FREE ENERGY PREDICTED BY IDOCK:   -0.21 KCAL/MOL
REMARK 927      BINDING AFFINITY PREDICTED BY RF-SCORE:    0.00 PKD
ROOT
HETATM    1  C   UNL     1      -6.870   9.682  70.005  1.00  0.00    -0.085 C  
HETATM    2  C   UNL     1      -7.804   8.608  70.478  1.00  0.00    -0.096 C  
HETATM    3  O   UNL     1      -7.962   7.542  69.900  1.00  0.00    -0.117 OA 
ENDROOT
BRANCH   2   4
HETATM    4  O   UNL     1      -8.467   9.053  71.622  1.00  0.00    -0.339 OA 
BRANCH   4   5
HETATM    5  C   UNL     1      -9.871   8.960  71.721  1.00  0.00    -0.315 A  
HETATM    6  C   UNL     1     -10.742   9.715  70.935  1.00  0.00    -0.402 A  
HETATM    7  C   UNL     1     -12.112   9.560  71.112  1.00  0.00    -0.347 A  
HETATM    8  C   UNL     1     -12.620   8.640  72.023  1.00  0.00    -0.434 A  
HETATM    9  O   UNL     1     -13.000  10.314  70.402  1.00  0.00    -0.543 OA 
HETATM   10  H   UNL     1     -13.937  10.208  70.523  1.00  0.00     0.000 HD 
HETATM   11  C   UNL     1     -11.742   7.858  72.778  1.00  0.00    -0.338 A  
HETATM   12  C   UNL     1     -10.364   8.018  72.627  1.00  0.00    -0.398 A  
ENDBRANCH   4   5
ENDBRANCH   2   4
TORSDOF 2
ENDMDL
MODEL      132
REMARK 921   NORMALIZED FREE ENERGY PREDICTED BY IDOCK:   -3.07 KCAL/MOL
REMARK 922        TOTAL FREE ENERGY PREDICTED BY IDOCK:   -3.61 KCAL/MOL
REMARK 923 INTER-LIGAND FREE ENERGY PREDICTED BY IDOCK:   -3.49 KCAL/MOL
REMARK 924 INTRA-LIGAND FREE ENERGY PREDICTED BY IDOCK:   -0.13 KCAL/MOL
REMARK 927      BINDING AFFINITY PREDICTED BY RF-SCORE:    0.00 PKD
ROOT
HETATM    1  C   UNL     1     -10.926  14.050  65.373  1.00  0.00    -0.321 C  
HETATM    2  C   UNL     1     -11.799  12.834  65.297  1.00  0.00    -0.403 C  
HETATM    3  O   UNL     1     -12.509  12.565  64.338  1.00  0.00    -0.475 OA 
ENDROOT
BRANCH   2   4
HETATM    4  O   UNL     1     -11.693  12.122  66.493  1.00  0.00    -0.495 OA 
BRANCH   4   5
HETATM    5  C   UNL     1     -11.017  10.884  66.535  1.00  0.00    -0.121 A  
HETATM    6  C   UNL     1     -10.184  10.436  65.509  1.00  0.00    -0.316 A  
HETATM    7  C   UNL     1      -9.568   9.196  65.637  1.00  0.00    -0.217 A  
HETATM    8  C   UNL     1      -9.736   8.425  66.782  1.00  0.00    -0.309 A  
HETATM    9  O   UNL     1      -8.786   8.696  64.638  1.00  0.00    -0.393 OA 
HETATM   10  H   UNL     1      -8.366   7.849  64.726  1.00  0.00     0.000 HD 
HETATM   11  C   UNL     1     -10.538   8.899  67.823  1.00  0.00    -0.266 A  
HETATM   12  C   UNL     1     -11.181  10.132  67.700  1.00  0.00    -0.169 A  
ENDBRANCH   4   5
ENDBRANCH   2   4
TORSDOF 2
ENDMDL
MODEL      133
REMARK 921   NORMALIZED FREE ENERGY PREDICTED BY IDOCK:   -3.06 KCAL/MOL
REMARK 922        TOTAL FREE ENERGY PREDICTED BY IDOCK:   -3.61 KCAL/MOL
REMARK 923 INTER-LIGAND FREE ENERGY PREDICTED BY IDOCK:   -3.48 KCAL/MOL
REMARK 924 INTRA-LIGAND FREE ENERGY PREDICTED BY IDOCK:   -0.12 KCAL/MOL
REMARK 927      BINDING AFFINITY PREDICTED BY RF-SCORE:    0.00 PKD
ROOT
HETATM    1  C   UNL     1      -9.565   9.627  66.768  1.00  0.00    -0.225 C  
HETATM    2  C   UNL     1      -9.453   9.860  65.291  1.00  0.00    -0.268 C  
HETATM    3  O   UNL     1      -9.509   8.968  64.455  1.00  0.00     0.176 OA 
ENDROOT
BRANCH   2   4
HETATM    4  O   UNL     1      -9.234  11.219  65.060  1.00  0.00    -0.203 OA 
BRANCH   4   5
HETATM    5  C   UNL     1     -10.318  12.113  64.948  1.00  0.00    -0.289 A  
HETATM    6  C   UNL     1     -10.851  12.804  66.037  1.00  0.00    -0.301 A  
HETATM    7  C   UNL     1     -11.929  13.658  65.829  1.00  0.00    -0.395 A  
HETATM    8  C   UNL     1     -12.448  13.862  64.555  1.00  0.00    -0.336 A  
HETATM    9  O   UNL     1     -12.513  14.315  66.872  1.00  0.00    -0.581 OA 
HETATM   10  H   UNL     1     -13.250  14.898  66.729  1.00  0.00     0.000 HD 
HETATM   11  C   UNL     1     -11.883  13.199  63.464  1.00  0.00    -0.539 A  
HETATM   12  C   UNL     1     -10.816  12.321  63.659  1.00  0.00    -0.522 A  
ENDBRANCH   4   5
ENDBRANCH   2   4
TORSDOF 2
ENDMDL
MODEL      134
REMARK 921   NORMALIZED FREE ENERGY PREDICTED BY IDOCK:   -3.05 KCAL/MOL
REMARK 922        TOTAL FREE ENERGY PREDICTED BY IDOCK:   -3.59 KCAL/MOL
REMARK 923 INTER-LIGAND FREE ENERGY PREDICTED BY IDOCK:   -3.42 KCAL/MOL
REMARK 924 INTRA-LIGAND FREE ENERGY PREDICTED BY IDOCK:   -0.17 KCAL/MOL
REMARK 927      BINDING AFFINITY PREDICTED BY RF-SCORE:    0.00 PKD
ROOT
HETATM    1  C   UNL     1     -12.385  13.899  70.506  1.00  0.00    -0.439 C  
HETATM    2  C   UNL     1     -12.180  15.384  70.450  1.00  0.00    -0.391 C  
HETATM    3  O   UNL     1     -12.161  16.105  71.438  1.00  0.00    -0.432 OA 
ENDROOT
BRANCH   2   4
HETATM    4  O   UNL     1     -12.068  15.778  69.116  1.00  0.00    -0.353 OA 
BRANCH   4   5
HETATM    5  C   UNL     1     -10.806  15.850  68.491  1.00  0.00    -0.298 A  
HETATM    6  C   UNL     1      -9.618  16.052  69.194  1.00  0.00    -0.257 A  
HETATM    7  C   UNL     1      -8.422  16.118  68.488  1.00  0.00    -0.197 A  
HETATM    8  C   UNL     1      -8.391  15.944  67.109  1.00  0.00    -0.231 A  
HETATM    9  O   UNL     1      -7.243  16.363  69.128  1.00  0.00    -0.205 OA 
HETATM   10  H   UNL     1      -6.426  16.408  68.645  1.00  0.00     0.000 HD 
HETATM   11  C   UNL     1      -9.580  15.701  66.416  1.00  0.00    -0.316 A  
HETATM   12  C   UNL     1     -10.791  15.654  67.108  1.00  0.00    -0.297 A  
ENDBRANCH   4   5
ENDBRANCH   2   4
TORSDOF 2
ENDMDL
MODEL      135
REMARK 921   NORMALIZED FREE ENERGY PREDICTED BY IDOCK:   -3.04 KCAL/MOL
REMARK 922        TOTAL FREE ENERGY PREDICTED BY IDOCK:   -3.58 KCAL/MOL
REMARK 923 INTER-LIGAND FREE ENERGY PREDICTED BY IDOCK:   -3.40 KCAL/MOL
REMARK 924 INTRA-LIGAND FREE ENERGY PREDICTED BY IDOCK:   -0.18 KCAL/MOL
REMARK 927      BINDING AFFINITY PREDICTED BY RF-SCORE:    0.00 PKD
ROOT
HETATM    1  C   UNL     1     -10.069  17.708  66.243  1.00  0.00    -0.344 C  
HETATM    2  C   UNL     1     -10.731  16.407  65.898  1.00  0.00    -0.214 C  
HETATM    3  O   UNL     1     -11.014  16.069  64.757  1.00  0.00    -0.551 OA 
ENDROOT
BRANCH   2   4
HETATM    4  O   UNL     1     -10.997  15.705  67.075  1.00  0.00    -0.322 OA 
BRANCH   4   5
HETATM    5  C   UNL     1     -10.591  14.362  67.218  1.00  0.00    -0.279 A  
HETATM    6  C   UNL     1      -9.323  13.907  66.855  1.00  0.00    -0.265 A  
HETATM    7  C   UNL     1      -9.018  12.561  67.025  1.00  0.00    -0.211 A  
HETATM    8  C   UNL     1      -9.938  11.681  67.586  1.00  0.00    -0.201 A  
HETATM    9  O   UNL     1      -7.809  12.061  66.638  1.00  0.00    -0.349 OA 
HETATM   10  H   UNL     1      -7.602  11.142  66.754  1.00  0.00     0.000 HD 
HETATM   11  C   UNL     1     -11.191  12.152  67.985  1.00  0.00    -0.319 A  
HETATM   12  C   UNL     1     -11.519  13.496  67.801  1.00  0.00    -0.349 A  
ENDBRANCH   4   5
ENDBRANCH   2   4
TORSDOF 2
ENDMDL
MODEL      136
REMARK 921   NORMALIZED FREE ENERGY PREDICTED BY IDOCK:   -3.02 KCAL/MOL
REMARK 922        TOTAL FREE ENERGY PREDICTED BY IDOCK:   -3.56 KCAL/MOL
REMARK 923 INTER-LIGAND FREE ENERGY PREDICTED BY IDOCK:   -3.58 KCAL/MOL
REMARK 924 INTRA-LIGAND FREE ENERGY PREDICTED BY IDOCK:    0.02 KCAL/MOL
REMARK 927      BINDING AFFINITY PREDICTED BY RF-SCORE:    0.00 PKD
ROOT
HETATM    1  C   UNL     1      -8.680  16.117  66.181  1.00  0.00    -0.358 C  
HETATM    2  C   UNL     1      -9.986  15.428  65.922  1.00  0.00    -0.346 C  
HETATM    3  O   UNL     1     -10.851  15.867  65.177  1.00  0.00    -0.414 OA 
ENDROOT
BRANCH   2   4
HETATM    4  O   UNL     1     -10.048  14.266  66.693  1.00  0.00    -0.261 OA 
BRANCH   4   5
HETATM    5  C   UNL     1     -10.867  14.208  67.840  1.00  0.00    -0.245 A  
HETATM    6  C   UNL     1     -11.173  13.017  68.498  1.00  0.00    -0.309 A  
HETATM    7  C   UNL     1     -11.998  13.060  69.617  1.00  0.00    -0.302 A  
HETATM    8  C   UNL     1     -12.480  14.268  70.108  1.00  0.00    -0.393 A  
HETATM    9  O   UNL     1     -12.364  11.915  70.262  1.00  0.00    -0.274 OA 
HETATM   10  H   UNL     1     -12.928  11.945  71.026  1.00  0.00     0.000 HD 
HETATM   11  C   UNL     1     -12.136  15.461  69.468  1.00  0.00    -0.332 A  
HETATM   12  C   UNL     1     -11.328  15.432  68.331  1.00  0.00    -0.345 A  
ENDBRANCH   4   5
ENDBRANCH   2   4
TORSDOF 2
ENDMDL
MODEL      137
REMARK 921   NORMALIZED FREE ENERGY PREDICTED BY IDOCK:   -3.02 KCAL/MOL
REMARK 922        TOTAL FREE ENERGY PREDICTED BY IDOCK:   -3.56 KCAL/MOL
REMARK 923 INTER-LIGAND FREE ENERGY PREDICTED BY IDOCK:   -3.36 KCAL/MOL
REMARK 924 INTRA-LIGAND FREE ENERGY PREDICTED BY IDOCK:   -0.19 KCAL/MOL
REMARK 927      BINDING AFFINITY PREDICTED BY RF-SCORE:    0.00 PKD
ROOT
HETATM    1  C   UNL     1      -8.876   6.260  68.337  1.00  0.00    -0.114 C  
HETATM    2  C   UNL     1     -10.232   6.801  67.993  1.00  0.00    -0.171 C  
HETATM    3  O   UNL     1     -10.440   7.580  67.073  1.00  0.00    -0.293 OA 
ENDROOT
BRANCH   2   4
HETATM    4  O   UNL     1     -11.164   6.310  68.909  1.00  0.00    -0.370 OA 
BRANCH   4   5
HETATM    5  C   UNL     1     -11.142   6.736  70.254  1.00  0.00    -0.310 A  
HETATM    6  C   UNL     1     -11.154   5.852  71.333  1.00  0.00    -0.313 A  
HETATM    7  C   UNL     1     -11.141   6.367  72.624  1.00  0.00    -0.261 A  
HETATM    8  C   UNL     1     -11.073   7.738  72.850  1.00  0.00    -0.457 A  
HETATM    9  O   UNL     1     -11.202   5.543  73.709  1.00  0.00    -0.423 OA 
HETATM   10  H   UNL     1     -11.194   5.895  74.590  1.00  0.00     0.000 HD 
HETATM   11  C   UNL     1     -11.021   8.616  71.764  1.00  0.00    -0.396 A  
HETATM   12  C   UNL     1     -11.055   8.115  70.462  1.00  0.00    -0.257 A  
ENDBRANCH   4   5
ENDBRANCH   2   4
TORSDOF 2
ENDMDL
MODEL      138
REMARK 921   NORMALIZED FREE ENERGY PREDICTED BY IDOCK:   -3.01 KCAL/MOL
REMARK 922        TOTAL FREE ENERGY PREDICTED BY IDOCK:   -3.54 KCAL/MOL
REMARK 923 INTER-LIGAND FREE ENERGY PREDICTED BY IDOCK:   -3.41 KCAL/MOL
REMARK 924 INTRA-LIGAND FREE ENERGY PREDICTED BY IDOCK:   -0.13 KCAL/MOL
REMARK 927      BINDING AFFINITY PREDICTED BY RF-SCORE:    0.00 PKD
ROOT
HETATM    1  C   UNL     1     -10.844   3.453  73.848  1.00  0.00    -0.299 C  
HETATM    2  C   UNL     1      -9.812   4.514  73.610  1.00  0.00    -0.134 C  
HETATM    3  O   UNL     1      -8.645   4.279  73.328  1.00  0.00    -0.093 OA 
ENDROOT
BRANCH   2   4
HETATM    4  O   UNL     1     -10.393   5.768  73.809  1.00  0.00    -0.217 OA 
BRANCH   4   5
HETATM    5  C   UNL     1     -10.736   6.584  72.711  1.00  0.00    -0.240 A  
HETATM    6  C   UNL     1     -11.110   6.071  71.469  1.00  0.00    -0.336 A  
HETATM    7  C   UNL     1     -11.421   6.957  70.443  1.00  0.00    -0.338 A  
HETATM    8  C   UNL     1     -11.406   8.332  70.651  1.00  0.00    -0.257 A  
HETATM    9  O   UNL     1     -11.743   6.502  69.198  1.00  0.00    -0.623 OA 
HETATM   10  H   UNL     1     -11.956   7.107  68.497  1.00  0.00     0.000 HD 
HETATM   11  C   UNL     1     -11.070   8.837  71.909  1.00  0.00    -0.434 A  
HETATM   12  C   UNL     1     -10.734   7.962  72.943  1.00  0.00    -0.440 A  
ENDBRANCH   4   5
ENDBRANCH   2   4
TORSDOF 2
ENDMDL
MODEL      139
REMARK 921   NORMALIZED FREE ENERGY PREDICTED BY IDOCK:   -3.00 KCAL/MOL
REMARK 922        TOTAL FREE ENERGY PREDICTED BY IDOCK:   -3.54 KCAL/MOL
REMARK 923 INTER-LIGAND FREE ENERGY PREDICTED BY IDOCK:   -3.53 KCAL/MOL
REMARK 924 INTRA-LIGAND FREE ENERGY PREDICTED BY IDOCK:   -0.01 KCAL/MOL
REMARK 927      BINDING AFFINITY PREDICTED BY RF-SCORE:    0.00 PKD
ROOT
HETATM    1  C   UNL     1      -9.603   7.848  68.100  1.00  0.00    -0.163 C  
HETATM    2  C   UNL     1      -9.448   8.536  69.423  1.00  0.00    -0.161 C  
HETATM    3  O   UNL     1      -8.719   8.133  70.319  1.00  0.00    -0.130 OA 
ENDROOT
BRANCH   2   4
HETATM    4  O   UNL     1     -10.291   9.648  69.459  1.00  0.00    -0.196 OA 
BRANCH   4   5
HETATM    5  C   UNL     1     -11.331   9.730  70.409  1.00  0.00    -0.297 A  
HETATM    6  C   UNL     1     -11.896  10.939  70.816  1.00  0.00    -0.424 A  
HETATM    7  C   UNL     1     -12.912  10.920  71.765  1.00  0.00    -0.451 A  
HETATM    8  C   UNL     1     -13.396   9.720  72.276  1.00  0.00    -0.472 A  
HETATM    9  O   UNL     1     -13.460  12.079  72.230  1.00  0.00    -0.593 OA 
HETATM   10  H   UNL     1     -14.153  12.066  72.879  1.00  0.00     0.000 HD 
HETATM   11  C   UNL     1     -12.853   8.512  71.833  1.00  0.00    -0.399 A  
HETATM   12  C   UNL     1     -11.817   8.515  70.897  1.00  0.00    -0.243 A  
ENDBRANCH   4   5
ENDBRANCH   2   4
TORSDOF 2
ENDMDL
MODEL      140
REMARK 921   NORMALIZED FREE ENERGY PREDICTED BY IDOCK:   -3.00 KCAL/MOL
REMARK 922        TOTAL FREE ENERGY PREDICTED BY IDOCK:   -3.53 KCAL/MOL
REMARK 923 INTER-LIGAND FREE ENERGY PREDICTED BY IDOCK:   -3.41 KCAL/MOL
REMARK 924 INTRA-LIGAND FREE ENERGY PREDICTED BY IDOCK:   -0.12 KCAL/MOL
REMARK 927      BINDING AFFINITY PREDICTED BY RF-SCORE:    0.00 PKD
ROOT
HETATM    1  C   UNL     1     -10.406   6.004  68.421  1.00  0.00    -0.252 C  
HETATM    2  C   UNL     1      -9.551   6.514  69.542  1.00  0.00    -0.145 C  
HETATM    3  O   UNL     1      -8.948   5.791  70.322  1.00  0.00    -0.138 OA 
ENDROOT
BRANCH   2   4
HETATM    4  O   UNL     1      -9.610   7.909  69.561  1.00  0.00    -0.160 OA 
BRANCH   4   5
HETATM    5  C   UNL     1     -10.672   8.575  70.208  1.00  0.00    -0.230 A  
HETATM    6  C   UNL     1     -11.493   7.960  71.154  1.00  0.00    -0.297 A  
HETATM    7  C   UNL     1     -12.521   8.697  71.730  1.00  0.00    -0.346 A  
HETATM    8  C   UNL     1     -12.712  10.037  71.412  1.00  0.00    -0.518 A  
HETATM    9  O   UNL     1     -13.380   8.123  72.622  1.00  0.00    -0.556 OA 
HETATM   10  H   UNL     1     -14.082   8.627  73.016  1.00  0.00     0.000 HD 
HETATM   11  C   UNL     1     -11.860  10.657  70.494  1.00  0.00    -0.453 A  
HETATM   12  C   UNL     1     -10.837   9.925  69.890  1.00  0.00    -0.316 A  
ENDBRANCH   4   5
ENDBRANCH   2   4
TORSDOF 2
ENDMDL
MODEL      141
REMARK 921   NORMALIZED FREE ENERGY PREDICTED BY IDOCK:   -2.96 KCAL/MOL
REMARK 922        TOTAL FREE ENERGY PREDICTED BY IDOCK:   -3.49 KCAL/MOL
REMARK 923 INTER-LIGAND FREE ENERGY PREDICTED BY IDOCK:   -3.34 KCAL/MOL
REMARK 924 INTRA-LIGAND FREE ENERGY PREDICTED BY IDOCK:   -0.15 KCAL/MOL
REMARK 927      BINDING AFFINITY PREDICTED BY RF-SCORE:    0.00 PKD
ROOT
HETATM    1  C   UNL     1     -11.929  14.396  66.647  1.00  0.00    -0.414 C  
HETATM    2  C   UNL     1     -11.479  14.635  68.057  1.00  0.00    -0.324 C  
HETATM    3  O   UNL     1     -11.185  13.740  68.838  1.00  0.00    -0.248 OA 
ENDROOT
BRANCH   2   4
HETATM    4  O   UNL     1     -11.506  16.006  68.318  1.00  0.00    -0.355 OA 
BRANCH   4   5
HETATM    5  C   UNL     1     -10.331  16.780  68.215  1.00  0.00    -0.319 A  
HETATM    6  C   UNL     1      -9.073  16.307  68.588  1.00  0.00    -0.228 A  
HETATM    7  C   UNL     1      -7.974  17.148  68.459  1.00  0.00    -0.259 A  
HETATM    8  C   UNL     1      -8.106  18.427  67.928  1.00  0.00    -0.271 A  
HETATM    9  O   UNL     1      -6.732  16.747  68.857  1.00  0.00    -0.171 OA 
HETATM   10  H   UNL     1      -5.982  17.322  68.769  1.00  0.00     0.000 HD 
HETATM   11  C   UNL     1      -9.362  18.879  67.519  1.00  0.00    -0.327 A  
HETATM   12  C   UNL     1     -10.479  18.054  67.663  1.00  0.00    -0.422 A  
ENDBRANCH   4   5
ENDBRANCH   2   4
TORSDOF 2
ENDMDL
MODEL      142
REMARK 921   NORMALIZED FREE ENERGY PREDICTED BY IDOCK:   -2.95 KCAL/MOL
REMARK 922        TOTAL FREE ENERGY PREDICTED BY IDOCK:   -3.48 KCAL/MOL
REMARK 923 INTER-LIGAND FREE ENERGY PREDICTED BY IDOCK:   -3.29 KCAL/MOL
REMARK 924 INTRA-LIGAND FREE ENERGY PREDICTED BY IDOCK:   -0.19 KCAL/MOL
REMARK 927      BINDING AFFINITY PREDICTED BY RF-SCORE:    0.00 PKD
ROOT
HETATM    1  C   UNL     1      -9.289   8.954  66.413  1.00  0.00    -0.262 C  
HETATM    2  C   UNL     1      -9.854  10.339  66.507  1.00  0.00    -0.212 C  
HETATM    3  O   UNL     1     -10.464  10.889  65.601  1.00  0.00    -0.249 OA 
ENDROOT
BRANCH   2   4
HETATM    4  O   UNL     1      -9.527  10.881  67.752  1.00  0.00    -0.154 OA 
BRANCH   4   5
HETATM    5  C   UNL     1     -10.144  10.404  68.927  1.00  0.00    -0.201 A  
HETATM    6  C   UNL     1     -11.521  10.467  69.144  1.00  0.00    -0.314 A  
HETATM    7  C   UNL     1     -12.036   9.980  70.340  1.00  0.00    -0.236 A  
HETATM    8  C   UNL     1     -11.209   9.398  71.294  1.00  0.00    -0.437 A  
HETATM    9  O   UNL     1     -13.369  10.066  70.616  1.00  0.00    -0.602 OA 
HETATM   10  H   UNL     1     -13.720   9.734  71.434  1.00  0.00     0.000 HD 
HETATM   11  C   UNL     1      -9.836   9.301  71.053  1.00  0.00    -0.355 A  
HETATM   12  C   UNL     1      -9.301   9.806  69.867  1.00  0.00    -0.262 A  
ENDBRANCH   4   5
ENDBRANCH   2   4
TORSDOF 2
ENDMDL
MODEL      143
REMARK 921   NORMALIZED FREE ENERGY PREDICTED BY IDOCK:   -2.94 KCAL/MOL
REMARK 922        TOTAL FREE ENERGY PREDICTED BY IDOCK:   -3.47 KCAL/MOL
REMARK 923 INTER-LIGAND FREE ENERGY PREDICTED BY IDOCK:   -3.32 KCAL/MOL
REMARK 924 INTRA-LIGAND FREE ENERGY PREDICTED BY IDOCK:   -0.15 KCAL/MOL
REMARK 927      BINDING AFFINITY PREDICTED BY RF-SCORE:    0.00 PKD
ROOT
HETATM    1  C   UNL     1      -8.100  16.774  68.250  1.00  0.00    -0.202 C  
HETATM    2  C   UNL     1      -8.135  16.248  66.846  1.00  0.00    -0.235 C  
HETATM    3  O   UNL     1      -8.252  16.957  65.856  1.00  0.00    -0.478 OA 
ENDROOT
BRANCH   2   4
HETATM    4  O   UNL     1      -8.062  14.854  66.880  1.00  0.00    -0.195 OA 
BRANCH   4   5
HETATM    5  C   UNL     1      -9.237  14.073  66.881  1.00  0.00    -0.260 A  
HETATM    6  C   UNL     1     -10.383  14.421  66.165  1.00  0.00    -0.305 A  
HETATM    7  C   UNL     1     -11.496  13.591  66.236  1.00  0.00    -0.326 A  
HETATM    8  C   UNL     1     -11.467  12.410  66.969  1.00  0.00    -0.423 A  
HETATM    9  O   UNL     1     -12.655  13.916  65.593  1.00  0.00    -0.492 OA 
HETATM   10  H   UNL     1     -13.415  13.349  65.642  1.00  0.00     0.000 HD 
HETATM   11  C   UNL     1     -10.302  12.048  67.650  1.00  0.00    -0.213 A  
HETATM   12  C   UNL     1      -9.183  12.881  67.607  1.00  0.00    -0.193 A  
ENDBRANCH   4   5
ENDBRANCH   2   4
TORSDOF 2
ENDMDL
MODEL      144
REMARK 921   NORMALIZED FREE ENERGY PREDICTED BY IDOCK:   -2.94 KCAL/MOL
REMARK 922        TOTAL FREE ENERGY PREDICTED BY IDOCK:   -3.47 KCAL/MOL
REMARK 923 INTER-LIGAND FREE ENERGY PREDICTED BY IDOCK:   -3.39 KCAL/MOL
REMARK 924 INTRA-LIGAND FREE ENERGY PREDICTED BY IDOCK:   -0.08 KCAL/MOL
REMARK 927      BINDING AFFINITY PREDICTED BY RF-SCORE:    0.00 PKD
ROOT
HETATM    1  C   UNL     1      -9.314   4.702  68.483  1.00  0.00    -0.190 C  
HETATM    2  C   UNL     1     -10.532   5.578  68.480  1.00  0.00    -0.164 C  
HETATM    3  O   UNL     1     -11.022   6.060  67.468  1.00  0.00    -0.304 OA 
ENDROOT
BRANCH   2   4
HETATM    4  O   UNL     1     -10.956   5.772  69.796  1.00  0.00    -0.357 OA 
BRANCH   4   5
HETATM    5  C   UNL     1     -11.022   7.070  70.345  1.00  0.00    -0.268 A  
HETATM    6  C   UNL     1     -10.277   8.143  69.855  1.00  0.00    -0.204 A  
HETATM    7  C   UNL     1     -10.402   9.384  70.470  1.00  0.00    -0.281 A  
HETATM    8  C   UNL     1     -11.285   9.576  71.527  1.00  0.00    -0.437 A  
HETATM    9  O   UNL     1      -9.657  10.449  70.057  1.00  0.00    -0.403 OA 
HETATM   10  H   UNL     1      -9.743  11.296  70.477  1.00  0.00     0.000 HD 
HETATM   11  C   UNL     1     -12.057   8.507  71.986  1.00  0.00    -0.428 A  
HETATM   12  C   UNL     1     -11.927   7.249  71.394  1.00  0.00    -0.354 A  
ENDBRANCH   4   5
ENDBRANCH   2   4
TORSDOF 2
ENDMDL
MODEL      145
REMARK 921   NORMALIZED FREE ENERGY PREDICTED BY IDOCK:   -2.92 KCAL/MOL
REMARK 922        TOTAL FREE ENERGY PREDICTED BY IDOCK:   -3.45 KCAL/MOL
REMARK 923 INTER-LIGAND FREE ENERGY PREDICTED BY IDOCK:   -3.33 KCAL/MOL
REMARK 924 INTRA-LIGAND FREE ENERGY PREDICTED BY IDOCK:   -0.12 KCAL/MOL
REMARK 927      BINDING AFFINITY PREDICTED BY RF-SCORE:    0.00 PKD
ROOT
HETATM    1  C   UNL     1     -13.405  10.049  71.924  1.00  0.00    -0.516 C  
HETATM    2  C   UNL     1     -12.179  10.391  71.132  1.00  0.00    -0.394 C  
HETATM    3  O   UNL     1     -11.878  11.530  70.803  1.00  0.00    -0.292 OA 
ENDROOT
BRANCH   2   4
HETATM    4  O   UNL     1     -11.501   9.214  70.810  1.00  0.00    -0.267 OA 
BRANCH   4   5
HETATM    5  C   UNL     1     -10.408   8.779  71.589  1.00  0.00    -0.321 A  
HETATM    6  C   UNL     1      -9.090   9.156  71.329  1.00  0.00    -0.232 A  
HETATM    7  C   UNL     1      -8.078   8.667  72.148  1.00  0.00    -0.046 A  
HETATM    8  C   UNL     1      -8.366   7.851  73.237  1.00  0.00    -0.248 A  
HETATM    9  O   UNL     1      -6.771   8.967  71.902  1.00  0.00    -0.229 OA 
HETATM   10  H   UNL     1      -6.080   8.633  72.461  1.00  0.00     0.000 HD 
HETATM   11  C   UNL     1      -9.692   7.511  73.515  1.00  0.00    -0.358 A  
HETATM   12  C   UNL     1     -10.717   7.976  72.690  1.00  0.00    -0.426 A  
ENDBRANCH   4   5
ENDBRANCH   2   4
TORSDOF 2
ENDMDL
MODEL      146
REMARK 921   NORMALIZED FREE ENERGY PREDICTED BY IDOCK:   -2.92 KCAL/MOL
REMARK 922        TOTAL FREE ENERGY PREDICTED BY IDOCK:   -3.44 KCAL/MOL
REMARK 923 INTER-LIGAND FREE ENERGY PREDICTED BY IDOCK:   -3.25 KCAL/MOL
REMARK 924 INTRA-LIGAND FREE ENERGY PREDICTED BY IDOCK:   -0.20 KCAL/MOL
REMARK 927      BINDING AFFINITY PREDICTED BY RF-SCORE:    0.00 PKD
ROOT
HETATM    1  C   UNL     1     -10.884   5.938  69.380  1.00  0.00    -0.422 C  
HETATM    2  C   UNL     1     -10.842   6.542  68.009  1.00  0.00    -0.295 C  
HETATM    3  O   UNL     1     -11.507   6.137  67.066  1.00  0.00    -0.064 OA 
ENDROOT
BRANCH   2   4
HETATM    4  O   UNL     1      -9.905   7.577  67.996  1.00  0.00    -0.143 OA 
BRANCH   4   5
HETATM    5  C   UNL     1     -10.212   8.816  67.396  1.00  0.00    -0.252 A  
HETATM    6  C   UNL     1     -10.948   9.812  68.040  1.00  0.00    -0.236 A  
HETATM    7  C   UNL     1     -11.208  10.998  67.363  1.00  0.00    -0.285 A  
HETATM    8  C   UNL     1     -10.712  11.219  66.083  1.00  0.00    -0.307 A  
HETATM    9  O   UNL     1     -11.966  11.979  67.934  1.00  0.00    -0.526 OA 
HETATM   10  H   UNL     1     -12.144  12.789  67.471  1.00  0.00     0.000 HD 
HETATM   11  C   UNL     1      -9.942  10.234  65.461  1.00  0.00    -0.364 A  
HETATM   12  C   UNL     1      -9.690   9.029  66.118  1.00  0.00    -0.354 A  
ENDBRANCH   4   5
ENDBRANCH   2   4
TORSDOF 2
ENDMDL
MODEL      147
REMARK 921   NORMALIZED FREE ENERGY PREDICTED BY IDOCK:   -2.90 KCAL/MOL
REMARK 922        TOTAL FREE ENERGY PREDICTED BY IDOCK:   -3.43 KCAL/MOL
REMARK 923 INTER-LIGAND FREE ENERGY PREDICTED BY IDOCK:   -3.22 KCAL/MOL
REMARK 924 INTRA-LIGAND FREE ENERGY PREDICTED BY IDOCK:   -0.21 KCAL/MOL
REMARK 927      BINDING AFFINITY PREDICTED BY RF-SCORE:    0.00 PKD
ROOT
HETATM    1  C   UNL     1     -11.564  13.976  67.957  1.00  0.00    -0.372 C  
HETATM    2  C   UNL     1     -11.001  14.004  66.568  1.00  0.00    -0.306 C  
HETATM    3  O   UNL     1     -10.275  14.893  66.145  1.00  0.00    -0.273 OA 
ENDROOT
BRANCH   2   4
HETATM    4  O   UNL     1     -11.478  12.899  65.861  1.00  0.00    -0.317 OA 
BRANCH   4   5
HETATM    5  C   UNL     1     -10.587  12.032  65.195  1.00  0.00    -0.288 A  
HETATM    6  C   UNL     1      -9.575  11.331  65.851  1.00  0.00    -0.249 A  
HETATM    7  C   UNL     1      -8.738  10.506  65.107  1.00  0.00    -0.185 A  
HETATM    8  C   UNL     1      -8.925  10.339  63.738  1.00  0.00    -0.260 A  
HETATM    9  O   UNL     1      -7.704   9.840  65.697  1.00  0.00    -0.107 OA 
HETATM   10  H   UNL     1      -7.133   9.277  65.188  1.00  0.00     0.000 HD 
HETATM   11  C   UNL     1      -9.966  11.013  63.096  1.00  0.00    -0.382 A  
HETATM   12  C   UNL     1     -10.800  11.862  63.825  1.00  0.00    -0.481 A  
ENDBRANCH   4   5
ENDBRANCH   2   4
TORSDOF 2
ENDMDL
MODEL      148
REMARK 921   NORMALIZED FREE ENERGY PREDICTED BY IDOCK:   -2.89 KCAL/MOL
REMARK 922        TOTAL FREE ENERGY PREDICTED BY IDOCK:   -3.41 KCAL/MOL
REMARK 923 INTER-LIGAND FREE ENERGY PREDICTED BY IDOCK:   -3.19 KCAL/MOL
REMARK 924 INTRA-LIGAND FREE ENERGY PREDICTED BY IDOCK:   -0.23 KCAL/MOL
REMARK 927      BINDING AFFINITY PREDICTED BY RF-SCORE:    0.00 PKD
ROOT
HETATM    1  C   UNL     1     -10.622  13.243  64.431  1.00  0.00    -0.438 C  
HETATM    2  C   UNL     1     -10.451  12.431  65.680  1.00  0.00    -0.261 C  
HETATM    3  O   UNL     1      -9.725  11.450  65.760  1.00  0.00    -0.216 OA 
ENDROOT
BRANCH   2   4
HETATM    4  O   UNL     1     -11.278  12.951  66.677  1.00  0.00    -0.283 OA 
BRANCH   4   5
HETATM    5  C   UNL     1     -10.823  13.985  67.522  1.00  0.00    -0.270 A  
HETATM    6  C   UNL     1      -9.642  13.900  68.260  1.00  0.00    -0.218 A  
HETATM    7  C   UNL     1      -9.281  14.969  69.074  1.00  0.00    -0.205 A  
HETATM    8  C   UNL     1     -10.051  16.125  69.125  1.00  0.00    -0.252 A  
HETATM    9  O   UNL     1      -8.162  14.910  69.852  1.00  0.00    -0.427 OA 
HETATM   10  H   UNL     1      -7.915  15.640  70.407  1.00  0.00     0.000 HD 
HETATM   11  C   UNL     1     -11.210  16.219  68.352  1.00  0.00    -0.349 A  
HETATM   12  C   UNL     1     -11.598  15.146  67.547  1.00  0.00    -0.268 A  
ENDBRANCH   4   5
ENDBRANCH   2   4
TORSDOF 2
ENDMDL
MODEL      149
REMARK 921   NORMALIZED FREE ENERGY PREDICTED BY IDOCK:   -2.85 KCAL/MOL
REMARK 922        TOTAL FREE ENERGY PREDICTED BY IDOCK:   -3.36 KCAL/MOL
REMARK 923 INTER-LIGAND FREE ENERGY PREDICTED BY IDOCK:   -3.21 KCAL/MOL
REMARK 924 INTRA-LIGAND FREE ENERGY PREDICTED BY IDOCK:   -0.15 KCAL/MOL
REMARK 927      BINDING AFFINITY PREDICTED BY RF-SCORE:    0.00 PKD
ROOT
HETATM    1  C   UNL     1      -7.362   8.877  64.173  1.00  0.00    -0.104 C  
HETATM    2  C   UNL     1      -7.905  10.143  64.766  1.00  0.00    -0.146 C  
HETATM    3  O   UNL     1      -7.295  10.834  65.571  1.00  0.00    -0.098 OA 
ENDROOT
BRANCH   2   4
HETATM    4  O   UNL     1      -9.199  10.352  64.287  1.00  0.00    -0.210 OA 
BRANCH   4   5
HETATM    5  C   UNL     1     -10.097  11.187  64.984  1.00  0.00    -0.283 A  
HETATM    6  C   UNL     1     -10.634  10.857  66.229  1.00  0.00    -0.276 A  
HETATM    7  C   UNL     1     -11.520  11.742  66.834  1.00  0.00    -0.293 A  
HETATM    8  C   UNL     1     -11.841  12.957  66.240  1.00  0.00    -0.477 A  
HETATM    9  O   UNL     1     -12.108  11.439  68.027  1.00  0.00    -0.629 OA 
HETATM   10  H   UNL     1     -12.713  12.043  68.440  1.00  0.00     0.000 HD 
HETATM   11  C   UNL     1     -11.268  13.299  65.012  1.00  0.00    -0.325 A  
HETATM   12  C   UNL     1     -10.394  12.412  64.381  1.00  0.00    -0.370 A  
ENDBRANCH   4   5
ENDBRANCH   2   4
TORSDOF 2
ENDMDL
MODEL      150
REMARK 921   NORMALIZED FREE ENERGY PREDICTED BY IDOCK:   -2.83 KCAL/MOL
REMARK 922        TOTAL FREE ENERGY PREDICTED BY IDOCK:   -3.34 KCAL/MOL
REMARK 923 INTER-LIGAND FREE ENERGY PREDICTED BY IDOCK:   -3.12 KCAL/MOL
REMARK 924 INTRA-LIGAND FREE ENERGY PREDICTED BY IDOCK:   -0.23 KCAL/MOL
REMARK 927      BINDING AFFINITY PREDICTED BY RF-SCORE:    0.00 PKD
ROOT
HETATM    1  C   UNL     1     -11.952   5.842  72.146  1.00  0.00    -0.191 C  
HETATM    2  C   UNL     1     -11.043   6.510  73.134  1.00  0.00    -0.166 C  
HETATM    3  O   UNL     1     -10.319   5.903  73.910  1.00  0.00    -0.234 OA 
ENDROOT
BRANCH   2   4
HETATM    4  O   UNL     1     -11.207   7.893  73.040  1.00  0.00    -0.411 OA 
BRANCH   4   5
HETATM    5  C   UNL     1     -10.697   8.604  71.933  1.00  0.00    -0.344 A  
HETATM    6  C   UNL     1     -11.455   9.521  71.203  1.00  0.00    -0.430 A  
HETATM    7  C   UNL     1     -10.868  10.165  70.120  1.00  0.00    -0.311 A  
HETATM    8  C   UNL     1      -9.536   9.942  69.787  1.00  0.00    -0.254 A  
HETATM    9  O   UNL     1     -11.584  11.032  69.348  1.00  0.00    -0.256 OA 
HETATM   10  H   UNL     1     -11.183  11.472  68.608  1.00  0.00     0.000 HD 
HETATM   11  C   UNL     1      -8.772   9.054  70.547  1.00  0.00    -0.238 A  
HETATM   12  C   UNL     1      -9.354   8.382  71.623  1.00  0.00    -0.280 A  
ENDBRANCH   4   5
ENDBRANCH   2   4
TORSDOF 2
ENDMDL
MODEL      151
REMARK 921   NORMALIZED FREE ENERGY PREDICTED BY IDOCK:   -2.78 KCAL/MOL
REMARK 922        TOTAL FREE ENERGY PREDICTED BY IDOCK:   -3.29 KCAL/MOL
REMARK 923 INTER-LIGAND FREE ENERGY PREDICTED BY IDOCK:   -3.48 KCAL/MOL
REMARK 924 INTRA-LIGAND FREE ENERGY PREDICTED BY IDOCK:    0.20 KCAL/MOL
REMARK 927      BINDING AFFINITY PREDICTED BY RF-SCORE:    0.00 PKD
ROOT
HETATM    1  C   UNL     1      -9.792  19.150  67.204  1.00  0.00    -0.411 C  
HETATM    2  C   UNL     1     -10.209  18.403  65.972  1.00  0.00    -0.336 C  
HETATM    3  O   UNL     1     -11.016  18.829  65.158  1.00  0.00    -0.514 OA 
ENDROOT
BRANCH   2   4
HETATM    4  O   UNL     1      -9.569  17.162  65.954  1.00  0.00    -0.497 OA 
BRANCH   4   5
HETATM    5  C   UNL     1      -9.068  16.594  67.144  1.00  0.00    -0.214 A  
HETATM    6  C   UNL     1      -9.879  15.956  68.083  1.00  0.00    -0.214 A  
HETATM    7  C   UNL     1      -9.294  15.435  69.232  1.00  0.00    -0.254 A  
HETATM    8  C   UNL     1      -7.920  15.504  69.433  1.00  0.00    -0.229 A  
HETATM    9  O   UNL     1     -10.054  14.847  70.200  1.00  0.00    -0.479 OA 
HETATM   10  H   UNL     1      -9.654  14.491  70.985  1.00  0.00     0.000 HD 
HETATM   11  C   UNL     1      -7.110  16.109  68.470  1.00  0.00    -0.139 A  
HETATM   12  C   UNL     1      -7.684  16.656  67.322  1.00  0.00    -0.198 A  
ENDBRANCH   4   5
ENDBRANCH   2   4
TORSDOF 2
ENDMDL
MODEL      152
REMARK 921   NORMALIZED FREE ENERGY PREDICTED BY IDOCK:   -2.76 KCAL/MOL
REMARK 922        TOTAL FREE ENERGY PREDICTED BY IDOCK:   -3.27 KCAL/MOL
REMARK 923 INTER-LIGAND FREE ENERGY PREDICTED BY IDOCK:   -3.06 KCAL/MOL
REMARK 924 INTRA-LIGAND FREE ENERGY PREDICTED BY IDOCK:   -0.21 KCAL/MOL
REMARK 927      BINDING AFFINITY PREDICTED BY RF-SCORE:    0.00 PKD
ROOT
HETATM    1  C   UNL     1      -6.858   9.242  66.774  1.00  0.00    -0.080 C  
HETATM    2  C   UNL     1      -7.883  10.336  66.781  1.00  0.00    -0.114 C  
HETATM    3  O   UNL     1      -7.656  11.480  67.150  1.00  0.00    -0.133 OA 
ENDROOT
BRANCH   2   4
HETATM    4  O   UNL     1      -9.106   9.817  66.353  1.00  0.00    -0.147 OA 
BRANCH   4   5
HETATM    5  C   UNL     1      -9.897  10.517  65.419  1.00  0.00    -0.274 A  
HETATM    6  C   UNL     1     -10.992  11.301  65.784  1.00  0.00    -0.211 A  
HETATM    7  C   UNL     1     -11.718  11.947  64.789  1.00  0.00    -0.212 A  
HETATM    8  C   UNL     1     -11.343  11.856  63.453  1.00  0.00    -0.465 A  
HETATM    9  O   UNL     1     -12.825  12.683  65.095  1.00  0.00    -0.721 OA 
HETATM   10  H   UNL     1     -13.321  13.123  64.415  1.00  0.00     0.000 HD 
HETATM   11  C   UNL     1     -10.222  11.103  63.099  1.00  0.00    -0.347 A  
HETATM   12  C   UNL     1      -9.496  10.431  64.084  1.00  0.00    -0.353 A  
ENDBRANCH   4   5
ENDBRANCH   2   4
TORSDOF 2
ENDMDL
MODEL      153
REMARK 921   NORMALIZED FREE ENERGY PREDICTED BY IDOCK:   -2.75 KCAL/MOL
REMARK 922        TOTAL FREE ENERGY PREDICTED BY IDOCK:   -3.25 KCAL/MOL
REMARK 923 INTER-LIGAND FREE ENERGY PREDICTED BY IDOCK:   -3.36 KCAL/MOL
REMARK 924 INTRA-LIGAND FREE ENERGY PREDICTED BY IDOCK:    0.11 KCAL/MOL
REMARK 927      BINDING AFFINITY PREDICTED BY RF-SCORE:    0.00 PKD
ROOT
HETATM    1  C   UNL     1     -12.390  14.711  64.081  1.00  0.00    -0.294 C  
HETATM    2  C   UNL     1     -12.163  13.242  64.273  1.00  0.00    -0.392 C  
HETATM    3  O   UNL     1     -13.063  12.430  64.441  1.00  0.00    -0.786 OA 
ENDROOT
BRANCH   2   4
HETATM    4  O   UNL     1     -10.790  12.989  64.273  1.00  0.00    -0.363 OA 
BRANCH   4   5
HETATM    5  C   UNL     1     -10.019  13.211  65.434  1.00  0.00    -0.188 A  
HETATM    6  C   UNL     1      -9.777  14.483  65.955  1.00  0.00    -0.324 A  
HETATM    7  C   UNL     1      -8.996  14.602  67.099  1.00  0.00    -0.225 A  
HETATM    8  C   UNL     1      -8.495  13.478  67.747  1.00  0.00    -0.184 A  
HETATM    9  O   UNL     1      -8.691  15.827  67.615  1.00  0.00    -0.167 OA 
HETATM   10  H   UNL     1      -8.157  15.908  68.396  1.00  0.00     0.000 HD 
HETATM   11  C   UNL     1      -8.776  12.206  67.243  1.00  0.00    -0.182 A  
HETATM   12  C   UNL     1      -9.540  12.071  66.083  1.00  0.00    -0.252 A  
ENDBRANCH   4   5
ENDBRANCH   2   4
TORSDOF 2
ENDMDL
MODEL      154
REMARK 921   NORMALIZED FREE ENERGY PREDICTED BY IDOCK:   -2.74 KCAL/MOL
REMARK 922        TOTAL FREE ENERGY PREDICTED BY IDOCK:   -3.25 KCAL/MOL
REMARK 923 INTER-LIGAND FREE ENERGY PREDICTED BY IDOCK:   -3.18 KCAL/MOL
REMARK 924 INTRA-LIGAND FREE ENERGY PREDICTED BY IDOCK:   -0.07 KCAL/MOL
REMARK 927      BINDING AFFINITY PREDICTED BY RF-SCORE:    0.00 PKD
ROOT
HETATM    1  C   UNL     1      -7.734  17.819  66.262  1.00  0.00    -0.308 C  
HETATM    2  C   UNL     1      -8.520  16.596  66.631  1.00  0.00    -0.259 C  
HETATM    3  O   UNL     1      -8.090  15.455  66.530  1.00  0.00    -0.189 OA 
ENDROOT
BRANCH   2   4
HETATM    4  O   UNL     1      -9.796  16.982  67.045  1.00  0.00    -0.253 OA 
BRANCH   4   5
HETATM    5  C   UNL     1     -10.505  16.217  67.994  1.00  0.00    -0.293 A  
HETATM    6  C   UNL     1     -11.082  14.982  67.699  1.00  0.00    -0.317 A  
HETATM    7  C   UNL     1     -11.771  14.306  68.700  1.00  0.00    -0.345 A  
HETATM    8  C   UNL     1     -11.854  14.821  69.990  1.00  0.00    -0.362 A  
HETATM    9  O   UNL     1     -12.394  13.119  68.445  1.00  0.00    -0.122 OA 
HETATM   10  H   UNL     1     -12.865  12.658  69.129  1.00  0.00     0.000 HD 
HETATM   11  C   UNL     1     -11.239  16.039  70.288  1.00  0.00    -0.397 A  
HETATM   12  C   UNL     1     -10.562  16.740  69.288  1.00  0.00    -0.336 A  
ENDBRANCH   4   5
ENDBRANCH   2   4
TORSDOF 2
ENDMDL
MODEL      155
REMARK 921   NORMALIZED FREE ENERGY PREDICTED BY IDOCK:   -2.74 KCAL/MOL
REMARK 922        TOTAL FREE ENERGY PREDICTED BY IDOCK:   -3.25 KCAL/MOL
REMARK 923 INTER-LIGAND FREE ENERGY PREDICTED BY IDOCK:   -3.07 KCAL/MOL
REMARK 924 INTRA-LIGAND FREE ENERGY PREDICTED BY IDOCK:   -0.18 KCAL/MOL
REMARK 927      BINDING AFFINITY PREDICTED BY RF-SCORE:    0.00 PKD
ROOT
HETATM    1  C   UNL     1      -8.846   6.715  67.594  1.00  0.00    -0.116 C  
HETATM    2  C   UNL     1      -8.595   7.972  68.373  1.00  0.00    -0.127 C  
HETATM    3  O   UNL     1      -7.574   8.639  68.279  1.00  0.00    -0.094 OA 
ENDROOT
BRANCH   2   4
HETATM    4  O   UNL     1      -9.676   8.202  69.226  1.00  0.00    -0.166 OA 
BRANCH   4   5
HETATM    5  C   UNL     1     -10.452   9.374  69.102  1.00  0.00    -0.217 A  
HETATM    6  C   UNL     1     -10.759   9.958  67.873  1.00  0.00    -0.316 A  
HETATM    7  C   UNL     1     -11.523  11.119  67.853  1.00  0.00    -0.284 A  
HETATM    8  C   UNL     1     -12.016  11.675  69.028  1.00  0.00    -0.368 A  
HETATM    9  O   UNL     1     -11.805  11.753  66.678  1.00  0.00    -0.569 OA 
HETATM   10  H   UNL     1     -12.327  12.546  66.665  1.00  0.00     0.000 HD 
HETATM   11  C   UNL     1     -11.739  11.062  70.252  1.00  0.00    -0.445 A  
HETATM   12  C   UNL     1     -10.955   9.908  70.291  1.00  0.00    -0.366 A  
ENDBRANCH   4   5
ENDBRANCH   2   4
TORSDOF 2
ENDMDL
MODEL      156
REMARK 921   NORMALIZED FREE ENERGY PREDICTED BY IDOCK:   -2.73 KCAL/MOL
REMARK 922        TOTAL FREE ENERGY PREDICTED BY IDOCK:   -3.23 KCAL/MOL
REMARK 923 INTER-LIGAND FREE ENERGY PREDICTED BY IDOCK:   -3.07 KCAL/MOL
REMARK 924 INTRA-LIGAND FREE ENERGY PREDICTED BY IDOCK:   -0.17 KCAL/MOL
REMARK 927      BINDING AFFINITY PREDICTED BY RF-SCORE:    0.00 PKD
ROOT
HETATM    1  C   UNL     1      -8.425  14.061  67.987  1.00  0.00    -0.171 C  
HETATM    2  C   UNL     1      -9.920  13.963  68.055  1.00  0.00    -0.241 C  
HETATM    3  O   UNL     1     -10.663  14.931  68.131  1.00  0.00    -0.243 OA 
ENDROOT
BRANCH   2   4
HETATM    4  O   UNL     1     -10.288  12.616  68.064  1.00  0.00    -0.215 OA 
BRANCH   4   5
HETATM    5  C   UNL     1     -10.240  11.850  66.881  1.00  0.00    -0.208 A  
HETATM    6  C   UNL     1      -9.858  10.508  66.858  1.00  0.00    -0.235 A  
HETATM    7  C   UNL     1      -9.832   9.838  65.640  1.00  0.00    -0.301 A  
HETATM    8  C   UNL     1     -10.220  10.470  64.463  1.00  0.00    -0.355 A  
HETATM    9  O   UNL     1      -9.418   8.541  65.562  1.00  0.00    -0.438 OA 
HETATM   10  H   UNL     1      -9.400   8.083  64.730  1.00  0.00     0.000 HD 
HETATM   11  C   UNL     1     -10.641  11.801  64.500  1.00  0.00    -0.364 A  
HETATM   12  C   UNL     1     -10.651  12.495  65.712  1.00  0.00    -0.299 A  
ENDBRANCH   4   5
ENDBRANCH   2   4
TORSDOF 2
ENDMDL
MODEL      157
REMARK 921   NORMALIZED FREE ENERGY PREDICTED BY IDOCK:   -2.73 KCAL/MOL
REMARK 922        TOTAL FREE ENERGY PREDICTED BY IDOCK:   -3.23 KCAL/MOL
REMARK 923 INTER-LIGAND FREE ENERGY PREDICTED BY IDOCK:   -3.05 KCAL/MOL
REMARK 924 INTRA-LIGAND FREE ENERGY PREDICTED BY IDOCK:   -0.18 KCAL/MOL
REMARK 927      BINDING AFFINITY PREDICTED BY RF-SCORE:    0.00 PKD
ROOT
HETATM    1  C   UNL     1     -11.248  14.038  68.872  1.00  0.00    -0.303 C  
HETATM    2  C   UNL     1     -10.816  14.215  67.447  1.00  0.00    -0.287 C  
HETATM    3  O   UNL     1     -11.590  14.399  66.518  1.00  0.00    -0.354 OA 
ENDROOT
BRANCH   2   4
HETATM    4  O   UNL     1      -9.428  14.087  67.373  1.00  0.00    -0.213 OA 
BRANCH   4   5
HETATM    5  C   UNL     1      -8.596  15.224  67.449  1.00  0.00    -0.180 A  
HETATM    6  C   UNL     1      -8.439  16.124  66.394  1.00  0.00    -0.369 A  
HETATM    7  C   UNL     1      -7.589  17.211  66.559  1.00  0.00    -0.285 A  
HETATM    8  C   UNL     1      -6.934  17.434  67.766  1.00  0.00    -0.173 A  
HETATM    9  O   UNL     1      -7.366  18.088  65.539  1.00  0.00    -0.539 OA 
HETATM   10  H   UNL     1      -6.785  18.831  65.653  1.00  0.00     0.000 HD 
HETATM   11  C   UNL     1      -7.128  16.552  68.831  1.00  0.00    -0.200 A  
HETATM   12  C   UNL     1      -7.961  15.443  68.673  1.00  0.00    -0.149 A  
ENDBRANCH   4   5
ENDBRANCH   2   4
TORSDOF 2
ENDMDL
MODEL      158
REMARK 921   NORMALIZED FREE ENERGY PREDICTED BY IDOCK:   -2.72 KCAL/MOL
REMARK 922        TOTAL FREE ENERGY PREDICTED BY IDOCK:   -3.22 KCAL/MOL
REMARK 923 INTER-LIGAND FREE ENERGY PREDICTED BY IDOCK:   -3.04 KCAL/MOL
REMARK 924 INTRA-LIGAND FREE ENERGY PREDICTED BY IDOCK:   -0.18 KCAL/MOL
REMARK 927      BINDING AFFINITY PREDICTED BY RF-SCORE:    0.00 PKD
ROOT
HETATM    1  C   UNL     1      -8.242  19.195  68.555  1.00  0.00    -0.399 C  
HETATM    2  C   UNL     1      -8.746  18.130  67.626  1.00  0.00    -0.248 C  
HETATM    3  O   UNL     1      -8.330  17.968  66.487  1.00  0.00    -0.256 OA 
ENDROOT
BRANCH   2   4
HETATM    4  O   UNL     1      -9.769  17.421  68.258  1.00  0.00    -0.274 OA 
BRANCH   4   5
HETATM    5  C   UNL     1      -9.994  16.062  67.955  1.00  0.00    -0.229 A  
HETATM    6  C   UNL     1      -9.304  15.020  68.575  1.00  0.00    -0.196 A  
HETATM    7  C   UNL     1      -9.589  13.711  68.202  1.00  0.00    -0.221 A  
HETATM    8  C   UNL     1     -10.573  13.429  67.261  1.00  0.00    -0.256 A  
HETATM    9  O   UNL     1      -8.905  12.663  68.745  1.00  0.00    -0.381 OA 
HETATM   10  H   UNL     1      -9.100  11.769  68.490  1.00  0.00     0.000 HD 
HETATM   11  C   UNL     1     -11.288  14.476  66.674  1.00  0.00    -0.359 A  
HETATM   12  C   UNL     1     -10.999  15.797  67.022  1.00  0.00    -0.221 A  
ENDBRANCH   4   5
ENDBRANCH   2   4
TORSDOF 2
ENDMDL
MODEL      159
REMARK 921   NORMALIZED FREE ENERGY PREDICTED BY IDOCK:   -2.67 KCAL/MOL
REMARK 922        TOTAL FREE ENERGY PREDICTED BY IDOCK:   -3.17 KCAL/MOL
REMARK 923 INTER-LIGAND FREE ENERGY PREDICTED BY IDOCK:   -2.99 KCAL/MOL
REMARK 924 INTRA-LIGAND FREE ENERGY PREDICTED BY IDOCK:   -0.17 KCAL/MOL
REMARK 927      BINDING AFFINITY PREDICTED BY RF-SCORE:    0.00 PKD
ROOT
HETATM    1  C   UNL     1     -12.980   7.946  71.423  1.00  0.00    -0.301 C  
HETATM    2  C   UNL     1     -11.673   7.551  70.804  1.00  0.00    -0.256 C  
HETATM    3  O   UNL     1     -10.710   8.300  70.711  1.00  0.00    -0.211 OA 
ENDROOT
BRANCH   2   4
HETATM    4  O   UNL     1     -11.770   6.242  70.330  1.00  0.00    -0.384 OA 
BRANCH   4   5
HETATM    5  C   UNL     1     -10.864   5.758  69.363  1.00  0.00    -0.323 A  
HETATM    6  C   UNL     1     -10.919   6.124  68.018  1.00  0.00    -0.399 A  
HETATM    7  C   UNL     1      -9.987   5.587  67.137  1.00  0.00    -0.169 A  
HETATM    8  C   UNL     1      -8.986   4.732  67.583  1.00  0.00    -0.120 A  
HETATM    9  O   UNL     1     -10.033   5.877  65.805  1.00  0.00    -0.383 OA 
HETATM   10  H   UNL     1      -9.397   5.510  65.203  1.00  0.00     0.000 HD 
HETATM   11  C   UNL     1      -8.913   4.401  68.939  1.00  0.00    -0.153 A  
HETATM   12  C   UNL     1      -9.854   4.915  69.832  1.00  0.00    -0.295 A  
ENDBRANCH   4   5
ENDBRANCH   2   4
TORSDOF 2
ENDMDL
MODEL      160
REMARK 921   NORMALIZED FREE ENERGY PREDICTED BY IDOCK:   -2.67 KCAL/MOL
REMARK 922        TOTAL FREE ENERGY PREDICTED BY IDOCK:   -3.16 KCAL/MOL
REMARK 923 INTER-LIGAND FREE ENERGY PREDICTED BY IDOCK:   -3.11 KCAL/MOL
REMARK 924 INTRA-LIGAND FREE ENERGY PREDICTED BY IDOCK:   -0.05 KCAL/MOL
REMARK 927      BINDING AFFINITY PREDICTED BY RF-SCORE:    0.00 PKD
ROOT
HETATM    1  C   UNL     1      -8.942   7.335  67.084  1.00  0.00    -0.132 C  
HETATM    2  C   UNL     1      -9.790   8.342  67.802  1.00  0.00    -0.170 C  
HETATM    3  O   UNL     1      -9.740   8.537  69.009  1.00  0.00    -0.165 OA 
ENDROOT
BRANCH   2   4
HETATM    4  O   UNL     1     -10.647   8.953  66.885  1.00  0.00    -0.263 OA 
BRANCH   4   5
HETATM    5  C   UNL     1     -10.747  10.358  66.821  1.00  0.00    -0.168 A  
HETATM    6  C   UNL     1     -10.189  11.115  65.790  1.00  0.00    -0.310 A  
HETATM    7  C   UNL     1     -10.332  12.498  65.819  1.00  0.00    -0.265 A  
HETATM    8  C   UNL     1     -11.053  13.125  66.830  1.00  0.00    -0.314 A  
HETATM    9  O   UNL     1      -9.761  13.282  64.860  1.00  0.00    -0.551 OA 
HETATM   10  H   UNL     1      -9.859  14.227  64.880  1.00  0.00     0.000 HD 
HETATM   11  C   UNL     1     -11.643  12.357  67.836  1.00  0.00    -0.415 A  
HETATM   12  C   UNL     1     -11.490  10.970  67.833  1.00  0.00    -0.358 A  
ENDBRANCH   4   5
ENDBRANCH   2   4
TORSDOF 2
ENDMDL
MODEL      161
REMARK 921   NORMALIZED FREE ENERGY PREDICTED BY IDOCK:   -2.64 KCAL/MOL
REMARK 922        TOTAL FREE ENERGY PREDICTED BY IDOCK:   -3.13 KCAL/MOL
REMARK 923 INTER-LIGAND FREE ENERGY PREDICTED BY IDOCK:   -3.42 KCAL/MOL
REMARK 924 INTRA-LIGAND FREE ENERGY PREDICTED BY IDOCK:    0.29 KCAL/MOL
REMARK 927      BINDING AFFINITY PREDICTED BY RF-SCORE:    0.00 PKD
ROOT
HETATM    1  C   UNL     1     -13.180  11.158  71.743  1.00  0.00    -0.486 C  
HETATM    2  C   UNL     1     -12.362  11.326  70.497  1.00  0.00    -0.356 C  
HETATM    3  O   UNL     1     -11.672  10.440  70.012  1.00  0.00    -0.260 OA 
ENDROOT
BRANCH   2   4
HETATM    4  O   UNL     1     -12.491  12.639  70.042  1.00  0.00    -0.130 OA 
BRANCH   4   5
HETATM    5  C   UNL     1     -11.969  13.018  68.787  1.00  0.00    -0.266 A  
HETATM    6  C   UNL     1     -11.884  12.146  67.702  1.00  0.00    -0.316 A  
HETATM    7  C   UNL     1     -11.344  12.610  66.508  1.00  0.00    -0.326 A  
HETATM    8  C   UNL     1     -10.933  13.931  66.370  1.00  0.00    -0.303 A  
HETATM    9  O   UNL     1     -11.195  11.779  65.436  1.00  0.00    -0.304 OA 
HETATM   10  H   UNL     1     -10.827  12.096  64.620  1.00  0.00     0.000 HD 
HETATM   11  C   UNL     1     -11.059  14.810  67.448  1.00  0.00    -0.327 A  
HETATM   12  C   UNL     1     -11.578  14.354  68.661  1.00  0.00    -0.347 A  
ENDBRANCH   4   5
ENDBRANCH   2   4
TORSDOF 2
ENDMDL
MODEL      162
REMARK 921   NORMALIZED FREE ENERGY PREDICTED BY IDOCK:   -2.62 KCAL/MOL
REMARK 922        TOTAL FREE ENERGY PREDICTED BY IDOCK:   -3.11 KCAL/MOL
REMARK 923 INTER-LIGAND FREE ENERGY PREDICTED BY IDOCK:   -3.05 KCAL/MOL
REMARK 924 INTRA-LIGAND FREE ENERGY PREDICTED BY IDOCK:   -0.06 KCAL/MOL
REMARK 927      BINDING AFFINITY PREDICTED BY RF-SCORE:    0.00 PKD
ROOT
HETATM    1  C   UNL     1     -11.386   2.694  73.169  1.00  0.00    -0.081 C  
HETATM    2  C   UNL     1     -11.073   4.148  73.359  1.00  0.00    -0.262 C  
HETATM    3  O   UNL     1     -10.787   4.647  74.439  1.00  0.00    -0.328 OA 
ENDROOT
BRANCH   2   4
HETATM    4  O   UNL     1     -11.212   4.807  72.137  1.00  0.00     0.036 OA 
BRANCH   4   5
HETATM    5  C   UNL     1     -11.471   6.193  72.094  1.00  0.00    -0.311 A  
HETATM    6  C   UNL     1     -12.748   6.723  71.908  1.00  0.00    -0.298 A  
HETATM    7  C   UNL     1     -12.903   8.105  71.869  1.00  0.00    -0.335 A  
HETATM    8  C   UNL     1     -11.818   8.955  72.055  1.00  0.00    -0.438 A  
HETATM    9  O   UNL     1     -14.124   8.667  71.640  1.00  0.00    -0.403 OA 
HETATM   10  H   UNL     1     -14.230   9.611  71.614  1.00  0.00     0.000 HD 
HETATM   11  C   UNL     1     -10.549   8.417  72.281  1.00  0.00    -0.412 A  
HETATM   12  C   UNL     1     -10.374   7.032  72.300  1.00  0.00    -0.216 A  
ENDBRANCH   4   5
ENDBRANCH   2   4
TORSDOF 2
ENDMDL
MODEL      163
REMARK 921   NORMALIZED FREE ENERGY PREDICTED BY IDOCK:   -2.61 KCAL/MOL
REMARK 922        TOTAL FREE ENERGY PREDICTED BY IDOCK:   -3.10 KCAL/MOL
REMARK 923 INTER-LIGAND FREE ENERGY PREDICTED BY IDOCK:   -2.87 KCAL/MOL
REMARK 924 INTRA-LIGAND FREE ENERGY PREDICTED BY IDOCK:   -0.23 KCAL/MOL
REMARK 927      BINDING AFFINITY PREDICTED BY RF-SCORE:    0.00 PKD
ROOT
HETATM    1  C   UNL     1     -11.867  10.997  70.541  1.00  0.00    -0.464 C  
HETATM    2  C   UNL     1     -12.150   9.921  71.546  1.00  0.00    -0.410 C  
HETATM    3  O   UNL     1     -13.276   9.571  71.871  1.00  0.00    -0.379 OA 
ENDROOT
BRANCH   2   4
HETATM    4  O   UNL     1     -10.940   9.446  72.057  1.00  0.00    -0.250 OA 
BRANCH   4   5
HETATM    5  C   UNL     1     -10.154   8.539  71.316  1.00  0.00    -0.222 A  
HETATM    6  C   UNL     1     -10.695   7.476  70.593  1.00  0.00    -0.239 A  
HETATM    7  C   UNL     1      -9.837   6.628  69.901  1.00  0.00    -0.167 A  
HETATM    8  C   UNL     1      -8.465   6.851  69.885  1.00  0.00    -0.140 A  
HETATM    9  O   UNL     1     -10.317   5.547  69.223  1.00  0.00    -0.225 OA 
HETATM   10  H   UNL     1      -9.731   4.968  68.750  1.00  0.00     0.000 HD 
HETATM   11  C   UNL     1      -7.934   7.942  70.577  1.00  0.00    -0.097 A  
HETATM   12  C   UNL     1      -8.780   8.789  71.295  1.00  0.00    -0.273 A  
ENDBRANCH   4   5
ENDBRANCH   2   4
TORSDOF 2
ENDMDL
MODEL      164
REMARK 921   NORMALIZED FREE ENERGY PREDICTED BY IDOCK:   -2.61 KCAL/MOL
REMARK 922        TOTAL FREE ENERGY PREDICTED BY IDOCK:   -3.10 KCAL/MOL
REMARK 923 INTER-LIGAND FREE ENERGY PREDICTED BY IDOCK:   -2.94 KCAL/MOL
REMARK 924 INTRA-LIGAND FREE ENERGY PREDICTED BY IDOCK:   -0.16 KCAL/MOL
REMARK 927      BINDING AFFINITY PREDICTED BY RF-SCORE:    0.00 PKD
ROOT
HETATM    1  C   UNL     1     -10.166   8.258  72.284  1.00  0.00    -0.375 C  
HETATM    2  C   UNL     1      -9.873   9.281  71.227  1.00  0.00    -0.248 C  
HETATM    3  O   UNL     1      -8.757   9.728  71.003  1.00  0.00    -0.097 OA 
ENDROOT
BRANCH   2   4
HETATM    4  O   UNL     1     -11.068   9.648  70.606  1.00  0.00    -0.267 OA 
BRANCH   4   5
HETATM    5  C   UNL     1     -11.073  10.597  69.562  1.00  0.00    -0.274 A  
HETATM    6  C   UNL     1     -11.287  11.960  69.773  1.00  0.00    -0.223 A  
HETATM    7  C   UNL     1     -11.284  12.817  68.678  1.00  0.00    -0.282 A  
HETATM    8  C   UNL     1     -11.029  12.344  67.395  1.00  0.00    -0.296 A  
HETATM    9  O   UNL     1     -11.538  14.149  68.830  1.00  0.00    -0.268 OA 
HETATM   10  H   UNL     1     -11.536  14.734  68.083  1.00  0.00     0.000 HD 
HETATM   11  C   UNL     1     -10.776  10.985  67.197  1.00  0.00    -0.313 A  
HETATM   12  C   UNL     1     -10.797  10.108  68.283  1.00  0.00    -0.297 A  
ENDBRANCH   4   5
ENDBRANCH   2   4
TORSDOF 2
ENDMDL
MODEL      165
REMARK 921   NORMALIZED FREE ENERGY PREDICTED BY IDOCK:   -2.60 KCAL/MOL
REMARK 922        TOTAL FREE ENERGY PREDICTED BY IDOCK:   -3.09 KCAL/MOL
REMARK 923 INTER-LIGAND FREE ENERGY PREDICTED BY IDOCK:   -2.95 KCAL/MOL
REMARK 924 INTRA-LIGAND FREE ENERGY PREDICTED BY IDOCK:   -0.13 KCAL/MOL
REMARK 927      BINDING AFFINITY PREDICTED BY RF-SCORE:    0.00 PKD
ROOT
HETATM    1  C   UNL     1     -10.669  15.995  65.327  1.00  0.00    -0.417 C  
HETATM    2  C   UNL     1     -10.003  17.044  66.167  1.00  0.00    -0.298 C  
HETATM    3  O   UNL     1     -10.608  17.828  66.884  1.00  0.00    -0.323 OA 
ENDROOT
BRANCH   2   4
HETATM    4  O   UNL     1      -8.625  16.994  65.948  1.00  0.00    -0.521 OA 
BRANCH   4   5
HETATM    5  C   UNL     1      -7.758  16.486  66.938  1.00  0.00    -0.231 A  
HETATM    6  C   UNL     1      -8.203  15.739  68.029  1.00  0.00    -0.143 A  
HETATM    7  C   UNL     1      -7.273  15.289  68.959  1.00  0.00    -0.151 A  
HETATM    8  C   UNL     1      -5.914  15.534  68.793  1.00  0.00    -0.099 A  
HETATM    9  O   UNL     1      -7.667  14.599  70.068  1.00  0.00    -0.398 OA 
HETATM   10  H   UNL     1      -7.032  14.291  70.703  1.00  0.00     0.000 HD 
HETATM   11  C   UNL     1      -5.472  16.248  67.677  1.00  0.00    -0.164 A  
HETATM   12  C   UNL     1      -6.395  16.726  66.746  1.00  0.00    -0.210 A  
ENDBRANCH   4   5
ENDBRANCH   2   4
TORSDOF 2
ENDMDL
MODEL      166
REMARK 921   NORMALIZED FREE ENERGY PREDICTED BY IDOCK:   -2.58 KCAL/MOL
REMARK 922        TOTAL FREE ENERGY PREDICTED BY IDOCK:   -3.07 KCAL/MOL
REMARK 923 INTER-LIGAND FREE ENERGY PREDICTED BY IDOCK:   -2.87 KCAL/MOL
REMARK 924 INTRA-LIGAND FREE ENERGY PREDICTED BY IDOCK:   -0.20 KCAL/MOL
REMARK 927      BINDING AFFINITY PREDICTED BY RF-SCORE:    0.00 PKD
ROOT
HETATM    1  C   UNL     1      -9.517   4.032  67.609  1.00  0.00    -0.231 C  
HETATM    2  C   UNL     1      -8.518   4.410  68.661  1.00  0.00    -0.084 C  
HETATM    3  O   UNL     1      -7.609   3.680  69.031  1.00  0.00    -0.053 OA 
ENDROOT
BRANCH   2   4
HETATM    4  O   UNL     1      -8.834   5.678  69.154  1.00  0.00    -0.110 OA 
BRANCH   4   5
HETATM    5  C   UNL     1      -9.840   5.839  70.129  1.00  0.00    -0.184 A  
HETATM    6  C   UNL     1     -11.049   6.487  69.875  1.00  0.00    -0.430 A  
HETATM    7  C   UNL     1     -11.976   6.606  70.905  1.00  0.00    -0.355 A  
HETATM    8  C   UNL     1     -11.733   6.055  72.158  1.00  0.00    -0.335 A  
HETATM    9  O   UNL     1     -13.150   7.274  70.717  1.00  0.00    -0.603 OA 
HETATM   10  H   UNL     1     -13.783   7.355  71.421  1.00  0.00     0.000 HD 
HETATM   11  C   UNL     1     -10.537   5.372  72.393  1.00  0.00    -0.276 A  
HETATM   12  C   UNL     1      -9.587   5.264  71.377  1.00  0.00    -0.209 A  
ENDBRANCH   4   5
ENDBRANCH   2   4
TORSDOF 2
ENDMDL
MODEL      167
REMARK 921   NORMALIZED FREE ENERGY PREDICTED BY IDOCK:   -2.56 KCAL/MOL
REMARK 922        TOTAL FREE ENERGY PREDICTED BY IDOCK:   -3.04 KCAL/MOL
REMARK 923 INTER-LIGAND FREE ENERGY PREDICTED BY IDOCK:   -2.84 KCAL/MOL
REMARK 924 INTRA-LIGAND FREE ENERGY PREDICTED BY IDOCK:   -0.20 KCAL/MOL
REMARK 927      BINDING AFFINITY PREDICTED BY RF-SCORE:    0.00 PKD
ROOT
HETATM    1  C   UNL     1      -6.822   9.235  66.859  1.00  0.00    -0.080 C  
HETATM    2  C   UNL     1      -7.492  10.569  67.003  1.00  0.00    -0.100 C  
HETATM    3  O   UNL     1      -6.886  11.622  67.145  1.00  0.00    -0.119 OA 
ENDROOT
BRANCH   2   4
HETATM    4  O   UNL     1      -8.876  10.387  66.994  1.00  0.00    -0.136 OA 
BRANCH   4   5
HETATM    5  C   UNL     1      -9.685  11.076  66.066  1.00  0.00    -0.224 A  
HETATM    6  C   UNL     1      -9.460  11.046  64.690  1.00  0.00    -0.270 A  
HETATM    7  C   UNL     1     -10.307  11.766  63.855  1.00  0.00    -0.385 A  
HETATM    8  C   UNL     1     -11.391  12.472  64.367  1.00  0.00    -0.395 A  
HETATM    9  O   UNL     1     -10.096  11.806  62.508  1.00  0.00    -0.380 OA 
HETATM   10  H   UNL     1     -10.675  12.298  61.938  1.00  0.00     0.000 HD 
HETATM   11  C   UNL     1     -11.634  12.464  65.742  1.00  0.00    -0.449 A  
HETATM   12  C   UNL     1     -10.779  11.765  66.595  1.00  0.00    -0.300 A  
ENDBRANCH   4   5
ENDBRANCH   2   4
TORSDOF 2
ENDMDL
MODEL      168
REMARK 921   NORMALIZED FREE ENERGY PREDICTED BY IDOCK:   -2.56 KCAL/MOL
REMARK 922        TOTAL FREE ENERGY PREDICTED BY IDOCK:   -3.04 KCAL/MOL
REMARK 923 INTER-LIGAND FREE ENERGY PREDICTED BY IDOCK:   -2.85 KCAL/MOL
REMARK 924 INTRA-LIGAND FREE ENERGY PREDICTED BY IDOCK:   -0.19 KCAL/MOL
REMARK 927      BINDING AFFINITY PREDICTED BY RF-SCORE:    0.00 PKD
ROOT
HETATM    1  C   UNL     1      -9.288   3.347  70.627  1.00  0.00    -0.232 C  
HETATM    2  C   UNL     1      -9.341   4.844  70.553  1.00  0.00    -0.154 C  
HETATM    3  O   UNL     1      -8.358   5.565  70.647  1.00  0.00    -0.112 OA 
ENDROOT
BRANCH   2   4
HETATM    4  O   UNL     1     -10.670   5.246  70.412  1.00  0.00    -0.250 OA 
BRANCH   4   5
HETATM    5  C   UNL     1     -11.092   6.509  70.878  1.00  0.00    -0.292 A  
HETATM    6  C   UNL     1     -11.355   7.584  70.029  1.00  0.00    -0.115 A  
HETATM    7  C   UNL     1     -11.756   8.795  70.583  1.00  0.00    -0.166 A  
HETATM    8  C   UNL     1     -11.940   8.932  71.955  1.00  0.00    -0.441 A  
HETATM    9  O   UNL     1     -11.976   9.887  69.796  1.00  0.00    -0.463 OA 
HETATM   10  H   UNL     1     -12.250  10.714  70.175  1.00  0.00     0.000 HD 
HETATM   11  C   UNL     1     -11.714   7.839  72.795  1.00  0.00    -0.312 A  
HETATM   12  C   UNL     1     -11.289   6.623  72.256  1.00  0.00    -0.311 A  
ENDBRANCH   4   5
ENDBRANCH   2   4
TORSDOF 2
ENDMDL
MODEL      169
REMARK 921   NORMALIZED FREE ENERGY PREDICTED BY IDOCK:   -2.54 KCAL/MOL
REMARK 922        TOTAL FREE ENERGY PREDICTED BY IDOCK:   -3.03 KCAL/MOL
REMARK 923 INTER-LIGAND FREE ENERGY PREDICTED BY IDOCK:   -3.07 KCAL/MOL
REMARK 924 INTRA-LIGAND FREE ENERGY PREDICTED BY IDOCK:    0.05 KCAL/MOL
REMARK 927      BINDING AFFINITY PREDICTED BY RF-SCORE:    0.00 PKD
ROOT
HETATM    1  C   UNL     1     -10.538  13.571  65.291  1.00  0.00    -0.335 C  
HETATM    2  C   UNL     1     -11.481  12.409  65.390  1.00  0.00    -0.358 C  
HETATM    3  O   UNL     1     -12.697  12.523  65.449  1.00  0.00    -0.624 OA 
ENDROOT
BRANCH   2   4
HETATM    4  O   UNL     1     -10.742  11.226  65.450  1.00  0.00    -0.273 OA 
BRANCH   4   5
HETATM    5  C   UNL     1     -10.468  10.612  66.690  1.00  0.00    -0.237 A  
HETATM    6  C   UNL     1     -10.316   9.233  66.840  1.00  0.00    -0.316 A  
HETATM    7  C   UNL     1     -10.058   8.720  68.106  1.00  0.00    -0.190 A  
HETATM    8  C   UNL     1      -9.907   9.558  69.205  1.00  0.00    -0.176 A  
HETATM    9  O   UNL     1      -9.952   7.375  68.308  1.00  0.00    -0.154 OA 
HETATM   10  H   UNL     1      -9.775   7.024  69.173  1.00  0.00     0.000 HD 
HETATM   11  C   UNL     1     -10.020  10.941  69.040  1.00  0.00    -0.206 A  
HETATM   12  C   UNL     1     -10.301  11.470  67.780  1.00  0.00    -0.204 A  
ENDBRANCH   4   5
ENDBRANCH   2   4
TORSDOF 2
ENDMDL
MODEL      170
REMARK 921   NORMALIZED FREE ENERGY PREDICTED BY IDOCK:   -2.54 KCAL/MOL
REMARK 922        TOTAL FREE ENERGY PREDICTED BY IDOCK:   -3.02 KCAL/MOL
REMARK 923 INTER-LIGAND FREE ENERGY PREDICTED BY IDOCK:   -2.84 KCAL/MOL
REMARK 924 INTRA-LIGAND FREE ENERGY PREDICTED BY IDOCK:   -0.18 KCAL/MOL
REMARK 927      BINDING AFFINITY PREDICTED BY RF-SCORE:    0.00 PKD
ROOT
HETATM    1  C   UNL     1      -7.418  17.097  68.743  1.00  0.00    -0.250 C  
HETATM    2  C   UNL     1      -6.852  16.462  67.508  1.00  0.00    -0.152 C  
HETATM    3  O   UNL     1      -6.000  16.984  66.803  1.00  0.00    -0.173 OA 
ENDROOT
BRANCH   2   4
HETATM    4  O   UNL     1      -7.489  15.238  67.293  1.00  0.00    -0.191 OA 
BRANCH   4   5
HETATM    5  C   UNL     1      -8.874  15.184  67.032  1.00  0.00    -0.234 A  
HETATM    6  C   UNL     1      -9.794  14.618  67.915  1.00  0.00    -0.217 A  
HETATM    7  C   UNL     1     -11.139  14.603  67.564  1.00  0.00    -0.313 A  
HETATM    8  C   UNL     1     -11.579  15.179  66.377  1.00  0.00    -0.089 A  
HETATM    9  O   UNL     1     -12.068  14.016  68.373  1.00  0.00    -0.442 OA 
HETATM   10  H   UNL     1     -12.987  14.006  68.133  1.00  0.00     0.000 HD 
HETATM   11  C   UNL     1     -10.657  15.780  65.517  1.00  0.00    -0.424 A  
HETATM   12  C   UNL     1      -9.301  15.784  65.844  1.00  0.00    -0.356 A  
ENDBRANCH   4   5
ENDBRANCH   2   4
TORSDOF 2
ENDMDL
MODEL      171
REMARK 921   NORMALIZED FREE ENERGY PREDICTED BY IDOCK:   -2.51 KCAL/MOL
REMARK 922        TOTAL FREE ENERGY PREDICTED BY IDOCK:   -2.99 KCAL/MOL
REMARK 923 INTER-LIGAND FREE ENERGY PREDICTED BY IDOCK:   -3.31 KCAL/MOL
REMARK 924 INTRA-LIGAND FREE ENERGY PREDICTED BY IDOCK:    0.32 KCAL/MOL
REMARK 927      BINDING AFFINITY PREDICTED BY RF-SCORE:    0.00 PKD
ROOT
HETATM    1  C   UNL     1      -8.151   6.972  74.219  1.00  0.00    -0.154 C  
HETATM    2  C   UNL     1      -8.451   7.666  72.924  1.00  0.00    -0.140 C  
HETATM    3  O   UNL     1      -7.867   8.669  72.538  1.00  0.00    -0.331 OA 
ENDROOT
BRANCH   2   4
HETATM    4  O   UNL     1      -9.508   7.011  72.290  1.00  0.00    -0.141 OA 
BRANCH   4   5
HETATM    5  C   UNL     1     -10.685   7.710  71.948  1.00  0.00    -0.220 A  
HETATM    6  C   UNL     1     -11.936   7.098  71.863  1.00  0.00    -0.343 A  
HETATM    7  C   UNL     1     -13.038   7.869  71.508  1.00  0.00    -0.311 A  
HETATM    8  C   UNL     1     -12.916   9.236  71.283  1.00  0.00    -0.342 A  
HETATM    9  O   UNL     1     -14.271   7.304  71.364  1.00  0.00    -0.454 OA 
HETATM   10  H   UNL     1     -15.023   7.831  71.121  1.00  0.00     0.000 HD 
HETATM   11  C   UNL     1     -11.667   9.849  71.411  1.00  0.00    -0.449 A  
HETATM   12  C   UNL     1     -10.548   9.085  71.744  1.00  0.00    -0.426 A  
ENDBRANCH   4   5
ENDBRANCH   2   4
TORSDOF 2
ENDMDL
MODEL      172
REMARK 921   NORMALIZED FREE ENERGY PREDICTED BY IDOCK:   -2.47 KCAL/MOL
REMARK 922        TOTAL FREE ENERGY PREDICTED BY IDOCK:   -2.94 KCAL/MOL
REMARK 923 INTER-LIGAND FREE ENERGY PREDICTED BY IDOCK:   -2.77 KCAL/MOL
REMARK 924 INTRA-LIGAND FREE ENERGY PREDICTED BY IDOCK:   -0.17 KCAL/MOL
REMARK 927      BINDING AFFINITY PREDICTED BY RF-SCORE:    0.00 PKD
ROOT
HETATM    1  C   UNL     1      -6.632  11.912  67.140  1.00  0.00    -0.148 C  
HETATM    2  C   UNL     1      -7.485  12.898  67.881  1.00  0.00    -0.131 C  
HETATM    3  O   UNL     1      -7.226  13.314  69.002  1.00  0.00    -0.090 OA 
ENDROOT
BRANCH   2   4
HETATM    4  O   UNL     1      -8.606  13.203  67.108  1.00  0.00    -0.197 OA 
BRANCH   4   5
HETATM    5  C   UNL     1      -9.555  14.144  67.558  1.00  0.00    -0.223 A  
HETATM    6  C   UNL     1     -10.651  13.802  68.350  1.00  0.00    -0.261 A  
HETATM    7  C   UNL     1     -11.539  14.800  68.736  1.00  0.00    -0.320 A  
HETATM    8  C   UNL     1     -11.325  16.128  68.383  1.00  0.00    -0.345 A  
HETATM    9  O   UNL     1     -12.651  14.504  69.469  1.00  0.00    -0.558 OA 
HETATM   10  H   UNL     1     -13.257  15.186  69.732  1.00  0.00     0.000 HD 
HETATM   11  C   UNL     1     -10.204  16.469  67.624  1.00  0.00    -0.279 A  
HETATM   12  C   UNL     1      -9.315  15.476  67.209  1.00  0.00    -0.220 A  
ENDBRANCH   4   5
ENDBRANCH   2   4
TORSDOF 2
ENDMDL
MODEL      173
REMARK 921   NORMALIZED FREE ENERGY PREDICTED BY IDOCK:   -2.43 KCAL/MOL
REMARK 922        TOTAL FREE ENERGY PREDICTED BY IDOCK:   -2.90 KCAL/MOL
REMARK 923 INTER-LIGAND FREE ENERGY PREDICTED BY IDOCK:   -2.73 KCAL/MOL
REMARK 924 INTRA-LIGAND FREE ENERGY PREDICTED BY IDOCK:   -0.17 KCAL/MOL
REMARK 927      BINDING AFFINITY PREDICTED BY RF-SCORE:    0.00 PKD
ROOT
HETATM    1  C   UNL     1      -9.914   6.257  74.290  1.00  0.00    -0.324 C  
HETATM    2  C   UNL     1     -10.458   5.613  73.050  1.00  0.00    -0.216 C  
HETATM    3  O   UNL     1     -11.531   5.026  73.003  1.00  0.00    -0.309 OA 
ENDROOT
BRANCH   2   4
HETATM    4  O   UNL     1      -9.532   5.758  72.017  1.00  0.00    -0.151 OA 
BRANCH   4   5
HETATM    5  C   UNL     1      -9.825   6.564  70.897  1.00  0.00    -0.183 A  
HETATM    6  C   UNL     1     -10.721   6.182  69.898  1.00  0.00    -0.366 A  
HETATM    7  C   UNL     1     -10.938   7.040  68.826  1.00  0.00    -0.101 A  
HETATM    8  C   UNL     1     -10.312   8.280  68.760  1.00  0.00    -0.223 A  
HETATM    9  O   UNL     1     -11.767   6.687  67.802  1.00  0.00    -0.536 OA 
HETATM   10  H   UNL     1     -11.915   7.274  67.069  1.00  0.00     0.000 HD 
HETATM   11  C   UNL     1      -9.447   8.673  69.784  1.00  0.00    -0.166 A  
HETATM   12  C   UNL     1      -9.202   7.813  70.856  1.00  0.00    -0.155 A  
ENDBRANCH   4   5
ENDBRANCH   2   4
TORSDOF 2
ENDMDL
MODEL      174
REMARK 921   NORMALIZED FREE ENERGY PREDICTED BY IDOCK:   -2.43 KCAL/MOL
REMARK 922        TOTAL FREE ENERGY PREDICTED BY IDOCK:   -2.90 KCAL/MOL
REMARK 923 INTER-LIGAND FREE ENERGY PREDICTED BY IDOCK:   -3.53 KCAL/MOL
REMARK 924 INTRA-LIGAND FREE ENERGY PREDICTED BY IDOCK:    0.63 KCAL/MOL
REMARK 927      BINDING AFFINITY PREDICTED BY RF-SCORE:    0.00 PKD
ROOT
HETATM    1  C   UNL     1     -10.361   8.090  66.920  1.00  0.00    -0.408 C  
HETATM    2  C   UNL     1     -10.368   8.930  68.162  1.00  0.00    -0.212 C  
HETATM    3  O   UNL     1     -10.189   8.483  69.287  1.00  0.00    -0.198 OA 
ENDROOT
BRANCH   2   4
HETATM    4  O   UNL     1     -10.653  10.251  67.816  1.00  0.00    -0.211 OA 
BRANCH   4   5
HETATM    5  C   UNL     1     -11.247  11.126  68.750  1.00  0.00    -0.253 A  
HETATM    6  C   UNL     1     -11.482  12.476  68.486  1.00  0.00    -0.346 A  
HETATM    7  C   UNL     1     -12.064  13.262  69.474  1.00  0.00    -0.258 A  
HETATM    8  C   UNL     1     -12.450  12.715  70.693  1.00  0.00    -0.323 A  
HETATM    9  O   UNL     1     -12.266  14.597  69.279  1.00  0.00    -0.479 OA 
HETATM   10  H   UNL     1     -12.663  15.134  69.955  1.00  0.00     0.000 HD 
HETATM   11  C   UNL     1     -12.249  11.354  70.935  1.00  0.00    -0.447 A  
HETATM   12  C   UNL     1     -11.646  10.557  69.961  1.00  0.00    -0.392 A  
ENDBRANCH   4   5
ENDBRANCH   2   4
TORSDOF 2
ENDMDL
MODEL      175
REMARK 921   NORMALIZED FREE ENERGY PREDICTED BY IDOCK:   -2.42 KCAL/MOL
REMARK 922        TOTAL FREE ENERGY PREDICTED BY IDOCK:   -2.89 KCAL/MOL
REMARK 923 INTER-LIGAND FREE ENERGY PREDICTED BY IDOCK:   -2.71 KCAL/MOL
REMARK 924 INTRA-LIGAND FREE ENERGY PREDICTED BY IDOCK:   -0.19 KCAL/MOL
REMARK 927      BINDING AFFINITY PREDICTED BY RF-SCORE:    0.00 PKD
ROOT
HETATM    1  C   UNL     1      -9.274   7.174  73.619  1.00  0.00    -0.237 C  
HETATM    2  C   UNL     1      -9.436   7.554  72.178  1.00  0.00    -0.147 C  
HETATM    3  O   UNL     1      -8.763   8.410  71.620  1.00  0.00    -0.149 OA 
ENDROOT
BRANCH   2   4
HETATM    4  O   UNL     1     -10.486   6.818  71.628  1.00  0.00    -0.208 OA 
BRANCH   4   5
HETATM    5  C   UNL     1     -10.376   6.264  70.335  1.00  0.00    -0.208 A  
HETATM    6  C   UNL     1     -10.758   6.945  69.179  1.00  0.00    -0.262 A  
HETATM    7  C   UNL     1     -10.620   6.312  67.949  1.00  0.00    -0.262 A  
HETATM    8  C   UNL     1     -10.071   5.038  67.855  1.00  0.00    -0.173 A  
HETATM    9  O   UNL     1     -11.028   6.920  66.798  1.00  0.00    -0.513 OA 
HETATM   10  H   UNL     1     -10.933   6.486  65.958  1.00  0.00     0.000 HD 
HETATM   11  C   UNL     1      -9.652   4.378  69.012  1.00  0.00    -0.244 A  
HETATM   12  C   UNL     1      -9.805   4.991  70.257  1.00  0.00    -0.304 A  
ENDBRANCH   4   5
ENDBRANCH   2   4
TORSDOF 2
ENDMDL
MODEL      176
REMARK 921   NORMALIZED FREE ENERGY PREDICTED BY IDOCK:   -2.42 KCAL/MOL
REMARK 922        TOTAL FREE ENERGY PREDICTED BY IDOCK:   -2.89 KCAL/MOL
REMARK 923 INTER-LIGAND FREE ENERGY PREDICTED BY IDOCK:   -2.68 KCAL/MOL
REMARK 924 INTRA-LIGAND FREE ENERGY PREDICTED BY IDOCK:   -0.21 KCAL/MOL
REMARK 927      BINDING AFFINITY PREDICTED BY RF-SCORE:    0.00 PKD
ROOT
HETATM    1  C   UNL     1     -10.946  15.715  65.282  1.00  0.00    -0.375 C  
HETATM    2  C   UNL     1     -10.344  16.910  65.959  1.00  0.00    -0.325 C  
HETATM    3  O   UNL     1     -11.001  17.787  66.503  1.00  0.00    -0.047 OA 
ENDROOT
BRANCH   2   4
HETATM    4  O   UNL     1      -8.957  16.864  65.815  1.00  0.00    -0.524 OA 
BRANCH   4   5
HETATM    5  C   UNL     1      -8.117  16.834  66.949  1.00  0.00    -0.211 A  
HETATM    6  C   UNL     1      -7.610  17.986  67.551  1.00  0.00    -0.214 A  
HETATM    7  C   UNL     1      -6.782  17.856  68.660  1.00  0.00    -0.239 A  
HETATM    8  C   UNL     1      -6.491  16.606  69.197  1.00  0.00    -0.200 A  
HETATM    9  O   UNL     1      -6.223  18.951  69.250  1.00  0.00    -0.246 OA 
HETATM   10  H   UNL     1      -5.657  18.861  70.008  1.00  0.00     0.000 HD 
HETATM   11  C   UNL     1      -7.036  15.460  68.613  1.00  0.00    -0.111 A  
HETATM   12  C   UNL     1      -7.851  15.573  67.486  1.00  0.00    -0.191 A  
ENDBRANCH   4   5
ENDBRANCH   2   4
TORSDOF 2
ENDMDL
MODEL      177
REMARK 921   NORMALIZED FREE ENERGY PREDICTED BY IDOCK:   -2.42 KCAL/MOL
REMARK 922        TOTAL FREE ENERGY PREDICTED BY IDOCK:   -2.89 KCAL/MOL
REMARK 923 INTER-LIGAND FREE ENERGY PREDICTED BY IDOCK:   -2.92 KCAL/MOL
REMARK 924 INTRA-LIGAND FREE ENERGY PREDICTED BY IDOCK:    0.03 KCAL/MOL
REMARK 927      BINDING AFFINITY PREDICTED BY RF-SCORE:    0.00 PKD
ROOT
HETATM    1  C   UNL     1     -10.035   9.285  66.258  1.00  0.00    -0.357 C  
HETATM    2  C   UNL     1     -10.184   9.764  67.671  1.00  0.00    -0.213 C  
HETATM    3  O   UNL     1     -10.961  10.645  68.012  1.00  0.00    -0.238 OA 
ENDROOT
BRANCH   2   4
HETATM    4  O   UNL     1      -9.276   9.082  68.482  1.00  0.00    -0.136 OA 
BRANCH   4   5
HETATM    5  C   UNL     1      -9.606   8.755  69.814  1.00  0.00    -0.172 A  
HETATM    6  C   UNL     1      -8.725   8.927  70.881  1.00  0.00    -0.256 A  
HETATM    7  C   UNL     1      -9.138   8.566  72.159  1.00  0.00    -0.249 A  
HETATM    8  C   UNL     1     -10.421   8.080  72.389  1.00  0.00    -0.368 A  
HETATM    9  O   UNL     1      -8.293   8.670  73.225  1.00  0.00    -0.408 OA 
HETATM   10  H   UNL     1      -8.576   8.422  74.097  1.00  0.00     0.000 HD 
HETATM   11  C   UNL     1     -11.312   7.949  71.321  1.00  0.00    -0.289 A  
HETATM   12  C   UNL     1     -10.904   8.286  70.029  1.00  0.00    -0.232 A  
ENDBRANCH   4   5
ENDBRANCH   2   4
TORSDOF 2
ENDMDL
MODEL      178
REMARK 921   NORMALIZED FREE ENERGY PREDICTED BY IDOCK:   -2.42 KCAL/MOL
REMARK 922        TOTAL FREE ENERGY PREDICTED BY IDOCK:   -2.88 KCAL/MOL
REMARK 923 INTER-LIGAND FREE ENERGY PREDICTED BY IDOCK:   -3.05 KCAL/MOL
REMARK 924 INTRA-LIGAND FREE ENERGY PREDICTED BY IDOCK:    0.17 KCAL/MOL
REMARK 927      BINDING AFFINITY PREDICTED BY RF-SCORE:    0.00 PKD
ROOT
HETATM    1  C   UNL     1     -12.884  11.099  71.798  1.00  0.00    -0.479 C  
HETATM    2  C   UNL     1     -12.489  11.638  70.456  1.00  0.00    -0.257 C  
HETATM    3  O   UNL     1     -11.901  10.984  69.606  1.00  0.00    -0.285 OA 
ENDROOT
BRANCH   2   4
HETATM    4  O   UNL     1     -12.857  12.983  70.379  1.00  0.00    -0.031 OA 
BRANCH   4   5
HETATM    5  C   UNL     1     -11.920  13.963  69.990  1.00  0.00    -0.336 A  
HETATM    6  C   UNL     1     -10.939  13.737  69.024  1.00  0.00    -0.277 A  
HETATM    7  C   UNL     1     -10.053  14.763  68.714  1.00  0.00    -0.237 A  
HETATM    8  C   UNL     1     -10.159  16.012  69.318  1.00  0.00    -0.249 A  
HETATM    9  O   UNL     1      -9.046  14.572  67.813  1.00  0.00    -0.181 OA 
HETATM   10  H   UNL     1      -8.441  15.273  67.602  1.00  0.00     0.000 HD 
HETATM   11  C   UNL     1     -11.169  16.242  70.254  1.00  0.00    -0.343 A  
HETATM   12  C   UNL     1     -12.053  15.216  70.592  1.00  0.00    -0.378 A  
ENDBRANCH   4   5
ENDBRANCH   2   4
TORSDOF 2
ENDMDL
MODEL      179
REMARK 921   NORMALIZED FREE ENERGY PREDICTED BY IDOCK:   -2.38 KCAL/MOL
REMARK 922        TOTAL FREE ENERGY PREDICTED BY IDOCK:   -2.84 KCAL/MOL
REMARK 923 INTER-LIGAND FREE ENERGY PREDICTED BY IDOCK:   -2.73 KCAL/MOL
REMARK 924 INTRA-LIGAND FREE ENERGY PREDICTED BY IDOCK:   -0.11 KCAL/MOL
REMARK 927      BINDING AFFINITY PREDICTED BY RF-SCORE:    0.00 PKD
ROOT
HETATM    1  C   UNL     1      -8.574   4.551  66.841  1.00  0.00    -0.104 C  
HETATM    2  C   UNL     1      -9.815   4.671  66.007  1.00  0.00    -0.224 C  
HETATM    3  O   UNL     1      -9.840   4.501  64.796  1.00  0.00    -0.140 OA 
ENDROOT
BRANCH   2   4
HETATM    4  O   UNL     1     -10.880   5.045  66.828  1.00  0.00    -0.149 OA 
BRANCH   4   5
HETATM    5  C   UNL     1     -10.790   6.190  67.646  1.00  0.00    -0.332 A  
HETATM    6  C   UNL     1     -10.863   6.139  69.038  1.00  0.00    -0.416 A  
HETATM    7  C   UNL     1     -10.774   7.324  69.760  1.00  0.00    -0.239 A  
HETATM    8  C   UNL     1     -10.570   8.542  69.119  1.00  0.00    -0.188 A  
HETATM    9  O   UNL     1     -10.891   7.329  71.119  1.00  0.00    -0.238 OA 
HETATM   10  H   UNL     1     -10.829   8.138  71.611  1.00  0.00     0.000 HD 
HETATM   11  C   UNL     1     -10.456   8.580  67.727  1.00  0.00    -0.287 A  
HETATM   12  C   UNL     1     -10.567   7.402  66.988  1.00  0.00    -0.414 A  
ENDBRANCH   4   5
ENDBRANCH   2   4
TORSDOF 2
ENDMDL
MODEL      180
REMARK 921   NORMALIZED FREE ENERGY PREDICTED BY IDOCK:   -2.38 KCAL/MOL
REMARK 922        TOTAL FREE ENERGY PREDICTED BY IDOCK:   -2.84 KCAL/MOL
REMARK 923 INTER-LIGAND FREE ENERGY PREDICTED BY IDOCK:   -2.64 KCAL/MOL
REMARK 924 INTRA-LIGAND FREE ENERGY PREDICTED BY IDOCK:   -0.20 KCAL/MOL
REMARK 927      BINDING AFFINITY PREDICTED BY RF-SCORE:    0.00 PKD
ROOT
HETATM    1  C   UNL     1      -7.323   8.220  68.240  1.00  0.00    -0.095 C  
HETATM    2  C   UNL     1      -8.558   7.387  68.064  1.00  0.00    -0.122 C  
HETATM    3  O   UNL     1      -9.034   6.681  68.942  1.00  0.00    -0.130 OA 
ENDROOT
BRANCH   2   4
HETATM    4  O   UNL     1      -9.014   7.522  66.752  1.00  0.00    -0.132 OA 
BRANCH   4   5
HETATM    5  C   UNL     1      -9.516   8.757  66.289  1.00  0.00    -0.234 A  
HETATM    6  C   UNL     1     -10.436   9.522  67.007  1.00  0.00    -0.302 A  
HETATM    7  C   UNL     1     -10.880  10.723  66.463  1.00  0.00    -0.130 A  
HETATM    8  C   UNL     1     -10.390  11.186  65.247  1.00  0.00    -0.336 A  
HETATM    9  O   UNL     1     -11.816  11.479  67.105  1.00  0.00    -0.595 OA 
HETATM   10  H   UNL     1     -12.119  12.299  66.734  1.00  0.00     0.000 HD 
HETATM   11  C   UNL     1      -9.438  10.434  64.554  1.00  0.00    -0.342 A  
HETATM   12  C   UNL     1      -8.999   9.216  65.075  1.00  0.00    -0.221 A  
ENDBRANCH   4   5
ENDBRANCH   2   4
TORSDOF 2
ENDMDL
MODEL      181
REMARK 921   NORMALIZED FREE ENERGY PREDICTED BY IDOCK:   -2.37 KCAL/MOL
REMARK 922        TOTAL FREE ENERGY PREDICTED BY IDOCK:   -2.83 KCAL/MOL
REMARK 923 INTER-LIGAND FREE ENERGY PREDICTED BY IDOCK:   -2.62 KCAL/MOL
REMARK 924 INTRA-LIGAND FREE ENERGY PREDICTED BY IDOCK:   -0.21 KCAL/MOL
REMARK 927      BINDING AFFINITY PREDICTED BY RF-SCORE:    0.00 PKD
ROOT
HETATM    1  C   UNL     1      -6.938  17.177  68.988  1.00  0.00    -0.235 C  
HETATM    2  C   UNL     1      -7.240  16.112  67.977  1.00  0.00    -0.129 C  
HETATM    3  O   UNL     1      -6.441  15.251  67.636  1.00  0.00    -0.152 OA 
ENDROOT
BRANCH   2   4
HETATM    4  O   UNL     1      -8.531  16.307  67.482  1.00  0.00    -0.165 OA 
BRANCH   4   5
HETATM    5  C   UNL     1      -9.423  15.222  67.354  1.00  0.00    -0.199 A  
HETATM    6  C   UNL     1      -9.853  14.731  66.121  1.00  0.00    -0.335 A  
HETATM    7  C   UNL     1     -10.742  13.662  66.097  1.00  0.00    -0.286 A  
HETATM    8  C   UNL     1     -11.170  13.056  67.274  1.00  0.00    -0.325 A  
HETATM    9  O   UNL     1     -11.228  13.181  64.917  1.00  0.00    -0.295 OA 
HETATM   10  H   UNL     1     -11.836  12.451  64.901  1.00  0.00     0.000 HD 
HETATM   11  C   UNL     1     -10.703  13.527  68.503  1.00  0.00    -0.270 A  
HETATM   12  C   UNL     1      -9.828  14.613  68.545  1.00  0.00    -0.228 A  
ENDBRANCH   4   5
ENDBRANCH   2   4
TORSDOF 2
ENDMDL
MODEL      182
REMARK 921   NORMALIZED FREE ENERGY PREDICTED BY IDOCK:   -2.36 KCAL/MOL
REMARK 922        TOTAL FREE ENERGY PREDICTED BY IDOCK:   -2.82 KCAL/MOL
REMARK 923 INTER-LIGAND FREE ENERGY PREDICTED BY IDOCK:   -2.75 KCAL/MOL
REMARK 924 INTRA-LIGAND FREE ENERGY PREDICTED BY IDOCK:   -0.08 KCAL/MOL
REMARK 927      BINDING AFFINITY PREDICTED BY RF-SCORE:    0.00 PKD
ROOT
HETATM    1  C   UNL     1      -6.229  13.627  68.081  1.00  0.00    -0.117 C  
HETATM    2  C   UNL     1      -6.551  15.055  68.408  1.00  0.00    -0.102 C  
HETATM    3  O   UNL     1      -5.711  15.939  68.497  1.00  0.00    -0.096 OA 
ENDROOT
BRANCH   2   4
HETATM    4  O   UNL     1      -7.924  15.172  68.630  1.00  0.00    -0.134 OA 
BRANCH   4   5
HETATM    5  C   UNL     1      -8.796  15.514  67.575  1.00  0.00    -0.182 A  
HETATM    6  C   UNL     1      -9.166  14.617  66.572  1.00  0.00    -0.294 A  
HETATM    7  C   UNL     1     -10.024  15.049  65.567  1.00  0.00    -0.356 A  
HETATM    8  C   UNL     1     -10.547  16.338  65.574  1.00  0.00    -0.369 A  
HETATM    9  O   UNL     1     -10.373  14.223  64.540  1.00  0.00    -0.548 OA 
HETATM   10  H   UNL     1     -10.959  14.519  63.853  1.00  0.00     0.000 HD 
HETATM   11  C   UNL     1     -10.204  17.218  66.603  1.00  0.00    -0.319 A  
HETATM   12  C   UNL     1      -9.326  16.806  67.607  1.00  0.00    -0.228 A  
ENDBRANCH   4   5
ENDBRANCH   2   4
TORSDOF 2
ENDMDL
MODEL      183
REMARK 921   NORMALIZED FREE ENERGY PREDICTED BY IDOCK:   -2.36 KCAL/MOL
REMARK 922        TOTAL FREE ENERGY PREDICTED BY IDOCK:   -2.82 KCAL/MOL
REMARK 923 INTER-LIGAND FREE ENERGY PREDICTED BY IDOCK:   -2.91 KCAL/MOL
REMARK 924 INTRA-LIGAND FREE ENERGY PREDICTED BY IDOCK:    0.09 KCAL/MOL
REMARK 927      BINDING AFFINITY PREDICTED BY RF-SCORE:    0.00 PKD
ROOT
HETATM    1  C   UNL     1      -9.296   6.936  67.039  1.00  0.00    -0.170 C  
HETATM    2  C   UNL     1      -9.514   8.049  68.021  1.00  0.00    -0.146 C  
HETATM    3  O   UNL     1     -10.197   7.941  69.030  1.00  0.00    -0.200 OA 
ENDROOT
BRANCH   2   4
HETATM    4  O   UNL     1      -8.862   9.195  67.563  1.00  0.00    -0.119 OA 
BRANCH   4   5
HETATM    5  C   UNL     1      -9.407   9.959  66.510  1.00  0.00    -0.164 A  
HETATM    6  C   UNL     1      -9.330   9.574  65.171  1.00  0.00    -0.316 A  
HETATM    7  C   UNL     1      -9.889  10.399  64.201  1.00  0.00    -0.313 A  
HETATM    8  C   UNL     1     -10.555  11.569  64.550  1.00  0.00    -0.387 A  
HETATM    9  O   UNL     1      -9.794  10.089  62.876  1.00  0.00    -0.516 OA 
HETATM   10  H   UNL     1     -10.175  10.653  62.215  1.00  0.00     0.000 HD 
HETATM   11  C   UNL     1     -10.664  11.927  65.896  1.00  0.00    -0.326 A  
HETATM   12  C   UNL     1     -10.089  11.121  66.879  1.00  0.00    -0.250 A  
ENDBRANCH   4   5
ENDBRANCH   2   4
TORSDOF 2
ENDMDL
MODEL      184
REMARK 921   NORMALIZED FREE ENERGY PREDICTED BY IDOCK:   -2.36 KCAL/MOL
REMARK 922        TOTAL FREE ENERGY PREDICTED BY IDOCK:   -2.82 KCAL/MOL
REMARK 923 INTER-LIGAND FREE ENERGY PREDICTED BY IDOCK:   -2.66 KCAL/MOL
REMARK 924 INTRA-LIGAND FREE ENERGY PREDICTED BY IDOCK:   -0.16 KCAL/MOL
REMARK 927      BINDING AFFINITY PREDICTED BY RF-SCORE:    0.00 PKD
ROOT
HETATM    1  C   UNL     1      -7.467   6.690  67.609  1.00  0.00    -0.097 C  
HETATM    2  C   UNL     1      -8.458   7.787  67.356  1.00  0.00    -0.119 C  
HETATM    3  O   UNL     1      -8.145   8.935  67.076  1.00  0.00    -0.108 OA 
ENDROOT
BRANCH   2   4
HETATM    4  O   UNL     1      -9.748   7.286  67.540  1.00  0.00    -0.136 OA 
BRANCH   4   5
HETATM    5  C   UNL     1     -10.419   7.462  68.768  1.00  0.00    -0.199 A  
HETATM    6  C   UNL     1     -10.517   8.695  69.412  1.00  0.00    -0.224 A  
HETATM    7  C   UNL     1     -11.190   8.768  70.626  1.00  0.00    -0.257 A  
HETATM    8  C   UNL     1     -11.799   7.646  71.179  1.00  0.00    -0.314 A  
HETATM    9  O   UNL     1     -11.268   9.942  71.316  1.00  0.00    -0.361 OA 
HETATM   10  H   UNL     1     -11.728   9.991  72.145  1.00  0.00     0.000 HD 
HETATM   11  C   UNL     1     -11.731   6.422  70.508  1.00  0.00    -0.385 A  
HETATM   12  C   UNL     1     -11.039   6.329  69.299  1.00  0.00    -0.461 A  
ENDBRANCH   4   5
ENDBRANCH   2   4
TORSDOF 2
ENDMDL
MODEL      185
REMARK 921   NORMALIZED FREE ENERGY PREDICTED BY IDOCK:   -2.35 KCAL/MOL
REMARK 922        TOTAL FREE ENERGY PREDICTED BY IDOCK:   -2.81 KCAL/MOL
REMARK 923 INTER-LIGAND FREE ENERGY PREDICTED BY IDOCK:   -2.81 KCAL/MOL
REMARK 924 INTRA-LIGAND FREE ENERGY PREDICTED BY IDOCK:    0.00 KCAL/MOL
REMARK 927      BINDING AFFINITY PREDICTED BY RF-SCORE:    0.00 PKD
ROOT
HETATM    1  C   UNL     1     -11.102   3.434  73.407  1.00  0.00    -0.288 C  
HETATM    2  C   UNL     1     -10.139   4.463  72.895  1.00  0.00    -0.163 C  
HETATM    3  O   UNL     1      -8.941   4.455  73.141  1.00  0.00    -0.114 OA 
ENDROOT
BRANCH   2   4
HETATM    4  O   UNL     1     -10.842   5.418  72.159  1.00  0.00    -0.226 OA 
BRANCH   4   5
HETATM    5  C   UNL     1     -10.611   5.572  70.776  1.00  0.00    -0.249 A  
HETATM    6  C   UNL     1     -10.999   6.706  70.061  1.00  0.00    -0.363 A  
HETATM    7  C   UNL     1     -10.737   6.761  68.697  1.00  0.00    -0.234 A  
HETATM    8  C   UNL     1     -10.061   5.731  68.052  1.00  0.00    -0.198 A  
HETATM    9  O   UNL     1     -11.142   7.827  67.948  1.00  0.00    -0.472 OA 
HETATM   10  H   UNL     1     -10.962   7.865  67.016  1.00  0.00     0.000 HD 
HETATM   11  C   UNL     1      -9.640   4.617  68.782  1.00  0.00    -0.229 A  
HETATM   12  C   UNL     1      -9.915   4.536  70.148  1.00  0.00    -0.278 A  
ENDBRANCH   4   5
ENDBRANCH   2   4
TORSDOF 2
ENDMDL
MODEL      186
REMARK 921   NORMALIZED FREE ENERGY PREDICTED BY IDOCK:   -2.34 KCAL/MOL
REMARK 922        TOTAL FREE ENERGY PREDICTED BY IDOCK:   -2.80 KCAL/MOL
REMARK 923 INTER-LIGAND FREE ENERGY PREDICTED BY IDOCK:   -2.62 KCAL/MOL
REMARK 924 INTRA-LIGAND FREE ENERGY PREDICTED BY IDOCK:   -0.18 KCAL/MOL
REMARK 927      BINDING AFFINITY PREDICTED BY RF-SCORE:    0.00 PKD
ROOT
HETATM    1  C   UNL     1     -10.339   7.533  69.703  1.00  0.00    -0.225 C  
HETATM    2  C   UNL     1      -8.964   7.120  69.271  1.00  0.00    -0.138 C  
HETATM    3  O   UNL     1      -8.008   7.881  69.223  1.00  0.00    -0.113 OA 
ENDROOT
BRANCH   2   4
HETATM    4  O   UNL     1      -8.988   5.774  68.903  1.00  0.00    -0.113 OA 
BRANCH   4   5
HETATM    5  C   UNL     1      -9.098   5.402  67.546  1.00  0.00    -0.107 A  
HETATM    6  C   UNL     1     -10.318   5.123  66.930  1.00  0.00    -0.288 A  
HETATM    7  C   UNL     1     -10.324   4.755  65.589  1.00  0.00    -0.189 A  
HETATM    8  C   UNL     1      -9.146   4.704  64.852  1.00  0.00    -0.154 A  
HETATM    9  O   UNL     1     -11.488   4.425  64.958  1.00  0.00    -1.090 OA 
HETATM   10  H   UNL     1     -11.491   4.173  64.042  1.00  0.00     0.000 HD 
HETATM   11  C   UNL     1      -7.933   5.025  65.465  1.00  0.00    -0.104 A  
HETATM   12  C   UNL     1      -7.907   5.374  66.816  1.00  0.00    -0.101 A  
ENDBRANCH   4   5
ENDBRANCH   2   4
TORSDOF 2
ENDMDL
MODEL      187
REMARK 921   NORMALIZED FREE ENERGY PREDICTED BY IDOCK:   -2.33 KCAL/MOL
REMARK 922        TOTAL FREE ENERGY PREDICTED BY IDOCK:   -2.78 KCAL/MOL
REMARK 923 INTER-LIGAND FREE ENERGY PREDICTED BY IDOCK:   -2.85 KCAL/MOL
REMARK 924 INTRA-LIGAND FREE ENERGY PREDICTED BY IDOCK:    0.07 KCAL/MOL
REMARK 927      BINDING AFFINITY PREDICTED BY RF-SCORE:    0.00 PKD
ROOT
HETATM    1  C   UNL     1     -11.529  14.667  66.633  1.00  0.00    -0.363 C  
HETATM    2  C   UNL     1     -10.358  14.068  65.914  1.00  0.00    -0.318 C  
HETATM    3  O   UNL     1     -10.407  13.644  64.767  1.00  0.00    -0.400 OA 
ENDROOT
BRANCH   2   4
HETATM    4  O   UNL     1      -9.260  14.039  66.776  1.00  0.00    -0.258 OA 
BRANCH   4   5
HETATM    5  C   UNL     1      -8.463  15.188  66.963  1.00  0.00    -0.229 A  
HETATM    6  C   UNL     1      -7.410  15.243  67.877  1.00  0.00    -0.155 A  
HETATM    7  C   UNL     1      -6.688  16.425  67.998  1.00  0.00    -0.134 A  
HETATM    8  C   UNL     1      -6.971  17.526  67.197  1.00  0.00    -0.199 A  
HETATM    9  O   UNL     1      -5.683  16.541  68.913  1.00  0.00    -0.127 OA 
HETATM   10  H   UNL     1      -5.189  17.349  68.995  1.00  0.00     0.000 HD 
HETATM   11  C   UNL     1      -8.000  17.450  66.256  1.00  0.00    -0.314 A  
HETATM   12  C   UNL     1      -8.750  16.278  66.138  1.00  0.00    -0.353 A  
ENDBRANCH   4   5
ENDBRANCH   2   4
TORSDOF 2
ENDMDL
MODEL      188
REMARK 921   NORMALIZED FREE ENERGY PREDICTED BY IDOCK:   -2.32 KCAL/MOL
REMARK 922        TOTAL FREE ENERGY PREDICTED BY IDOCK:   -2.78 KCAL/MOL
REMARK 923 INTER-LIGAND FREE ENERGY PREDICTED BY IDOCK:   -2.80 KCAL/MOL
REMARK 924 INTRA-LIGAND FREE ENERGY PREDICTED BY IDOCK:    0.03 KCAL/MOL
REMARK 927      BINDING AFFINITY PREDICTED BY RF-SCORE:    0.00 PKD
ROOT
HETATM    1  C   UNL     1     -11.556  13.147  69.390  1.00  0.00    -0.360 C  
HETATM    2  C   UNL     1     -11.478  13.093  67.894  1.00  0.00    -0.308 C  
HETATM    3  O   UNL     1     -12.307  13.599  67.150  1.00  0.00    -0.336 OA 
ENDROOT
BRANCH   2   4
HETATM    4  O   UNL     1     -10.357  12.348  67.523  1.00  0.00    -0.212 OA 
BRANCH   4   5
HETATM    5  C   UNL     1     -10.003  11.182  68.233  1.00  0.00    -0.187 A  
HETATM    6  C   UNL     1     -10.849  10.079  68.357  1.00  0.00    -0.277 A  
HETATM    7  C   UNL     1     -10.414   8.978  69.086  1.00  0.00    -0.225 A  
HETATM    8  C   UNL     1      -9.143   8.945  69.650  1.00  0.00    -0.151 A  
HETATM    9  O   UNL     1     -11.226   7.898  69.276  1.00  0.00    -0.437 OA 
HETATM   10  H   UNL     1     -10.929   7.146  69.774  1.00  0.00     0.000 HD 
HETATM   11  C   UNL     1      -8.286  10.036  69.487  1.00  0.00    -0.180 A  
HETATM   12  C   UNL     1      -8.716  11.158  68.777  1.00  0.00    -0.130 A  
ENDBRANCH   4   5
ENDBRANCH   2   4
TORSDOF 2
ENDMDL
MODEL      189
REMARK 921   NORMALIZED FREE ENERGY PREDICTED BY IDOCK:   -2.32 KCAL/MOL
REMARK 922        TOTAL FREE ENERGY PREDICTED BY IDOCK:   -2.77 KCAL/MOL
REMARK 923 INTER-LIGAND FREE ENERGY PREDICTED BY IDOCK:   -2.58 KCAL/MOL
REMARK 924 INTRA-LIGAND FREE ENERGY PREDICTED BY IDOCK:   -0.19 KCAL/MOL
REMARK 927      BINDING AFFINITY PREDICTED BY RF-SCORE:    0.00 PKD
ROOT
HETATM    1  C   UNL     1      -6.580   7.823  69.318  1.00  0.00    -0.040 C  
HETATM    2  C   UNL     1      -7.986   7.335  69.137  1.00  0.00    -0.119 C  
HETATM    3  O   UNL     1      -8.276   6.288  68.575  1.00  0.00    -0.111 OA 
ENDROOT
BRANCH   2   4
HETATM    4  O   UNL     1      -8.868   8.281  69.662  1.00  0.00    -0.137 OA 
BRANCH   4   5
HETATM    5  C   UNL     1      -9.634   7.989  70.810  1.00  0.00    -0.162 A  
HETATM    6  C   UNL     1     -10.947   7.521  70.751  1.00  0.00    -0.265 A  
HETATM    7  C   UNL     1     -11.625   7.271  71.938  1.00  0.00    -0.277 A  
HETATM    8  C   UNL     1     -11.003   7.439  73.171  1.00  0.00    -0.408 A  
HETATM    9  O   UNL     1     -12.926   6.859  71.929  1.00  0.00    -0.477 OA 
HETATM   10  H   UNL     1     -13.389   6.689  72.741  1.00  0.00     0.000 HD 
HETATM   11  C   UNL     1      -9.675   7.869  73.221  1.00  0.00    -0.352 A  
HETATM   12  C   UNL     1      -8.988   8.146  72.039  1.00  0.00    -0.236 A  
ENDBRANCH   4   5
ENDBRANCH   2   4
TORSDOF 2
ENDMDL
MODEL      190
REMARK 921   NORMALIZED FREE ENERGY PREDICTED BY IDOCK:   -2.32 KCAL/MOL
REMARK 922        TOTAL FREE ENERGY PREDICTED BY IDOCK:   -2.77 KCAL/MOL
REMARK 923 INTER-LIGAND FREE ENERGY PREDICTED BY IDOCK:   -2.58 KCAL/MOL
REMARK 924 INTRA-LIGAND FREE ENERGY PREDICTED BY IDOCK:   -0.19 KCAL/MOL
REMARK 927      BINDING AFFINITY PREDICTED BY RF-SCORE:    0.00 PKD
ROOT
HETATM    1  C   UNL     1      -9.683   8.505  66.428  1.00  0.00    -0.328 C  
HETATM    2  C   UNL     1      -9.481   7.021  66.360  1.00  0.00    -0.124 C  
HETATM    3  O   UNL     1      -8.505   6.489  65.849  1.00  0.00    -0.137 OA 
ENDROOT
BRANCH   2   4
HETATM    4  O   UNL     1     -10.590   6.385  66.921  1.00  0.00    -0.258 OA 
BRANCH   4   5
HETATM    5  C   UNL     1     -10.548   5.902  68.245  1.00  0.00    -0.244 A  
HETATM    6  C   UNL     1      -9.876   4.735  68.610  1.00  0.00    -0.208 A  
HETATM    7  C   UNL     1      -9.900   4.333  69.941  1.00  0.00    -0.197 A  
HETATM    8  C   UNL     1     -10.542   5.097  70.910  1.00  0.00    -0.202 A  
HETATM    9  O   UNL     1      -9.300   3.173  70.334  1.00  0.00    -0.136 OA 
HETATM   10  H   UNL     1      -9.316   2.900  71.243  1.00  0.00     0.000 HD 
HETATM   11  C   UNL     1     -11.178   6.285  70.545  1.00  0.00    -0.420 A  
HETATM   12  C   UNL     1     -11.182   6.690  69.209  1.00  0.00    -0.326 A  
ENDBRANCH   4   5
ENDBRANCH   2   4
TORSDOF 2
ENDMDL
MODEL      191
REMARK 921   NORMALIZED FREE ENERGY PREDICTED BY IDOCK:   -2.30 KCAL/MOL
REMARK 922        TOTAL FREE ENERGY PREDICTED BY IDOCK:   -2.76 KCAL/MOL
REMARK 923 INTER-LIGAND FREE ENERGY PREDICTED BY IDOCK:   -2.57 KCAL/MOL
REMARK 924 INTRA-LIGAND FREE ENERGY PREDICTED BY IDOCK:   -0.19 KCAL/MOL
REMARK 927      BINDING AFFINITY PREDICTED BY RF-SCORE:    0.00 PKD
ROOT
HETATM    1  C   UNL     1     -10.281   5.604  72.725  1.00  0.00    -0.213 C  
HETATM    2  C   UNL     1     -11.023   6.693  72.010  1.00  0.00    -0.242 C  
HETATM    3  O   UNL     1     -12.243   6.763  71.954  1.00  0.00    -0.329 OA 
ENDROOT
BRANCH   2   4
HETATM    4  O   UNL     1     -10.102   7.549  71.403  1.00  0.00    -0.186 OA 
BRANCH   4   5
HETATM    5  C   UNL     1     -10.305   8.004  70.083  1.00  0.00    -0.215 A  
HETATM    6  C   UNL     1     -10.427   9.354  69.754  1.00  0.00    -0.243 A  
HETATM    7  C   UNL     1     -10.636   9.705  68.424  1.00  0.00    -0.225 A  
HETATM    8  C   UNL     1     -10.681   8.739  67.425  1.00  0.00    -0.216 A  
HETATM    9  O   UNL     1     -10.811  11.008  68.063  1.00  0.00    -0.195 OA 
HETATM   10  H   UNL     1     -10.954  11.248  67.155  1.00  0.00     0.000 HD 
HETATM   11  C   UNL     1     -10.517   7.392  67.757  1.00  0.00    -0.298 A  
HETATM   12  C   UNL     1     -10.328   7.022  69.089  1.00  0.00    -0.209 A  
ENDBRANCH   4   5
ENDBRANCH   2   4
TORSDOF 2
ENDMDL
MODEL      192
REMARK 921   NORMALIZED FREE ENERGY PREDICTED BY IDOCK:   -2.28 KCAL/MOL
REMARK 922        TOTAL FREE ENERGY PREDICTED BY IDOCK:   -2.74 KCAL/MOL
REMARK 923 INTER-LIGAND FREE ENERGY PREDICTED BY IDOCK:   -2.62 KCAL/MOL
REMARK 924 INTRA-LIGAND FREE ENERGY PREDICTED BY IDOCK:   -0.12 KCAL/MOL
REMARK 927      BINDING AFFINITY PREDICTED BY RF-SCORE:    0.00 PKD
ROOT
HETATM    1  C   UNL     1      -9.999   7.943  68.172  1.00  0.00    -0.210 C  
HETATM    2  C   UNL     1      -9.958   8.939  69.292  1.00  0.00    -0.192 C  
HETATM    3  O   UNL     1      -9.180   8.873  70.234  1.00  0.00    -0.161 OA 
ENDROOT
BRANCH   2   4
HETATM    4  O   UNL     1     -10.962   9.888  69.094  1.00  0.00    -0.224 OA 
BRANCH   4   5
HETATM    5  C   UNL     1     -10.773  10.958  68.195  1.00  0.00    -0.214 A  
HETATM    6  C   UNL     1     -11.824  11.582  67.522  1.00  0.00    -0.157 A  
HETATM    7  C   UNL     1     -11.537  12.623  66.646  1.00  0.00    -0.381 A  
HETATM    8  C   UNL     1     -10.233  13.074  66.468  1.00  0.00    -0.270 A  
HETATM    9  O   UNL     1     -12.526  13.230  65.930  1.00  0.00    -0.426 OA 
HETATM   10  H   UNL     1     -12.330  13.941  65.331  1.00  0.00     0.000 HD 
HETATM   11  C   UNL     1      -9.191  12.470  67.175  1.00  0.00    -0.205 A  
HETATM   12  C   UNL     1      -9.460  11.409  68.041  1.00  0.00    -0.181 A  
ENDBRANCH   4   5
ENDBRANCH   2   4
TORSDOF 2
ENDMDL
MODEL      193
REMARK 921   NORMALIZED FREE ENERGY PREDICTED BY IDOCK:   -2.28 KCAL/MOL
REMARK 922        TOTAL FREE ENERGY PREDICTED BY IDOCK:   -2.73 KCAL/MOL
REMARK 923 INTER-LIGAND FREE ENERGY PREDICTED BY IDOCK:   -2.81 KCAL/MOL
REMARK 924 INTRA-LIGAND FREE ENERGY PREDICTED BY IDOCK:    0.07 KCAL/MOL
REMARK 927      BINDING AFFINITY PREDICTED BY RF-SCORE:    0.00 PKD
ROOT
HETATM    1  C   UNL     1     -10.274   9.989  67.104  1.00  0.00    -0.284 C  
HETATM    2  C   UNL     1     -11.143  10.763  68.050  1.00  0.00    -0.299 C  
HETATM    3  O   UNL     1     -12.108  11.428  67.700  1.00  0.00    -0.630 OA 
ENDROOT
BRANCH   2   4
HETATM    4  O   UNL     1     -10.637  10.629  69.345  1.00  0.00    -0.219 OA 
BRANCH   4   5
HETATM    5  C   UNL     1     -10.195   9.376  69.818  1.00  0.00    -0.220 A  
HETATM    6  C   UNL     1     -11.065   8.341  70.160  1.00  0.00    -0.189 A  
HETATM    7  C   UNL     1     -10.533   7.144  70.627  1.00  0.00    -0.210 A  
HETATM    8  C   UNL     1      -9.158   6.953  70.714  1.00  0.00    -0.154 A  
HETATM    9  O   UNL     1     -11.347   6.122  71.021  1.00  0.00    -0.307 OA 
HETATM   10  H   UNL     1     -10.983   5.305  71.340  1.00  0.00     0.000 HD 
HETATM   11  C   UNL     1      -8.293   7.980  70.331  1.00  0.00    -0.120 A  
HETATM   12  C   UNL     1      -8.811   9.196  69.882  1.00  0.00    -0.176 A  
ENDBRANCH   4   5
ENDBRANCH   2   4
TORSDOF 2
ENDMDL
MODEL      194
REMARK 921   NORMALIZED FREE ENERGY PREDICTED BY IDOCK:   -2.27 KCAL/MOL
REMARK 922        TOTAL FREE ENERGY PREDICTED BY IDOCK:   -2.72 KCAL/MOL
REMARK 923 INTER-LIGAND FREE ENERGY PREDICTED BY IDOCK:   -2.52 KCAL/MOL
REMARK 924 INTRA-LIGAND FREE ENERGY PREDICTED BY IDOCK:   -0.20 KCAL/MOL
REMARK 927      BINDING AFFINITY PREDICTED BY RF-SCORE:    0.00 PKD
ROOT
HETATM    1  C   UNL     1     -11.366   2.719  73.015  1.00  0.00     0.042 C  
HETATM    2  C   UNL     1     -10.826   4.110  73.167  1.00  0.00    -0.197 C  
HETATM    3  O   UNL     1     -10.555   4.621  74.245  1.00  0.00    -0.263 OA 
ENDROOT
BRANCH   2   4
HETATM    4  O   UNL     1     -10.741   4.706  71.908  1.00  0.00    -0.098 OA 
BRANCH   4   5
HETATM    5  C   UNL     1     -10.997   6.083  71.746  1.00  0.00    -0.269 A  
HETATM    6  C   UNL     1      -9.994   7.019  71.491  1.00  0.00    -0.187 A  
HETATM    7  C   UNL     1     -10.343   8.358  71.356  1.00  0.00    -0.222 A  
HETATM    8  C   UNL     1     -11.671   8.765  71.428  1.00  0.00    -0.369 A  
HETATM    9  O   UNL     1      -9.391   9.314  71.157  1.00  0.00    -0.254 OA 
HETATM   10  H   UNL     1      -9.630  10.229  71.065  1.00  0.00     0.000 HD 
HETATM   11  C   UNL     1     -12.674   7.817  71.642  1.00  0.00    -0.358 A  
HETATM   12  C   UNL     1     -12.338   6.472  71.802  1.00  0.00    -0.340 A  
ENDBRANCH   4   5
ENDBRANCH   2   4
TORSDOF 2
ENDMDL
MODEL      195
REMARK 921   NORMALIZED FREE ENERGY PREDICTED BY IDOCK:   -2.25 KCAL/MOL
REMARK 922        TOTAL FREE ENERGY PREDICTED BY IDOCK:   -2.70 KCAL/MOL
REMARK 923 INTER-LIGAND FREE ENERGY PREDICTED BY IDOCK:   -2.56 KCAL/MOL
REMARK 924 INTRA-LIGAND FREE ENERGY PREDICTED BY IDOCK:   -0.13 KCAL/MOL
REMARK 927      BINDING AFFINITY PREDICTED BY RF-SCORE:    0.00 PKD
ROOT
HETATM    1  C   UNL     1      -6.482  11.078  68.760  1.00  0.00    -0.051 C  
HETATM    2  C   UNL     1      -7.893  10.648  68.494  1.00  0.00    -0.115 C  
HETATM    3  O   UNL     1      -8.584  10.042  69.301  1.00  0.00    -0.143 OA 
ENDROOT
BRANCH   2   4
HETATM    4  O   UNL     1      -8.240  11.007  67.190  1.00  0.00    -0.126 OA 
BRANCH   4   5
HETATM    5  C   UNL     1      -9.466  11.652  66.925  1.00  0.00    -0.185 A  
HETATM    6  C   UNL     1      -9.990  12.657  67.739  1.00  0.00    -0.218 A  
HETATM    7  C   UNL     1     -11.212  13.227  67.401  1.00  0.00    -0.289 A  
HETATM    8  C   UNL     1     -11.890  12.843  66.249  1.00  0.00    -0.477 A  
HETATM    9  O   UNL     1     -11.787  14.176  68.194  1.00  0.00    -0.331 OA 
HETATM   10  H   UNL     1     -12.621  14.566  67.962  1.00  0.00     0.000 HD 
HETATM   11  C   UNL     1     -11.340  11.865  65.417  1.00  0.00    -0.334 A  
HETATM   12  C   UNL     1     -10.125  11.267  65.754  1.00  0.00    -0.294 A  
ENDBRANCH   4   5
ENDBRANCH   2   4
TORSDOF 2
ENDMDL
MODEL      196
REMARK 921   NORMALIZED FREE ENERGY PREDICTED BY IDOCK:   -2.25 KCAL/MOL
REMARK 922        TOTAL FREE ENERGY PREDICTED BY IDOCK:   -2.70 KCAL/MOL
REMARK 923 INTER-LIGAND FREE ENERGY PREDICTED BY IDOCK:   -2.50 KCAL/MOL
REMARK 924 INTRA-LIGAND FREE ENERGY PREDICTED BY IDOCK:   -0.20 KCAL/MOL
REMARK 927      BINDING AFFINITY PREDICTED BY RF-SCORE:    0.00 PKD
ROOT
HETATM    1  C   UNL     1     -10.810  10.080  68.067  1.00  0.00    -0.311 C  
HETATM    2  C   UNL     1     -11.206  10.190  69.509  1.00  0.00    -0.238 C  
HETATM    3  O   UNL     1     -11.353  11.253  70.096  1.00  0.00    -0.265 OA 
ENDROOT
BRANCH   2   4
HETATM    4  O   UNL     1     -11.322   8.908  70.048  1.00  0.00    -0.175 OA 
BRANCH   4   5
HETATM    5  C   UNL     1     -10.273   8.351  70.810  1.00  0.00    -0.194 A  
HETATM    6  C   UNL     1      -9.924   8.815  72.078  1.00  0.00    -0.391 A  
HETATM    7  C   UNL     1      -8.867   8.208  72.748  1.00  0.00    -0.231 A  
HETATM    8  C   UNL     1      -8.191   7.126  72.193  1.00  0.00    -0.103 A  
HETATM    9  O   UNL     1      -8.458   8.660  73.968  1.00  0.00    -0.294 OA 
HETATM   10  H   UNL     1      -7.736   8.245  74.425  1.00  0.00     0.000 HD 
HETATM   11  C   UNL     1      -8.574   6.641  70.941  1.00  0.00    -0.134 A  
HETATM   12  C   UNL     1      -9.617   7.254  70.246  1.00  0.00    -0.165 A  
ENDBRANCH   4   5
ENDBRANCH   2   4
TORSDOF 2
ENDMDL
MODEL      197
REMARK 921   NORMALIZED FREE ENERGY PREDICTED BY IDOCK:   -2.24 KCAL/MOL
REMARK 922        TOTAL FREE ENERGY PREDICTED BY IDOCK:   -2.69 KCAL/MOL
REMARK 923 INTER-LIGAND FREE ENERGY PREDICTED BY IDOCK:   -2.86 KCAL/MOL
REMARK 924 INTRA-LIGAND FREE ENERGY PREDICTED BY IDOCK:    0.17 KCAL/MOL
REMARK 927      BINDING AFFINITY PREDICTED BY RF-SCORE:    0.00 PKD
ROOT
HETATM    1  C   UNL     1     -10.190  10.470  66.094  1.00  0.00    -0.299 C  
HETATM    2  C   UNL     1     -10.880  11.476  66.966  1.00  0.00    -0.273 C  
HETATM    3  O   UNL     1     -12.086  11.676  66.952  1.00  0.00    -0.512 OA 
ENDROOT
BRANCH   2   4
HETATM    4  O   UNL     1      -9.923  12.147  67.730  1.00  0.00    -0.190 OA 
BRANCH   4   5
HETATM    5  C   UNL     1      -9.854  13.556  67.718  1.00  0.00    -0.233 A  
HETATM    6  C   UNL     1      -9.080  14.288  68.619  1.00  0.00    -0.160 A  
HETATM    7  C   UNL     1      -9.084  15.676  68.535  1.00  0.00    -0.196 A  
HETATM    8  C   UNL     1      -9.806  16.334  67.545  1.00  0.00    -0.238 A  
HETATM    9  O   UNL     1      -8.383  16.434  69.426  1.00  0.00    -0.174 OA 
HETATM   10  H   UNL     1      -8.385  17.382  69.368  1.00  0.00     0.000 HD 
HETATM   11  C   UNL     1     -10.546  15.593  66.621  1.00  0.00    -0.307 A  
HETATM   12  C   UNL     1     -10.571  14.200  66.706  1.00  0.00    -0.277 A  
ENDBRANCH   4   5
ENDBRANCH   2   4
TORSDOF 2
ENDMDL
MODEL      198
REMARK 921   NORMALIZED FREE ENERGY PREDICTED BY IDOCK:   -2.23 KCAL/MOL
REMARK 922        TOTAL FREE ENERGY PREDICTED BY IDOCK:   -2.68 KCAL/MOL
REMARK 923 INTER-LIGAND FREE ENERGY PREDICTED BY IDOCK:   -2.53 KCAL/MOL
REMARK 924 INTRA-LIGAND FREE ENERGY PREDICTED BY IDOCK:   -0.15 KCAL/MOL
REMARK 927      BINDING AFFINITY PREDICTED BY RF-SCORE:    0.00 PKD
ROOT
HETATM    1  C   UNL     1      -8.729   4.079  66.579  1.00  0.00    -0.116 C  
HETATM    2  C   UNL     1     -10.135   4.500  66.273  1.00  0.00    -0.254 C  
HETATM    3  O   UNL     1     -10.644   4.417  65.164  1.00  0.00    -0.246 OA 
ENDROOT
BRANCH   2   4
HETATM    4  O   UNL     1     -10.715   5.026  67.429  1.00  0.00    -0.067 OA 
BRANCH   4   5
HETATM    5  C   UNL     1     -10.621   6.404  67.716  1.00  0.00    -0.266 A  
HETATM    6  C   UNL     1     -10.395   7.372  66.737  1.00  0.00    -0.321 A  
HETATM    7  C   UNL     1     -10.308   8.707  67.119  1.00  0.00    -0.299 A  
HETATM    8  C   UNL     1     -10.484   9.087  68.445  1.00  0.00    -0.234 A  
HETATM    9  O   UNL     1     -10.039   9.682  66.204  1.00  0.00    -0.277 OA 
HETATM   10  H   UNL     1      -9.979  10.593  66.466  1.00  0.00     0.000 HD 
HETATM   11  C   UNL     1     -10.750   8.117  69.413  1.00  0.00    -0.164 A  
HETATM   12  C   UNL     1     -10.819   6.771  69.049  1.00  0.00    -0.290 A  
ENDBRANCH   4   5
ENDBRANCH   2   4
TORSDOF 2
ENDMDL
MODEL      199
REMARK 921   NORMALIZED FREE ENERGY PREDICTED BY IDOCK:   -2.23 KCAL/MOL
REMARK 922        TOTAL FREE ENERGY PREDICTED BY IDOCK:   -2.68 KCAL/MOL
REMARK 923 INTER-LIGAND FREE ENERGY PREDICTED BY IDOCK:   -2.52 KCAL/MOL
REMARK 924 INTRA-LIGAND FREE ENERGY PREDICTED BY IDOCK:   -0.16 KCAL/MOL
REMARK 927      BINDING AFFINITY PREDICTED BY RF-SCORE:    0.00 PKD
ROOT
HETATM    1  C   UNL     1      -6.091   8.487  69.854  1.00  0.00    -0.031 C  
HETATM    2  C   UNL     1      -6.820   8.282  71.148  1.00  0.00    -0.052 C  
HETATM    3  O   UNL     1      -6.841   9.103  72.055  1.00  0.00    -0.301 OA 
ENDROOT
BRANCH   2   4
HETATM    4  O   UNL     1      -7.404   7.014  71.146  1.00  0.00    -0.074 OA 
BRANCH   4   5
HETATM    5  C   UNL     1      -8.735   6.836  70.714  1.00  0.00    -0.146 A  
HETATM    6  C   UNL     1      -9.652   7.884  70.622  1.00  0.00    -0.167 A  
HETATM    7  C   UNL     1     -10.946   7.608  70.195  1.00  0.00    -0.246 A  
HETATM    8  C   UNL     1     -11.321   6.323  69.819  1.00  0.00    -0.506 A  
HETATM    9  O   UNL     1     -11.890   8.592  70.137  1.00  0.00    -0.458 OA 
HETATM   10  H   UNL     1     -12.774   8.403  69.845  1.00  0.00     0.000 HD 
HETATM   11  C   UNL     1     -10.385   5.286  69.875  1.00  0.00    -0.374 A  
HETATM   12  C   UNL     1      -9.089   5.543  70.323  1.00  0.00    -0.163 A  
ENDBRANCH   4   5
ENDBRANCH   2   4
TORSDOF 2
ENDMDL
MODEL      200
REMARK 921   NORMALIZED FREE ENERGY PREDICTED BY IDOCK:   -2.22 KCAL/MOL
REMARK 922        TOTAL FREE ENERGY PREDICTED BY IDOCK:   -2.67 KCAL/MOL
REMARK 923 INTER-LIGAND FREE ENERGY PREDICTED BY IDOCK:   -2.55 KCAL/MOL
REMARK 924 INTRA-LIGAND FREE ENERGY PREDICTED BY IDOCK:   -0.12 KCAL/MOL
REMARK 927      BINDING AFFINITY PREDICTED BY RF-SCORE:    0.00 PKD
ROOT
HETATM    1  C   UNL     1     -11.553   1.835  73.931  1.00  0.00    -0.214 C  
HETATM    2  C   UNL     1     -10.368   2.695  73.605  1.00  0.00    -0.127 C  
HETATM    3  O   UNL     1      -9.454   2.919  74.386  1.00  0.00    -0.084 OA 
ENDROOT
BRANCH   2   4
HETATM    4  O   UNL     1     -10.520   3.209  72.316  1.00  0.00    -0.097 OA 
BRANCH   4   5
HETATM    5  C   UNL     1     -10.509   4.602  72.093  1.00  0.00    -0.148 A  
HETATM    6  C   UNL     1     -10.991   5.526  73.021  1.00  0.00    -0.336 A  
HETATM    7  C   UNL     1     -10.947   6.879  72.706  1.00  0.00    -0.280 A  
HETATM    8  C   UNL     1     -10.394   7.321  71.508  1.00  0.00    -0.217 A  
HETATM    9  O   UNL     1     -11.453   7.815  73.560  1.00  0.00    -0.548 OA 
HETATM   10  H   UNL     1     -11.422   8.739  73.345  1.00  0.00     0.000 HD 
HETATM   11  C   UNL     1      -9.877   6.393  70.602  1.00  0.00    -0.206 A  
HETATM   12  C   UNL     1      -9.934   5.029  70.894  1.00  0.00    -0.286 A  
ENDBRANCH   4   5
ENDBRANCH   2   4
TORSDOF 2
ENDMDL
MODEL      201
REMARK 921   NORMALIZED FREE ENERGY PREDICTED BY IDOCK:   -2.22 KCAL/MOL
REMARK 922        TOTAL FREE ENERGY PREDICTED BY IDOCK:   -2.66 KCAL/MOL
REMARK 923 INTER-LIGAND FREE ENERGY PREDICTED BY IDOCK:   -2.47 KCAL/MOL
REMARK 924 INTRA-LIGAND FREE ENERGY PREDICTED BY IDOCK:   -0.19 KCAL/MOL
REMARK 927      BINDING AFFINITY PREDICTED BY RF-SCORE:    0.00 PKD
ROOT
HETATM    1  C   UNL     1      -9.296  10.360  66.800  1.00  0.00    -0.181 C  
HETATM    2  C   UNL     1     -10.428  10.211  67.771  1.00  0.00    -0.232 C  
HETATM    3  O   UNL     1     -11.576  10.560  67.537  1.00  0.00    -0.421 OA 
ENDROOT
BRANCH   2   4
HETATM    4  O   UNL     1      -9.938   9.668  68.961  1.00  0.00    -0.172 OA 
BRANCH   4   5
HETATM    5  C   UNL     1     -10.255   8.344  69.330  1.00  0.00    -0.208 A  
HETATM    6  C   UNL     1      -9.475   7.245  68.968  1.00  0.00    -0.147 A  
HETATM    7  C   UNL     1      -9.874   5.976  69.372  1.00  0.00    -0.163 A  
HETATM    8  C   UNL     1     -11.006   5.795  70.160  1.00  0.00    -0.368 A  
HETATM    9  O   UNL     1      -9.171   4.868  69.000  1.00  0.00    -0.106 OA 
HETATM   10  H   UNL     1      -9.444   4.001  69.275  1.00  0.00     0.000 HD 
HETATM   11  C   UNL     1     -11.760   6.904  70.552  1.00  0.00    -0.401 A  
HETATM   12  C   UNL     1     -11.384   8.182  70.136  1.00  0.00    -0.071 A  
ENDBRANCH   4   5
ENDBRANCH   2   4
TORSDOF 2
ENDMDL
MODEL      202
REMARK 921   NORMALIZED FREE ENERGY PREDICTED BY IDOCK:   -2.22 KCAL/MOL
REMARK 922        TOTAL FREE ENERGY PREDICTED BY IDOCK:   -2.66 KCAL/MOL
REMARK 923 INTER-LIGAND FREE ENERGY PREDICTED BY IDOCK:   -2.46 KCAL/MOL
REMARK 924 INTRA-LIGAND FREE ENERGY PREDICTED BY IDOCK:   -0.21 KCAL/MOL
REMARK 927      BINDING AFFINITY PREDICTED BY RF-SCORE:    0.00 PKD
ROOT
HETATM    1  C   UNL     1     -12.368   9.334  71.823  1.00  0.00    -0.454 C  
HETATM    2  C   UNL     1     -12.232   7.925  72.317  1.00  0.00    -0.287 C  
HETATM    3  O   UNL     1     -12.843   6.976  71.846  1.00  0.00    -0.324 OA 
ENDROOT
BRANCH   2   4
HETATM    4  O   UNL     1     -11.352   7.905  73.401  1.00  0.00    -0.250 OA 
BRANCH   4   5
HETATM    5  C   UNL     1     -10.152   7.166  73.340  1.00  0.00    -0.303 A  
HETATM    6  C   UNL     1      -9.987   5.930  73.965  1.00  0.00    -0.227 A  
HETATM    7  C   UNL     1      -8.763   5.280  73.855  1.00  0.00    -0.118 A  
HETATM    8  C   UNL     1      -7.726   5.822  73.103  1.00  0.00    -0.099 A  
HETATM    9  O   UNL     1      -8.539   4.094  74.491  1.00  0.00    -0.092 OA 
HETATM   10  H   UNL     1      -7.702   3.651  74.416  1.00  0.00     0.000 HD 
HETATM   11  C   UNL     1      -7.913   7.041  72.446  1.00  0.00    -0.097 A  
HETATM   12  C   UNL     1      -9.129   7.716  72.565  1.00  0.00    -0.205 A  
ENDBRANCH   4   5
ENDBRANCH   2   4
TORSDOF 2
ENDMDL
MODEL      203
REMARK 921   NORMALIZED FREE ENERGY PREDICTED BY IDOCK:   -2.21 KCAL/MOL
REMARK 922        TOTAL FREE ENERGY PREDICTED BY IDOCK:   -2.65 KCAL/MOL
REMARK 923 INTER-LIGAND FREE ENERGY PREDICTED BY IDOCK:   -2.41 KCAL/MOL
REMARK 924 INTRA-LIGAND FREE ENERGY PREDICTED BY IDOCK:   -0.23 KCAL/MOL
REMARK 927      BINDING AFFINITY PREDICTED BY RF-SCORE:    0.00 PKD
ROOT
HETATM    1  C   UNL     1      -7.120   9.251  69.328  1.00  0.00    -0.057 C  
HETATM    2  C   UNL     1      -7.985   8.638  68.268  1.00  0.00    -0.110 C  
HETATM    3  O   UNL     1      -8.485   9.269  67.348  1.00  0.00    -0.121 OA 
ENDROOT
BRANCH   2   4
HETATM    4  O   UNL     1      -8.148   7.279  68.543  1.00  0.00    -0.121 OA 
BRANCH   4   5
HETATM    5  C   UNL     1      -9.106   6.845  69.483  1.00  0.00    -0.142 A  
HETATM    6  C   UNL     1     -10.461   7.164  69.391  1.00  0.00    -0.232 A  
HETATM    7  C   UNL     1     -11.329   6.699  70.372  1.00  0.00    -0.365 A  
HETATM    8  C   UNL     1     -10.875   5.891  71.409  1.00  0.00    -0.332 A  
HETATM    9  O   UNL     1     -12.653   7.027  70.350  1.00  0.00    -0.618 OA 
HETATM   10  H   UNL     1     -13.246   6.709  71.021  1.00  0.00     0.000 HD 
HETATM   11  C   UNL     1      -9.524   5.543  71.472  1.00  0.00    -0.179 A  
HETATM   12  C   UNL     1      -8.636   6.020  70.507  1.00  0.00    -0.137 A  
ENDBRANCH   4   5
ENDBRANCH   2   4
TORSDOF 2
ENDMDL
MODEL      204
REMARK 921   NORMALIZED FREE ENERGY PREDICTED BY IDOCK:   -2.18 KCAL/MOL
REMARK 922        TOTAL FREE ENERGY PREDICTED BY IDOCK:   -2.62 KCAL/MOL
REMARK 923 INTER-LIGAND FREE ENERGY PREDICTED BY IDOCK:   -2.65 KCAL/MOL
REMARK 924 INTRA-LIGAND FREE ENERGY PREDICTED BY IDOCK:    0.03 KCAL/MOL
REMARK 927      BINDING AFFINITY PREDICTED BY RF-SCORE:    0.00 PKD
ROOT
HETATM    1  C   UNL     1     -10.498  11.383  66.625  1.00  0.00    -0.285 C  
HETATM    2  C   UNL     1     -10.062  10.411  67.680  1.00  0.00    -0.188 C  
HETATM    3  O   UNL     1      -9.148  10.623  68.465  1.00  0.00    -0.144 OA 
ENDROOT
BRANCH   2   4
HETATM    4  O   UNL     1     -10.827   9.248  67.573  1.00  0.00    -0.259 OA 
BRANCH   4   5
HETATM    5  C   UNL     1     -10.288   8.086  66.983  1.00  0.00    -0.344 A  
HETATM    6  C   UNL     1     -10.943   6.854  66.990  1.00  0.00    -0.404 A  
HETATM    7  C   UNL     1     -10.327   5.762  66.391  1.00  0.00    -0.151 A  
HETATM    8  C   UNL     1      -9.098   5.890  65.753  1.00  0.00    -0.101 A  
HETATM    9  O   UNL     1     -10.908   4.527  66.417  1.00  0.00    -0.400 OA 
HETATM   10  H   UNL     1     -10.486   3.781  66.008  1.00  0.00     0.000 HD 
HETATM   11  C   UNL     1      -8.466   7.135  65.714  1.00  0.00    -0.151 A  
HETATM   12  C   UNL     1      -9.062   8.237  66.331  1.00  0.00    -0.226 A  
ENDBRANCH   4   5
ENDBRANCH   2   4
TORSDOF 2
ENDMDL
MODEL      205
REMARK 921   NORMALIZED FREE ENERGY PREDICTED BY IDOCK:   -2.15 KCAL/MOL
REMARK 922        TOTAL FREE ENERGY PREDICTED BY IDOCK:   -2.59 KCAL/MOL
REMARK 923 INTER-LIGAND FREE ENERGY PREDICTED BY IDOCK:   -2.39 KCAL/MOL
REMARK 924 INTRA-LIGAND FREE ENERGY PREDICTED BY IDOCK:   -0.20 KCAL/MOL
REMARK 927      BINDING AFFINITY PREDICTED BY RF-SCORE:    0.00 PKD
ROOT
HETATM    1  C   UNL     1      -6.253   9.113  69.942  1.00  0.00    -0.038 C  
HETATM    2  C   UNL     1      -7.439   8.574  70.685  1.00  0.00    -0.066 C  
HETATM    3  O   UNL     1      -8.058   9.207  71.529  1.00  0.00    -0.337 OA 
ENDROOT
BRANCH   2   4
HETATM    4  O   UNL     1      -7.665   7.255  70.287  1.00  0.00    -0.091 OA 
BRANCH   4   5
HETATM    5  C   UNL     1      -8.768   6.930  69.470  1.00  0.00    -0.133 A  
HETATM    6  C   UNL     1      -8.741   7.032  68.079  1.00  0.00    -0.126 A  
HETATM    7  C   UNL     1      -9.882   6.698  67.359  1.00  0.00    -0.131 A  
HETATM    8  C   UNL     1     -11.024   6.227  67.999  1.00  0.00    -0.418 A  
HETATM    9  O   UNL     1      -9.918   6.829  66.001  1.00  0.00    -0.404 OA 
HETATM   10  H   UNL     1     -10.698   6.601  65.510  1.00  0.00     0.000 HD 
HETATM   11  C   UNL     1     -11.030   6.090  69.389  1.00  0.00    -0.455 A  
HETATM   12  C   UNL     1      -9.899   6.442  70.128  1.00  0.00    -0.191 A  
ENDBRANCH   4   5
ENDBRANCH   2   4
TORSDOF 2
ENDMDL
MODEL      206
REMARK 921   NORMALIZED FREE ENERGY PREDICTED BY IDOCK:   -2.11 KCAL/MOL
REMARK 922        TOTAL FREE ENERGY PREDICTED BY IDOCK:   -2.55 KCAL/MOL
REMARK 923 INTER-LIGAND FREE ENERGY PREDICTED BY IDOCK:   -2.36 KCAL/MOL
REMARK 924 INTRA-LIGAND FREE ENERGY PREDICTED BY IDOCK:   -0.18 KCAL/MOL
REMARK 927      BINDING AFFINITY PREDICTED BY RF-SCORE:    0.00 PKD
ROOT
HETATM    1  C   UNL     1      -8.059   1.859  69.016  1.00  0.00    -0.063 C  
HETATM    2  C   UNL     1      -8.261   3.340  69.137  1.00  0.00    -0.059 C  
HETATM    3  O   UNL     1      -7.346   4.145  69.239  1.00  0.00    -0.053 OA 
ENDROOT
BRANCH   2   4
HETATM    4  O   UNL     1      -9.630   3.612  69.159  1.00  0.00    -0.175 OA 
BRANCH   4   5
HETATM    5  C   UNL     1     -10.152   4.600  70.020  1.00  0.00    -0.197 A  
HETATM    6  C   UNL     1     -10.019   4.548  71.408  1.00  0.00    -0.259 A  
HETATM    7  C   UNL     1     -10.577   5.565  72.175  1.00  0.00    -0.226 A  
HETATM    8  C   UNL     1     -11.221   6.644  71.579  1.00  0.00    -0.313 A  
HETATM    9  O   UNL     1     -10.516   5.529  73.537  1.00  0.00    -0.214 OA 
HETATM   10  H   UNL     1     -10.897   6.224  74.061  1.00  0.00     0.000 HD 
HETATM   11  C   UNL     1     -11.314   6.710  70.187  1.00  0.00    -0.440 A  
HETATM   12  C   UNL     1     -10.778   5.686  69.404  1.00  0.00    -0.365 A  
ENDBRANCH   4   5
ENDBRANCH   2   4
TORSDOF 2
ENDMDL
MODEL      207
REMARK 921   NORMALIZED FREE ENERGY PREDICTED BY IDOCK:   -2.08 KCAL/MOL
REMARK 922        TOTAL FREE ENERGY PREDICTED BY IDOCK:   -2.51 KCAL/MOL
REMARK 923 INTER-LIGAND FREE ENERGY PREDICTED BY IDOCK:   -2.32 KCAL/MOL
REMARK 924 INTRA-LIGAND FREE ENERGY PREDICTED BY IDOCK:   -0.19 KCAL/MOL
REMARK 927      BINDING AFFINITY PREDICTED BY RF-SCORE:    0.00 PKD
ROOT
HETATM    1  C   UNL     1      -6.080   9.343  71.071  1.00  0.00    -0.073 C  
HETATM    2  C   UNL     1      -7.543   9.335  70.743  1.00  0.00    -0.133 C  
HETATM    3  O   UNL     1      -8.328   8.493  71.156  1.00  0.00    -0.121 OA 
ENDROOT
BRANCH   2   4
HETATM    4  O   UNL     1      -7.821  10.392  69.875  1.00  0.00    -0.146 OA 
BRANCH   4   5
HETATM    5  C   UNL     1      -8.766  10.241  68.839  1.00  0.00    -0.152 A  
HETATM    6  C   UNL     1      -9.985  10.920  68.814  1.00  0.00    -0.203 A  
HETATM    7  C   UNL     1     -10.856  10.699  67.754  1.00  0.00    -0.286 A  
HETATM    8  C   UNL     1     -10.513   9.850  66.707  1.00  0.00    -0.261 A  
HETATM    9  O   UNL     1     -12.079  11.302  67.714  1.00  0.00    -0.631 OA 
HETATM   10  H   UNL     1     -12.674  11.150  66.989  1.00  0.00     0.000 HD 
HETATM   11  C   UNL     1      -9.274   9.205  66.718  1.00  0.00    -0.195 A  
HETATM   12  C   UNL     1      -8.398   9.400  67.786  1.00  0.00    -0.115 A  
ENDBRANCH   4   5
ENDBRANCH   2   4
TORSDOF 2
ENDMDL
MODEL      208
REMARK 921   NORMALIZED FREE ENERGY PREDICTED BY IDOCK:   -2.06 KCAL/MOL
REMARK 922        TOTAL FREE ENERGY PREDICTED BY IDOCK:   -2.48 KCAL/MOL
REMARK 923 INTER-LIGAND FREE ENERGY PREDICTED BY IDOCK:   -2.38 KCAL/MOL
REMARK 924 INTRA-LIGAND FREE ENERGY PREDICTED BY IDOCK:   -0.10 KCAL/MOL
REMARK 927      BINDING AFFINITY PREDICTED BY RF-SCORE:    0.00 PKD
ROOT
HETATM    1  C   UNL     1      -8.666  15.106  66.781  1.00  0.00    -0.307 C  
HETATM    2  C   UNL     1      -9.646  13.981  66.930  1.00  0.00    -0.271 C  
HETATM    3  O   UNL     1     -10.572  13.778  66.156  1.00  0.00    -0.284 OA 
ENDROOT
BRANCH   2   4
HETATM    4  O   UNL     1      -9.349  13.268  68.092  1.00  0.00    -0.211 OA 
BRANCH   4   5
HETATM    5  C   UNL     1      -9.665  11.897  68.196  1.00  0.00    -0.194 A  
HETATM    6  C   UNL     1      -8.739  10.882  67.953  1.00  0.00    -0.131 A  
HETATM    7  C   UNL     1      -9.148   9.558  68.071  1.00  0.00    -0.123 A  
HETATM    8  C   UNL     1     -10.442   9.238  68.465  1.00  0.00    -0.240 A  
HETATM    9  O   UNL     1      -8.291   8.533  67.794  1.00  0.00    -0.127 OA 
HETATM   10  H   UNL     1      -8.571   7.629  67.875  1.00  0.00     0.000 HD 
HETATM   11  C   UNL     1     -11.352  10.260  68.746  1.00  0.00    -0.226 A  
HETATM   12  C   UNL     1     -10.963  11.594  68.611  1.00  0.00    -0.266 A  
ENDBRANCH   4   5
ENDBRANCH   2   4
TORSDOF 2
ENDMDL
MODEL      209
REMARK 921   NORMALIZED FREE ENERGY PREDICTED BY IDOCK:   -2.05 KCAL/MOL
REMARK 922        TOTAL FREE ENERGY PREDICTED BY IDOCK:   -2.47 KCAL/MOL
REMARK 923 INTER-LIGAND FREE ENERGY PREDICTED BY IDOCK:   -2.63 KCAL/MOL
REMARK 924 INTRA-LIGAND FREE ENERGY PREDICTED BY IDOCK:    0.16 KCAL/MOL
REMARK 927      BINDING AFFINITY PREDICTED BY RF-SCORE:    0.00 PKD
ROOT
HETATM    1  C   UNL     1     -11.610   6.486  72.397  1.00  0.00    -0.292 C  
HETATM    2  C   UNL     1     -10.623   7.276  73.202  1.00  0.00    -0.355 C  
HETATM    3  O   UNL     1     -10.223   6.941  74.308  1.00  0.00    -0.349 OA 
ENDROOT
BRANCH   2   4
HETATM    4  O   UNL     1     -10.297   8.441  72.506  1.00  0.00    -0.315 OA 
BRANCH   4   5
HETATM    5  C   UNL     1     -10.163   8.426  71.102  1.00  0.00    -0.202 A  
HETATM    6  C   UNL     1      -9.372   7.499  70.423  1.00  0.00    -0.161 A  
HETATM    7  C   UNL     1      -9.295   7.569  69.036  1.00  0.00    -0.146 A  
HETATM    8  C   UNL     1     -10.023   8.516  68.323  1.00  0.00    -0.211 A  
HETATM    9  O   UNL     1      -8.495   6.716  68.334  1.00  0.00    -0.124 OA 
HETATM   10  H   UNL     1      -8.443   6.765  67.387  1.00  0.00     0.000 HD 
HETATM   11  C   UNL     1     -10.844   9.415  69.007  1.00  0.00    -0.161 A  
HETATM   12  C   UNL     1     -10.915   9.371  70.401  1.00  0.00    -0.317 A  
ENDBRANCH   4   5
ENDBRANCH   2   4
TORSDOF 2
ENDMDL
MODEL      210
REMARK 921   NORMALIZED FREE ENERGY PREDICTED BY IDOCK:   -2.05 KCAL/MOL
REMARK 922        TOTAL FREE ENERGY PREDICTED BY IDOCK:   -2.47 KCAL/MOL
REMARK 923 INTER-LIGAND FREE ENERGY PREDICTED BY IDOCK:   -2.27 KCAL/MOL
REMARK 924 INTRA-LIGAND FREE ENERGY PREDICTED BY IDOCK:   -0.20 KCAL/MOL
REMARK 927      BINDING AFFINITY PREDICTED BY RF-SCORE:    0.00 PKD
ROOT
HETATM    1  C   UNL     1      -6.495   6.630  66.750  1.00  0.00    -0.043 C  
HETATM    2  C   UNL     1      -7.696   7.501  66.537  1.00  0.00    -0.097 C  
HETATM    3  O   UNL     1      -8.080   7.875  65.438  1.00  0.00    -0.115 OA 
ENDROOT
BRANCH   2   4
HETATM    4  O   UNL     1      -8.243   7.834  67.778  1.00  0.00    -0.123 OA 
BRANCH   4   5
HETATM    5  C   UNL     1      -8.886   9.074  67.970  1.00  0.00    -0.129 A  
HETATM    6  C   UNL     1     -10.271   9.206  68.077  1.00  0.00    -0.258 A  
HETATM    7  C   UNL     1     -10.814  10.473  68.256  1.00  0.00    -0.248 A  
HETATM    8  C   UNL     1      -9.999  11.594  68.373  1.00  0.00    -0.201 A  
HETATM    9  O   UNL     1     -12.164  10.656  68.316  1.00  0.00    -0.799 OA 
HETATM   10  H   UNL     1     -12.534  11.522  68.438  1.00  0.00     0.000 HD 
HETATM   11  C   UNL     1      -8.611  11.450  68.306  1.00  0.00    -0.156 A  
HETATM   12  C   UNL     1      -8.052  10.187  68.104  1.00  0.00    -0.105 A  
ENDBRANCH   4   5
ENDBRANCH   2   4
TORSDOF 2
ENDMDL
MODEL      211
REMARK 921   NORMALIZED FREE ENERGY PREDICTED BY IDOCK:   -2.00 KCAL/MOL
REMARK 922        TOTAL FREE ENERGY PREDICTED BY IDOCK:   -2.42 KCAL/MOL
REMARK 923 INTER-LIGAND FREE ENERGY PREDICTED BY IDOCK:   -2.41 KCAL/MOL
REMARK 924 INTRA-LIGAND FREE ENERGY PREDICTED BY IDOCK:   -0.01 KCAL/MOL
REMARK 927      BINDING AFFINITY PREDICTED BY RF-SCORE:    0.00 PKD
ROOT
HETATM    1  C   UNL     1     -10.067  11.442  66.109  1.00  0.00    -0.271 C  
HETATM    2  C   UNL     1      -9.724  10.361  67.090  1.00  0.00    -0.172 C  
HETATM    3  O   UNL     1      -9.415  10.573  68.255  1.00  0.00    -0.147 OA 
ENDROOT
BRANCH   2   4
HETATM    4  O   UNL     1      -9.772   9.126  66.443  1.00  0.00    -0.218 OA 
BRANCH   4   5
HETATM    5  C   UNL     1      -9.920   7.933  67.181  1.00  0.00    -0.230 A  
HETATM    6  C   UNL     1     -10.887   7.766  68.173  1.00  0.00    -0.012 A  
HETATM    7  C   UNL     1     -10.948   6.555  68.854  1.00  0.00    -0.314 A  
HETATM    8  C   UNL     1     -10.095   5.505  68.532  1.00  0.00    -0.240 A  
HETATM    9  O   UNL     1     -11.844   6.365  69.865  1.00  0.00    -0.552 OA 
HETATM   10  H   UNL     1     -11.885   5.537  70.330  1.00  0.00     0.000 HD 
HETATM   11  C   UNL     1      -9.156   5.666  67.510  1.00  0.00    -0.106 A  
HETATM   12  C   UNL     1      -9.067   6.883  66.832  1.00  0.00    -0.152 A  
ENDBRANCH   4   5
ENDBRANCH   2   4
TORSDOF 2
ENDMDL
MODEL      212
REMARK 921   NORMALIZED FREE ENERGY PREDICTED BY IDOCK:   -1.93 KCAL/MOL
REMARK 922        TOTAL FREE ENERGY PREDICTED BY IDOCK:   -2.34 KCAL/MOL
REMARK 923 INTER-LIGAND FREE ENERGY PREDICTED BY IDOCK:   -2.14 KCAL/MOL
REMARK 924 INTRA-LIGAND FREE ENERGY PREDICTED BY IDOCK:   -0.19 KCAL/MOL
REMARK 927      BINDING AFFINITY PREDICTED BY RF-SCORE:    0.00 PKD
ROOT
HETATM    1  C   UNL     1     -10.992   2.878  73.802  1.00  0.00    -0.313 C  
HETATM    2  C   UNL     1     -10.636   4.325  73.630  1.00  0.00    -0.230 C  
HETATM    3  O   UNL     1     -10.416   5.087  74.561  1.00  0.00    -0.276 OA 
ENDROOT
BRANCH   2   4
HETATM    4  O   UNL     1     -10.651   4.638  72.270  1.00  0.00    -0.196 OA 
BRANCH   4   5
HETATM    5  C   UNL     1      -9.881   5.710  71.771  1.00  0.00    -0.168 A  
HETATM    6  C   UNL     1     -10.398   6.991  71.573  1.00  0.00    -0.218 A  
HETATM    7  C   UNL     1      -9.564   7.981  71.068  1.00  0.00    -0.160 A  
HETATM    8  C   UNL     1      -8.223   7.724  70.800  1.00  0.00    -0.107 A  
HETATM    9  O   UNL     1     -10.038   9.234  70.811  1.00  0.00    -0.245 OA 
HETATM   10  H   UNL     1      -9.468   9.911  70.466  1.00  0.00     0.000 HD 
HETATM   11  C   UNL     1      -7.703   6.450  71.039  1.00  0.00    -0.101 A  
HETATM   12  C   UNL     1      -8.533   5.439  71.525  1.00  0.00    -0.127 A  
ENDBRANCH   4   5
ENDBRANCH   2   4
TORSDOF 2
ENDMDL
MODEL      213
REMARK 921   NORMALIZED FREE ENERGY PREDICTED BY IDOCK:   -1.90 KCAL/MOL
REMARK 922        TOTAL FREE ENERGY PREDICTED BY IDOCK:   -2.30 KCAL/MOL
REMARK 923 INTER-LIGAND FREE ENERGY PREDICTED BY IDOCK:   -2.10 KCAL/MOL
REMARK 924 INTRA-LIGAND FREE ENERGY PREDICTED BY IDOCK:   -0.21 KCAL/MOL
REMARK 927      BINDING AFFINITY PREDICTED BY RF-SCORE:    0.00 PKD
ROOT
HETATM    1  C   UNL     1      -8.308   5.749  71.488  1.00  0.00    -0.127 C  
HETATM    2  C   UNL     1      -9.154   4.689  70.848  1.00  0.00    -0.131 C  
HETATM    3  O   UNL     1     -10.202   4.275  71.325  1.00  0.00    -0.146 OA 
ENDROOT
BRANCH   2   4
HETATM    4  O   UNL     1      -8.525   4.246  69.683  1.00  0.00    -0.067 OA 
BRANCH   4   5
HETATM    5  C   UNL     1      -8.789   4.867  68.444  1.00  0.00    -0.103 A  
HETATM    6  C   UNL     1     -10.034   4.817  67.817  1.00  0.00    -0.169 A  
HETATM    7  C   UNL     1     -10.194   5.452  66.591  1.00  0.00    -0.243 A  
HETATM    8  C   UNL     1      -9.152   6.167  66.009  1.00  0.00    -0.136 A  
HETATM    9  O   UNL     1     -11.379   5.387  65.917  1.00  0.00    -0.772 OA 
HETATM   10  H   UNL     1     -11.488   5.822  65.079  1.00  0.00     0.000 HD 
HETATM   11  C   UNL     1      -7.920   6.247  66.663  1.00  0.00    -0.108 A  
HETATM   12  C   UNL     1      -7.737   5.596  67.884  1.00  0.00    -0.093 A  
ENDBRANCH   4   5
ENDBRANCH   2   4
TORSDOF 2
ENDMDL
MODEL      214
REMARK 921   NORMALIZED FREE ENERGY PREDICTED BY IDOCK:   -1.89 KCAL/MOL
REMARK 922        TOTAL FREE ENERGY PREDICTED BY IDOCK:   -2.29 KCAL/MOL
REMARK 923 INTER-LIGAND FREE ENERGY PREDICTED BY IDOCK:   -2.10 KCAL/MOL
REMARK 924 INTRA-LIGAND FREE ENERGY PREDICTED BY IDOCK:   -0.19 KCAL/MOL
REMARK 927      BINDING AFFINITY PREDICTED BY RF-SCORE:    0.00 PKD
ROOT
HETATM    1  C   UNL     1      -5.639   6.961  69.295  1.00  0.00    -0.015 C  
HETATM    2  C   UNL     1      -7.047   6.495  69.519  1.00  0.00    -0.073 C  
HETATM    3  O   UNL     1      -7.362   5.320  69.646  1.00  0.00    -0.062 OA 
ENDROOT
BRANCH   2   4
HETATM    4  O   UNL     1      -7.900   7.599  69.506  1.00  0.00    -0.110 OA 
BRANCH   4   5
HETATM    5  C   UNL     1      -8.867   7.772  70.518  1.00  0.00    -0.145 A  
HETATM    6  C   UNL     1      -8.560   7.741  71.879  1.00  0.00    -0.143 A  
HETATM    7  C   UNL     1      -9.585   7.911  72.803  1.00  0.00    -0.247 A  
HETATM    8  C   UNL     1     -10.891   8.152  72.391  1.00  0.00    -0.409 A  
HETATM    9  O   UNL     1      -9.339   7.839  74.143  1.00  0.00    -0.406 OA 
HETATM   10  H   UNL     1     -10.040   7.955  74.774  1.00  0.00     0.000 HD 
HETATM   11  C   UNL     1     -11.184   8.222  71.028  1.00  0.00    -0.291 A  
HETATM   12  C   UNL     1     -10.170   8.031  70.087  1.00  0.00    -0.203 A  
ENDBRANCH   4   5
ENDBRANCH   2   4
TORSDOF 2
ENDMDL
MODEL      215
REMARK 921   NORMALIZED FREE ENERGY PREDICTED BY IDOCK:   -1.88 KCAL/MOL
REMARK 922        TOTAL FREE ENERGY PREDICTED BY IDOCK:   -2.29 KCAL/MOL
REMARK 923 INTER-LIGAND FREE ENERGY PREDICTED BY IDOCK:   -2.21 KCAL/MOL
REMARK 924 INTRA-LIGAND FREE ENERGY PREDICTED BY IDOCK:   -0.08 KCAL/MOL
REMARK 927      BINDING AFFINITY PREDICTED BY RF-SCORE:    0.00 PKD
ROOT
HETATM    1  C   UNL     1      -6.314  10.561  68.303  1.00  0.00    -0.054 C  
HETATM    2  C   UNL     1      -6.691  10.383  69.743  1.00  0.00    -0.117 C  
HETATM    3  O   UNL     1      -6.430  11.194  70.621  1.00  0.00    -0.309 OA 
ENDROOT
BRANCH   2   4
HETATM    4  O   UNL     1      -7.324   9.148  69.899  1.00  0.00    -0.054 OA 
BRANCH   4   5
HETATM    5  C   UNL     1      -8.506   8.853  69.189  1.00  0.00    -0.132 A  
HETATM    6  C   UNL     1      -9.520   9.788  68.975  1.00  0.00    -0.173 A  
HETATM    7  C   UNL     1     -10.654   9.399  68.271  1.00  0.00    -0.210 A  
HETATM    8  C   UNL     1     -10.770   8.117  67.745  1.00  0.00    -0.166 A  
HETATM    9  O   UNL     1     -11.692  10.264  68.081  1.00  0.00    -0.711 OA 
HETATM   10  H   UNL     1     -12.467   9.998  67.600  1.00  0.00     0.000 HD 
HETATM   11  C   UNL     1      -9.733   7.199  67.928  1.00  0.00    -0.156 A  
HETATM   12  C   UNL     1      -8.598   7.567  68.652  1.00  0.00    -0.129 A  
ENDBRANCH   4   5
ENDBRANCH   2   4
TORSDOF 2
ENDMDL
MODEL      216
REMARK 921   NORMALIZED FREE ENERGY PREDICTED BY IDOCK:   -1.84 KCAL/MOL
REMARK 922        TOTAL FREE ENERGY PREDICTED BY IDOCK:   -2.24 KCAL/MOL
REMARK 923 INTER-LIGAND FREE ENERGY PREDICTED BY IDOCK:   -2.02 KCAL/MOL
REMARK 924 INTRA-LIGAND FREE ENERGY PREDICTED BY IDOCK:   -0.21 KCAL/MOL
REMARK 927      BINDING AFFINITY PREDICTED BY RF-SCORE:    0.00 PKD
ROOT
HETATM    1  C   UNL     1      -6.642   8.692  72.395  1.00  0.00    -0.066 C  
HETATM    2  C   UNL     1      -7.133   7.897  71.222  1.00  0.00    -0.055 C  
HETATM    3  O   UNL     1      -6.396   7.325  70.431  1.00  0.00    -0.034 OA 
ENDROOT
BRANCH   2   4
HETATM    4  O   UNL     1      -8.526   7.971  71.173  1.00  0.00    -0.113 OA 
BRANCH   4   5
HETATM    5  C   UNL     1      -9.185   8.339  69.982  1.00  0.00    -0.151 A  
HETATM    6  C   UNL     1      -9.841   7.422  69.160  1.00  0.00    -0.168 A  
HETATM    7  C   UNL     1     -10.455   7.880  67.999  1.00  0.00    -0.185 A  
HETATM    8  C   UNL     1     -10.459   9.232  67.673  1.00  0.00    -0.325 A  
HETATM    9  O   UNL     1     -11.064   7.013  67.140  1.00  0.00    -0.536 OA 
HETATM   10  H   UNL     1     -11.483   7.326  66.347  1.00  0.00     0.000 HD 
HETATM   11  C   UNL     1      -9.835  10.149  68.522  1.00  0.00    -0.165 A  
HETATM   12  C   UNL     1      -9.196   9.703  69.680  1.00  0.00    -0.225 A  
ENDBRANCH   4   5
ENDBRANCH   2   4
TORSDOF 2
ENDMDL
MODEL      217
REMARK 921   NORMALIZED FREE ENERGY PREDICTED BY IDOCK:   -1.82 KCAL/MOL
REMARK 922        TOTAL FREE ENERGY PREDICTED BY IDOCK:   -2.22 KCAL/MOL
REMARK 923 INTER-LIGAND FREE ENERGY PREDICTED BY IDOCK:   -2.01 KCAL/MOL
REMARK 924 INTRA-LIGAND FREE ENERGY PREDICTED BY IDOCK:   -0.21 KCAL/MOL
REMARK 927      BINDING AFFINITY PREDICTED BY RF-SCORE:    0.00 PKD
ROOT
HETATM    1  C   UNL     1      -6.688   4.765  66.562  1.00  0.00    -0.054 C  
HETATM    2  C   UNL     1      -7.862   5.651  66.269  1.00  0.00    -0.100 C  
HETATM    3  O   UNL     1      -8.667   5.439  65.373  1.00  0.00    -0.150 OA 
ENDROOT
BRANCH   2   4
HETATM    4  O   UNL     1      -7.836   6.742  67.138  1.00  0.00    -0.108 OA 
BRANCH   4   5
HETATM    5  C   UNL     1      -8.579   6.723  68.338  1.00  0.00    -0.125 A  
HETATM    6  C   UNL     1      -9.972   6.650  68.369  1.00  0.00    -0.146 A  
HETATM    7  C   UNL     1     -10.617   6.647  69.601  1.00  0.00    -0.234 A  
HETATM    8  C   UNL     1      -9.895   6.670  70.790  1.00  0.00    -0.198 A  
HETATM    9  O   UNL     1     -11.978   6.627  69.680  1.00  0.00    -0.653 OA 
HETATM   10  H   UNL     1     -12.418   6.625  70.522  1.00  0.00     0.000 HD 
HETATM   11  C   UNL     1      -8.499   6.702  70.751  1.00  0.00    -0.134 A  
HETATM   12  C   UNL     1      -7.838   6.728  69.522  1.00  0.00    -0.113 A  
ENDBRANCH   4   5
ENDBRANCH   2   4
TORSDOF 2
ENDMDL
MODEL      218
REMARK 921   NORMALIZED FREE ENERGY PREDICTED BY IDOCK:   -1.80 KCAL/MOL
REMARK 922        TOTAL FREE ENERGY PREDICTED BY IDOCK:   -2.20 KCAL/MOL
REMARK 923 INTER-LIGAND FREE ENERGY PREDICTED BY IDOCK:   -2.08 KCAL/MOL
REMARK 924 INTRA-LIGAND FREE ENERGY PREDICTED BY IDOCK:   -0.12 KCAL/MOL
REMARK 927      BINDING AFFINITY PREDICTED BY RF-SCORE:    0.00 PKD
ROOT
HETATM    1  C   UNL     1     -11.061  11.973  66.596  1.00  0.00    -0.358 C  
HETATM    2  C   UNL     1     -10.756  10.863  67.557  1.00  0.00    -0.252 C  
HETATM    3  O   UNL     1     -10.576  11.031  68.755  1.00  0.00    -0.182 OA 
ENDROOT
BRANCH   2   4
HETATM    4  O   UNL     1     -10.672   9.661  66.853  1.00  0.00    -0.203 OA 
BRANCH   4   5
HETATM    5  C   UNL     1      -9.947   8.571  67.376  1.00  0.00    -0.214 A  
HETATM    6  C   UNL     1      -8.578   8.622  67.637  1.00  0.00    -0.136 A  
HETATM    7  C   UNL     1      -7.948   7.491  68.145  1.00  0.00    -0.123 A  
HETATM    8  C   UNL     1      -8.668   6.336  68.433  1.00  0.00    -0.116 A  
HETATM    9  O   UNL     1      -6.602   7.478  68.368  1.00  0.00    -0.047 OA 
HETATM   10  H   UNL     1      -6.173   6.705  68.715  1.00  0.00     0.000 HD 
HETATM   11  C   UNL     1     -10.046   6.306  68.208  1.00  0.00    -0.172 A  
HETATM   12  C   UNL     1     -10.689   7.425  67.678  1.00  0.00    -0.278 A  
ENDBRANCH   4   5
ENDBRANCH   2   4
TORSDOF 2
ENDMDL
MODEL      219
REMARK 921   NORMALIZED FREE ENERGY PREDICTED BY IDOCK:   -1.79 KCAL/MOL
REMARK 922        TOTAL FREE ENERGY PREDICTED BY IDOCK:   -2.18 KCAL/MOL
REMARK 923 INTER-LIGAND FREE ENERGY PREDICTED BY IDOCK:   -1.94 KCAL/MOL
REMARK 924 INTRA-LIGAND FREE ENERGY PREDICTED BY IDOCK:   -0.24 KCAL/MOL
REMARK 927      BINDING AFFINITY PREDICTED BY RF-SCORE:    0.00 PKD
ROOT
HETATM    1  C   UNL     1      -7.326  12.090  68.186  1.00  0.00    -0.094 C  
HETATM    2  C   UNL     1      -8.813  11.985  68.027  1.00  0.00    -0.179 C  
HETATM    3  O   UNL     1      -9.588  12.908  68.239  1.00  0.00    -0.218 OA 
ENDROOT
BRANCH   2   4
HETATM    4  O   UNL     1      -9.140  10.680  67.655  1.00  0.00    -0.141 OA 
BRANCH   4   5
HETATM    5  C   UNL     1      -9.177   9.647  68.614  1.00  0.00    -0.136 A  
HETATM    6  C   UNL     1      -9.899   9.739  69.805  1.00  0.00    -0.262 A  
HETATM    7  C   UNL     1      -9.865   8.671  70.694  1.00  0.00    -0.183 A  
HETATM    8  C   UNL     1      -9.164   7.507  70.395  1.00  0.00    -0.157 A  
HETATM    9  O   UNL     1     -10.515   8.735  71.892  1.00  0.00    -0.307 OA 
HETATM   10  H   UNL     1     -10.492   8.006  72.500  1.00  0.00     0.000 HD 
HETATM   11  C   UNL     1      -8.477   7.407  69.183  1.00  0.00    -0.133 A  
HETATM   12  C   UNL     1      -8.482   8.479  68.289  1.00  0.00    -0.135 A  
ENDBRANCH   4   5
ENDBRANCH   2   4
TORSDOF 2
ENDMDL
MODEL      220
REMARK 921   NORMALIZED FREE ENERGY PREDICTED BY IDOCK:   -1.79 KCAL/MOL
REMARK 922        TOTAL FREE ENERGY PREDICTED BY IDOCK:   -2.18 KCAL/MOL
REMARK 923 INTER-LIGAND FREE ENERGY PREDICTED BY IDOCK:   -2.22 KCAL/MOL
REMARK 924 INTRA-LIGAND FREE ENERGY PREDICTED BY IDOCK:    0.04 KCAL/MOL
REMARK 927      BINDING AFFINITY PREDICTED BY RF-SCORE:    0.00 PKD
ROOT
HETATM    1  C   UNL     1     -10.799   9.838  69.332  1.00  0.00    -0.256 C  
HETATM    2  C   UNL     1     -10.713   8.901  70.500  1.00  0.00    -0.230 C  
HETATM    3  O   UNL     1     -10.346   9.237  71.617  1.00  0.00    -0.340 OA 
ENDROOT
BRANCH   2   4
HETATM    4  O   UNL     1     -11.067   7.617  70.081  1.00  0.00    -0.257 OA 
BRANCH   4   5
HETATM    5  C   UNL     1     -10.078   6.642  69.838  1.00  0.00    -0.176 A  
HETATM    6  C   UNL     1     -10.376   5.323  69.494  1.00  0.00    -0.333 A  
HETATM    7  C   UNL     1      -9.331   4.431  69.284  1.00  0.00    -0.156 A  
HETATM    8  C   UNL     1      -8.006   4.843  69.369  1.00  0.00    -0.074 A  
HETATM    9  O   UNL     1      -9.576   3.120  68.994  1.00  0.00    -0.153 OA 
HETATM   10  H   UNL     1      -8.862   2.511  68.851  1.00  0.00     0.000 HD 
HETATM   11  C   UNL     1      -7.714   6.175  69.675  1.00  0.00    -0.098 A  
HETATM   12  C   UNL     1      -8.752   7.078  69.910  1.00  0.00    -0.142 A  
ENDBRANCH   4   5
ENDBRANCH   2   4
TORSDOF 2
ENDMDL
MODEL      221
REMARK 921   NORMALIZED FREE ENERGY PREDICTED BY IDOCK:   -1.78 KCAL/MOL
REMARK 922        TOTAL FREE ENERGY PREDICTED BY IDOCK:   -2.17 KCAL/MOL
REMARK 923 INTER-LIGAND FREE ENERGY PREDICTED BY IDOCK:   -2.03 KCAL/MOL
REMARK 924 INTRA-LIGAND FREE ENERGY PREDICTED BY IDOCK:   -0.14 KCAL/MOL
REMARK 927      BINDING AFFINITY PREDICTED BY RF-SCORE:    0.00 PKD
ROOT
HETATM    1  C   UNL     1      -8.717   6.435  71.379  1.00  0.00    -0.131 C  
HETATM    2  C   UNL     1      -9.153   5.128  70.786  1.00  0.00    -0.135 C  
HETATM    3  O   UNL     1      -9.709   4.244  71.423  1.00  0.00    -0.161 OA 
ENDROOT
BRANCH   2   4
HETATM    4  O   UNL     1      -8.776   5.090  69.443  1.00  0.00    -0.090 OA 
BRANCH   4   5
HETATM    5  C   UNL     1      -9.224   6.079  68.542  1.00  0.00    -0.114 A  
HETATM    6  C   UNL     1      -8.379   7.037  67.981  1.00  0.00    -0.119 A  
HETATM    7  C   UNL     1      -8.916   7.979  67.111  1.00  0.00    -0.135 A  
HETATM    8  C   UNL     1     -10.262   7.950  66.762  1.00  0.00    -0.358 A  
HETATM    9  O   UNL     1      -8.138   8.964  66.578  1.00  0.00    -0.105 OA 
HETATM   10  H   UNL     1      -8.505   9.607  65.983  1.00  0.00     0.000 HD 
HETATM   11  C   UNL     1     -11.093   6.963  67.296  1.00  0.00    -0.355 A  
HETATM   12  C   UNL     1     -10.575   6.024  68.189  1.00  0.00    -0.328 A  
ENDBRANCH   4   5
ENDBRANCH   2   4
TORSDOF 2
ENDMDL
MODEL      222
REMARK 921   NORMALIZED FREE ENERGY PREDICTED BY IDOCK:   -1.76 KCAL/MOL
REMARK 922        TOTAL FREE ENERGY PREDICTED BY IDOCK:   -2.16 KCAL/MOL
REMARK 923 INTER-LIGAND FREE ENERGY PREDICTED BY IDOCK:   -2.10 KCAL/MOL
REMARK 924 INTRA-LIGAND FREE ENERGY PREDICTED BY IDOCK:   -0.06 KCAL/MOL
REMARK 927      BINDING AFFINITY PREDICTED BY RF-SCORE:    0.00 PKD
ROOT
HETATM    1  C   UNL     1      -6.584   8.009  66.582  1.00  0.00    -0.056 C  
HETATM    2  C   UNL     1      -7.940   8.636  66.447  1.00  0.00    -0.099 C  
HETATM    3  O   UNL     1      -8.174   9.604  65.737  1.00  0.00    -0.116 OA 
ENDROOT
BRANCH   2   4
HETATM    4  O   UNL     1      -8.835   7.969  67.285  1.00  0.00    -0.128 OA 
BRANCH   4   5
HETATM    5  C   UNL     1      -9.336   8.596  68.446  1.00  0.00    -0.138 A  
HETATM    6  C   UNL     1      -9.867   9.886  68.445  1.00  0.00    -0.166 A  
HETATM    7  C   UNL     1     -10.327  10.423  69.642  1.00  0.00    -0.226 A  
HETATM    8  C   UNL     1     -10.306   9.681  70.818  1.00  0.00    -0.356 A  
HETATM    9  O   UNL     1     -10.808  11.698  69.699  1.00  0.00    -0.447 OA 
HETATM   10  H   UNL     1     -11.122  12.065  70.517  1.00  0.00     0.000 HD 
HETATM   11  C   UNL     1      -9.810   8.375  70.803  1.00  0.00    -0.215 A  
HETATM   12  C   UNL     1      -9.324   7.830  69.614  1.00  0.00    -0.153 A  
ENDBRANCH   4   5
ENDBRANCH   2   4
TORSDOF 2
ENDMDL
MODEL      223
REMARK 921   NORMALIZED FREE ENERGY PREDICTED BY IDOCK:   -1.76 KCAL/MOL
REMARK 922        TOTAL FREE ENERGY PREDICTED BY IDOCK:   -2.15 KCAL/MOL
REMARK 923 INTER-LIGAND FREE ENERGY PREDICTED BY IDOCK:   -2.00 KCAL/MOL
REMARK 924 INTRA-LIGAND FREE ENERGY PREDICTED BY IDOCK:   -0.15 KCAL/MOL
REMARK 927      BINDING AFFINITY PREDICTED BY RF-SCORE:    0.00 PKD
ROOT
HETATM    1  C   UNL     1      -6.541   9.623  68.925  1.00  0.00    -0.046 C  
HETATM    2  C   UNL     1      -7.334   9.343  67.683  1.00  0.00    -0.084 C  
HETATM    3  O   UNL     1      -7.736  10.212  66.922  1.00  0.00    -0.101 OA 
ENDROOT
BRANCH   2   4
HETATM    4  O   UNL     1      -7.560   7.969  67.587  1.00  0.00    -0.098 OA 
BRANCH   4   5
HETATM    5  C   UNL     1      -8.771   7.407  68.044  1.00  0.00    -0.124 A  
HETATM    6  C   UNL     1      -9.013   7.110  69.386  1.00  0.00    -0.136 A  
HETATM    7  C   UNL     1     -10.235   6.547  69.739  1.00  0.00    -0.187 A  
HETATM    8  C   UNL     1     -11.223   6.320  68.787  1.00  0.00    -0.357 A  
HETATM    9  O   UNL     1     -10.497   6.194  71.030  1.00  0.00    -0.212 OA 
HETATM   10  H   UNL     1     -11.332   5.810  71.271  1.00  0.00     0.000 HD 
HETATM   11  C   UNL     1     -10.988   6.658  67.452  1.00  0.00    -0.434 A  
HETATM   12  C   UNL     1      -9.759   7.202  67.078  1.00  0.00    -0.222 A  
ENDBRANCH   4   5
ENDBRANCH   2   4
TORSDOF 2
ENDMDL
MODEL      224
REMARK 921   NORMALIZED FREE ENERGY PREDICTED BY IDOCK:   -1.71 KCAL/MOL
REMARK 922        TOTAL FREE ENERGY PREDICTED BY IDOCK:   -2.09 KCAL/MOL
REMARK 923 INTER-LIGAND FREE ENERGY PREDICTED BY IDOCK:   -2.18 KCAL/MOL
REMARK 924 INTRA-LIGAND FREE ENERGY PREDICTED BY IDOCK:    0.09 KCAL/MOL
REMARK 927      BINDING AFFINITY PREDICTED BY RF-SCORE:    0.00 PKD
ROOT
HETATM    1  C   UNL     1      -9.475   3.659  67.168  1.00  0.00    -0.229 C  
HETATM    2  C   UNL     1      -9.741   5.084  67.553  1.00  0.00    -0.157 C  
HETATM    3  O   UNL     1      -9.265   6.047  66.969  1.00  0.00    -0.118 OA 
ENDROOT
BRANCH   2   4
HETATM    4  O   UNL     1     -10.558   5.104  68.685  1.00  0.00    -0.098 OA 
BRANCH   4   5
HETATM    5  C   UNL     1     -10.588   6.234  69.530  1.00  0.00    -0.271 A  
HETATM    6  C   UNL     1     -10.930   7.510  69.082  1.00  0.00    -0.024 A  
HETATM    7  C   UNL     1     -10.922   8.564  69.989  1.00  0.00    -0.196 A  
HETATM    8  C   UNL     1     -10.620   8.356  71.331  1.00  0.00    -0.296 A  
HETATM    9  O   UNL     1     -11.201   9.837  69.586  1.00  0.00    -0.300 OA 
HETATM   10  H   UNL     1     -11.195  10.557  70.206  1.00  0.00     0.000 HD 
HETATM   11  C   UNL     1     -10.318   7.068  71.779  1.00  0.00    -0.216 A  
HETATM   12  C   UNL     1     -10.301   6.003  70.877  1.00  0.00    -0.277 A  
ENDBRANCH   4   5
ENDBRANCH   2   4
TORSDOF 2
ENDMDL
MODEL      225
REMARK 921   NORMALIZED FREE ENERGY PREDICTED BY IDOCK:   -1.68 KCAL/MOL
REMARK 922        TOTAL FREE ENERGY PREDICTED BY IDOCK:   -2.06 KCAL/MOL
REMARK 923 INTER-LIGAND FREE ENERGY PREDICTED BY IDOCK:   -1.85 KCAL/MOL
REMARK 924 INTRA-LIGAND FREE ENERGY PREDICTED BY IDOCK:   -0.20 KCAL/MOL
REMARK 927      BINDING AFFINITY PREDICTED BY RF-SCORE:    0.00 PKD
ROOT
HETATM    1  C   UNL     1     -10.918   5.873  72.151  1.00  0.00    -0.317 C  
HETATM    2  C   UNL     1     -11.145   7.119  71.349  1.00  0.00    -0.242 C  
HETATM    3  O   UNL     1     -12.231   7.442  70.887  1.00  0.00    -0.298 OA 
ENDROOT
BRANCH   2   4
HETATM    4  O   UNL     1      -9.930   7.787  71.191  1.00  0.00    -0.176 OA 
BRANCH   4   5
HETATM    5  C   UNL     1      -9.101   7.519  70.083  1.00  0.00    -0.147 A  
HETATM    6  C   UNL     1      -9.535   7.632  68.762  1.00  0.00    -0.152 A  
HETATM    7  C   UNL     1      -8.646   7.335  67.735  1.00  0.00    -0.120 A  
HETATM    8  C   UNL     1      -7.330   6.974  68.005  1.00  0.00    -0.097 A  
HETATM    9  O   UNL     1      -9.040   7.383  66.430  1.00  0.00    -0.152 OA 
HETATM   10  H   UNL     1      -8.433   7.181  65.728  1.00  0.00     0.000 HD 
HETATM   11  C   UNL     1      -6.891   6.902  69.329  1.00  0.00    -0.058 A  
HETATM   12  C   UNL     1      -7.778   7.175  70.372  1.00  0.00    -0.095 A  
ENDBRANCH   4   5
ENDBRANCH   2   4
TORSDOF 2
ENDMDL
MODEL      226
REMARK 921   NORMALIZED FREE ENERGY PREDICTED BY IDOCK:   -1.66 KCAL/MOL
REMARK 922        TOTAL FREE ENERGY PREDICTED BY IDOCK:   -2.04 KCAL/MOL
REMARK 923 INTER-LIGAND FREE ENERGY PREDICTED BY IDOCK:   -2.14 KCAL/MOL
REMARK 924 INTRA-LIGAND FREE ENERGY PREDICTED BY IDOCK:    0.10 KCAL/MOL
REMARK 927      BINDING AFFINITY PREDICTED BY RF-SCORE:    0.00 PKD
ROOT
HETATM    1  C   UNL     1      -7.101   7.864  68.511  1.00  0.00    -0.076 C  
HETATM    2  C   UNL     1      -8.005   6.763  68.978  1.00  0.00    -0.116 C  
HETATM    3  O   UNL     1      -7.690   5.934  69.820  1.00  0.00    -0.085 OA 
ENDROOT
BRANCH   2   4
HETATM    4  O   UNL     1      -9.205   6.827  68.267  1.00  0.00    -0.125 OA 
BRANCH   4   5
HETATM    5  C   UNL     1      -9.861   8.061  68.074  1.00  0.00    -0.167 A  
HETATM    6  C   UNL     1     -10.620   8.683  69.066  1.00  0.00    -0.179 A  
HETATM    7  C   UNL     1     -11.238   9.894  68.778  1.00  0.00    -0.072 A  
HETATM    8  C   UNL     1     -11.075  10.508  67.540  1.00  0.00    -0.358 A  
HETATM    9  O   UNL     1     -12.030  10.514  69.699  1.00  0.00    -0.395 OA 
HETATM   10  H   UNL     1     -12.452  11.341  69.502  1.00  0.00     0.000 HD 
HETATM   11  C   UNL     1     -10.280   9.899  66.566  1.00  0.00    -0.292 A  
HETATM   12  C   UNL     1      -9.671   8.672  66.832  1.00  0.00    -0.278 A  
ENDBRANCH   4   5
ENDBRANCH   2   4
TORSDOF 2
ENDMDL
MODEL      227
REMARK 921   NORMALIZED FREE ENERGY PREDICTED BY IDOCK:   -1.66 KCAL/MOL
REMARK 922        TOTAL FREE ENERGY PREDICTED BY IDOCK:   -2.03 KCAL/MOL
REMARK 923 INTER-LIGAND FREE ENERGY PREDICTED BY IDOCK:   -1.97 KCAL/MOL
REMARK 924 INTRA-LIGAND FREE ENERGY PREDICTED BY IDOCK:   -0.07 KCAL/MOL
REMARK 927      BINDING AFFINITY PREDICTED BY RF-SCORE:    0.00 PKD
ROOT
HETATM    1  C   UNL     1      -7.514   6.986  68.829  1.00  0.00    -0.099 C  
HETATM    2  C   UNL     1      -8.583   7.614  69.672  1.00  0.00    -0.136 C  
HETATM    3  O   UNL     1      -9.300   6.988  70.440  1.00  0.00    -0.159 OA 
ENDROOT
BRANCH   2   4
HETATM    4  O   UNL     1      -8.639   8.981  69.391  1.00  0.00    -0.129 OA 
BRANCH   4   5
HETATM    5  C   UNL     1      -8.869   9.435  68.076  1.00  0.00    -0.124 A  
HETATM    6  C   UNL     1      -7.855   9.925  67.252  1.00  0.00    -0.102 A  
HETATM    7  C   UNL     1      -8.181  10.360  65.972  1.00  0.00    -0.144 A  
HETATM    8  C   UNL     1      -9.484  10.273  65.494  1.00  0.00    -0.277 A  
HETATM    9  O   UNL     1      -7.232  10.893  65.150  1.00  0.00    -0.355 OA 
HETATM   10  H   UNL     1      -7.455  11.190  64.276  1.00  0.00     0.000 HD 
HETATM   11  C   UNL     1     -10.486   9.744  66.310  1.00  0.00    -0.160 A  
HETATM   12  C   UNL     1     -10.179   9.324  67.605  1.00  0.00    -0.285 A  
ENDBRANCH   4   5
ENDBRANCH   2   4
TORSDOF 2
ENDMDL
MODEL      228
REMARK 921   NORMALIZED FREE ENERGY PREDICTED BY IDOCK:   -1.65 KCAL/MOL
REMARK 922        TOTAL FREE ENERGY PREDICTED BY IDOCK:   -2.03 KCAL/MOL
REMARK 923 INTER-LIGAND FREE ENERGY PREDICTED BY IDOCK:   -1.82 KCAL/MOL
REMARK 924 INTRA-LIGAND FREE ENERGY PREDICTED BY IDOCK:   -0.21 KCAL/MOL
REMARK 927      BINDING AFFINITY PREDICTED BY RF-SCORE:    0.00 PKD
ROOT
HETATM    1  C   UNL     1     -11.241  10.741  68.482  1.00  0.00    -0.340 C  
HETATM    2  C   UNL     1     -10.842   9.830  69.604  1.00  0.00    -0.250 C  
HETATM    3  O   UNL     1     -10.594  10.215  70.738  1.00  0.00    -0.241 OA 
ENDROOT
BRANCH   2   4
HETATM    4  O   UNL     1     -10.761   8.522  69.122  1.00  0.00    -0.202 OA 
BRANCH   4   5
HETATM    5  C   UNL     1      -9.555   7.796  69.212  1.00  0.00    -0.159 A  
HETATM    6  C   UNL     1      -8.426   8.099  68.451  1.00  0.00    -0.126 A  
HETATM    7  C   UNL     1      -7.285   7.319  68.602  1.00  0.00    -0.090 A  
HETATM    8  C   UNL     1      -7.242   6.279  69.524  1.00  0.00    -0.078 A  
HETATM    9  O   UNL     1      -6.174   7.547  67.843  1.00  0.00    -0.044 OA 
HETATM   10  H   UNL     1      -5.395   7.014  67.947  1.00  0.00     0.000 HD 
HETATM   11  C   UNL     1      -8.363   6.007  70.312  1.00  0.00    -0.124 A  
HETATM   12  C   UNL     1      -9.524   6.767  70.156  1.00  0.00    -0.159 A  
ENDBRANCH   4   5
ENDBRANCH   2   4
TORSDOF 2
ENDMDL
MODEL      229
REMARK 921   NORMALIZED FREE ENERGY PREDICTED BY IDOCK:   -1.63 KCAL/MOL
REMARK 922        TOTAL FREE ENERGY PREDICTED BY IDOCK:   -2.01 KCAL/MOL
REMARK 923 INTER-LIGAND FREE ENERGY PREDICTED BY IDOCK:   -1.82 KCAL/MOL
REMARK 924 INTRA-LIGAND FREE ENERGY PREDICTED BY IDOCK:   -0.19 KCAL/MOL
REMARK 927      BINDING AFFINITY PREDICTED BY RF-SCORE:    0.00 PKD
ROOT
HETATM    1  C   UNL     1      -7.715   3.727  68.446  1.00  0.00    -0.061 C  
HETATM    2  C   UNL     1      -7.609   4.924  69.342  1.00  0.00    -0.060 C  
HETATM    3  O   UNL     1      -6.552   5.356  69.780  1.00  0.00    -0.042 OA 
ENDROOT
BRANCH   2   4
HETATM    4  O   UNL     1      -8.891   5.405  69.614  1.00  0.00    -0.107 OA 
BRANCH   4   5
HETATM    5  C   UNL     1      -9.401   6.524  68.922  1.00  0.00    -0.131 A  
HETATM    6  C   UNL     1      -9.059   7.838  69.244  1.00  0.00    -0.145 A  
HETATM    7  C   UNL     1      -9.621   8.877  68.510  1.00  0.00    -0.157 A  
HETATM    8  C   UNL     1     -10.476   8.623  67.443  1.00  0.00    -0.351 A  
HETATM    9  O   UNL     1      -9.355  10.178  68.821  1.00  0.00    -0.152 OA 
HETATM   10  H   UNL     1      -9.739  10.888  68.319  1.00  0.00     0.000 HD 
HETATM   11  C   UNL     1     -10.781   7.303  67.101  1.00  0.00    -0.413 A  
HETATM   12  C   UNL     1     -10.243   6.250  67.842  1.00  0.00    -0.204 A  
ENDBRANCH   4   5
ENDBRANCH   2   4
TORSDOF 2
ENDMDL
MODEL      230
REMARK 921   NORMALIZED FREE ENERGY PREDICTED BY IDOCK:   -1.62 KCAL/MOL
REMARK 922        TOTAL FREE ENERGY PREDICTED BY IDOCK:   -1.99 KCAL/MOL
REMARK 923 INTER-LIGAND FREE ENERGY PREDICTED BY IDOCK:   -1.75 KCAL/MOL
REMARK 924 INTRA-LIGAND FREE ENERGY PREDICTED BY IDOCK:   -0.24 KCAL/MOL
REMARK 927      BINDING AFFINITY PREDICTED BY RF-SCORE:    0.00 PKD
ROOT
HETATM    1  C   UNL     1      -7.580   3.695  68.611  1.00  0.00    -0.053 C  
HETATM    2  C   UNL     1      -6.901   4.615  69.581  1.00  0.00    -0.048 C  
HETATM    3  O   UNL     1      -5.758   5.029  69.441  1.00  0.00    -0.014 OA 
ENDROOT
BRANCH   2   4
HETATM    4  O   UNL     1      -7.760   4.861  70.654  1.00  0.00    -0.064 OA 
BRANCH   4   5
HETATM    5  C   UNL     1      -8.834   5.765  70.521  1.00  0.00    -0.139 A  
HETATM    6  C   UNL     1      -8.684   7.057  70.015  1.00  0.00    -0.142 A  
HETATM    7  C   UNL     1      -9.801   7.880  69.932  1.00  0.00    -0.182 A  
HETATM    8  C   UNL     1     -11.061   7.421  70.302  1.00  0.00    -0.278 A  
HETATM    9  O   UNL     1      -9.693   9.166  69.490  1.00  0.00    -0.164 OA 
HETATM   10  H   UNL     1     -10.457   9.728  69.434  1.00  0.00     0.000 HD 
HETATM   11  C   UNL     1     -11.210   6.113  70.770  1.00  0.00    -0.373 A  
HETATM   12  C   UNL     1     -10.094   5.282  70.880  1.00  0.00    -0.295 A  
ENDBRANCH   4   5
ENDBRANCH   2   4
TORSDOF 2
ENDMDL
MODEL      231
REMARK 921   NORMALIZED FREE ENERGY PREDICTED BY IDOCK:   -1.59 KCAL/MOL
REMARK 922        TOTAL FREE ENERGY PREDICTED BY IDOCK:   -1.97 KCAL/MOL
REMARK 923 INTER-LIGAND FREE ENERGY PREDICTED BY IDOCK:   -1.77 KCAL/MOL
REMARK 924 INTRA-LIGAND FREE ENERGY PREDICTED BY IDOCK:   -0.19 KCAL/MOL
REMARK 927      BINDING AFFINITY PREDICTED BY RF-SCORE:    0.00 PKD
ROOT
HETATM    1  C   UNL     1      -6.658   8.141  63.738  1.00  0.00    -0.071 C  
HETATM    2  C   UNL     1      -7.470   6.948  64.144  1.00  0.00    -0.101 C  
HETATM    3  O   UNL     1      -8.101   6.255  63.358  1.00  0.00    -0.111 OA 
ENDROOT
BRANCH   2   4
HETATM    4  O   UNL     1      -7.416   6.811  65.532  1.00  0.00    -0.076 OA 
BRANCH   4   5
HETATM    5  C   UNL     1      -8.556   7.061  66.324  1.00  0.00    -0.139 A  
HETATM    6  C   UNL     1      -9.153   8.318  66.425  1.00  0.00    -0.226 A  
HETATM    7  C   UNL     1     -10.269   8.468  67.240  1.00  0.00    -0.276 A  
HETATM    8  C   UNL     1     -10.818   7.382  67.914  1.00  0.00    -0.151 A  
HETATM    9  O   UNL     1     -10.856   9.688  67.408  1.00  0.00    -0.298 OA 
HETATM   10  H   UNL     1     -11.618   9.790  67.965  1.00  0.00     0.000 HD 
HETATM   11  C   UNL     1     -10.240   6.118  67.776  1.00  0.00    -0.211 A  
HETATM   12  C   UNL     1      -9.105   5.956  66.979  1.00  0.00    -0.116 A  
ENDBRANCH   4   5
ENDBRANCH   2   4
TORSDOF 2
ENDMDL
MODEL      232
REMARK 921   NORMALIZED FREE ENERGY PREDICTED BY IDOCK:   -1.52 KCAL/MOL
REMARK 922        TOTAL FREE ENERGY PREDICTED BY IDOCK:   -1.89 KCAL/MOL
REMARK 923 INTER-LIGAND FREE ENERGY PREDICTED BY IDOCK:   -2.04 KCAL/MOL
REMARK 924 INTRA-LIGAND FREE ENERGY PREDICTED BY IDOCK:    0.15 KCAL/MOL
REMARK 927      BINDING AFFINITY PREDICTED BY RF-SCORE:    0.00 PKD
ROOT
HETATM    1  C   UNL     1     -10.416   9.749  67.015  1.00  0.00    -0.295 C  
HETATM    2  C   UNL     1     -10.886   9.880  68.433  1.00  0.00    -0.221 C  
HETATM    3  O   UNL     1     -11.552  10.819  68.846  1.00  0.00    -0.281 OA 
ENDROOT
BRANCH   2   4
HETATM    4  O   UNL     1     -10.401   8.801  69.175  1.00  0.00    -0.210 OA 
BRANCH   4   5
HETATM    5  C   UNL     1      -9.038   8.729  69.531  1.00  0.00    -0.146 A  
HETATM    6  C   UNL     1      -8.556   9.128  70.778  1.00  0.00    -0.265 A  
HETATM    7  C   UNL     1      -7.192   9.028  71.034  1.00  0.00    -0.106 A  
HETATM    8  C   UNL     1      -6.320   8.502  70.087  1.00  0.00    -0.038 A  
HETATM    9  O   UNL     1      -6.669   9.452  72.220  1.00  0.00    -0.288 OA 
HETATM   10  H   UNL     1      -5.738   9.385  72.394  1.00  0.00     0.000 HD 
HETATM   11  C   UNL     1      -6.817   8.068  68.856  1.00  0.00    -0.061 A  
HETATM   12  C   UNL     1      -8.179   8.181  68.576  1.00  0.00    -0.125 A  
ENDBRANCH   4   5
ENDBRANCH   2   4
TORSDOF 2
ENDMDL
MODEL      233
REMARK 921   NORMALIZED FREE ENERGY PREDICTED BY IDOCK:   -1.42 KCAL/MOL
REMARK 922        TOTAL FREE ENERGY PREDICTED BY IDOCK:   -1.77 KCAL/MOL
REMARK 923 INTER-LIGAND FREE ENERGY PREDICTED BY IDOCK:   -2.04 KCAL/MOL
REMARK 924 INTRA-LIGAND FREE ENERGY PREDICTED BY IDOCK:    0.26 KCAL/MOL
REMARK 927      BINDING AFFINITY PREDICTED BY RF-SCORE:    0.00 PKD
ROOT
HETATM    1  C   UNL     1      -9.351   6.400  69.163  1.00  0.00    -0.132 C  
HETATM    2  C   UNL     1     -10.453   6.721  70.129  1.00  0.00    -0.209 C  
HETATM    3  O   UNL     1     -11.397   5.977  70.356  1.00  0.00    -0.338 OA 
ENDROOT
BRANCH   2   4
HETATM    4  O   UNL     1     -10.236   7.993  70.660  1.00  0.00    -0.194 OA 
BRANCH   4   5
HETATM    5  C   UNL     1      -9.632   9.004  69.883  1.00  0.00    -0.183 A  
HETATM    6  C   UNL     1     -10.360   9.895  69.094  1.00  0.00    -0.225 A  
HETATM    7  C   UNL     1      -9.675  10.852  68.354  1.00  0.00    -0.176 A  
HETATM    8  C   UNL     1      -8.290  10.957  68.423  1.00  0.00    -0.136 A  
HETATM    9  O   UNL     1     -10.341  11.711  67.531  1.00  0.00    -0.192 OA 
HETATM   10  H   UNL     1      -9.873  12.365  67.025  1.00  0.00     0.000 HD 
HETATM   11  C   UNL     1      -7.571  10.088  69.247  1.00  0.00    -0.109 A  
HETATM   12  C   UNL     1      -8.242   9.107  69.979  1.00  0.00    -0.146 A  
ENDBRANCH   4   5
ENDBRANCH   2   4
TORSDOF 2
ENDMDL
MODEL      234
REMARK 921   NORMALIZED FREE ENERGY PREDICTED BY IDOCK:   -1.12 KCAL/MOL
REMARK 922        TOTAL FREE ENERGY PREDICTED BY IDOCK:   -1.44 KCAL/MOL
REMARK 923 INTER-LIGAND FREE ENERGY PREDICTED BY IDOCK:   -1.38 KCAL/MOL
REMARK 924 INTRA-LIGAND FREE ENERGY PREDICTED BY IDOCK:   -0.07 KCAL/MOL
REMARK 927      BINDING AFFINITY PREDICTED BY RF-SCORE:    0.00 PKD
ROOT
HETATM    1  C   UNL     1      -7.587   9.279  70.510  1.00  0.00    -0.147 C  
HETATM    2  C   UNL     1      -8.064   8.567  69.280  1.00  0.00    -0.113 C  
HETATM    3  O   UNL     1      -8.560   9.132  68.315  1.00  0.00    -0.127 OA 
ENDROOT
BRANCH   2   4
HETATM    4  O   UNL     1      -7.891   7.192  69.454  1.00  0.00    -0.108 OA 
BRANCH   4   5
HETATM    5  C   UNL     1      -8.457   6.276  68.543  1.00  0.00    -0.115 A  
HETATM    6  C   UNL     1      -7.991   6.113  67.238  1.00  0.00    -0.102 A  
HETATM    7  C   UNL     1      -8.621   5.190  66.411  1.00  0.00    -0.112 A  
HETATM    8  C   UNL     1      -9.670   4.405  66.877  1.00  0.00    -0.233 A  
HETATM    9  O   UNL     1      -8.232   5.033  65.113  1.00  0.00    -0.119 OA 
HETATM   10  H   UNL     1      -8.662   4.402  64.548  1.00  0.00     0.000 HD 
HETATM   11  C   UNL     1     -10.105   4.545  68.197  1.00  0.00    -0.031 A  
HETATM   12  C   UNL     1      -9.497   5.483  69.033  1.00  0.00    -0.167 A  
ENDBRANCH   4   5
ENDBRANCH   2   4
TORSDOF 2
ENDMDL
MODEL      235
REMARK 921   NORMALIZED FREE ENERGY PREDICTED BY IDOCK:   -0.95 KCAL/MOL
REMARK 922        TOTAL FREE ENERGY PREDICTED BY IDOCK:   -1.25 KCAL/MOL
REMARK 923 INTER-LIGAND FREE ENERGY PREDICTED BY IDOCK:   -1.21 KCAL/MOL
REMARK 924 INTRA-LIGAND FREE ENERGY PREDICTED BY IDOCK:   -0.04 KCAL/MOL
REMARK 927      BINDING AFFINITY PREDICTED BY RF-SCORE:    0.00 PKD
ROOT
HETATM    1  C   UNL     1      -6.212   9.845  69.095  1.00  0.00    -0.044 C  
HETATM    2  C   UNL     1      -7.675   9.569  69.270  1.00  0.00    -0.086 C  
HETATM    3  O   UNL     1      -8.468  10.374  69.739  1.00  0.00    -0.122 OA 
ENDROOT
BRANCH   2   4
HETATM    4  O   UNL     1      -7.944   8.262  68.861  1.00  0.00    -0.109 OA 
BRANCH   4   5
HETATM    5  C   UNL     1      -8.182   7.247  69.811  1.00  0.00    -0.130 A  
HETATM    6  C   UNL     1      -8.703   7.499  71.081  1.00  0.00    -0.136 A  
HETATM    7  C   UNL     1      -8.894   6.433  71.953  1.00  0.00    -0.138 A  
HETATM    8  C   UNL     1      -8.616   5.127  71.563  1.00  0.00    -0.132 A  
HETATM    9  O   UNL     1      -9.353   6.638  73.221  1.00  0.00    -0.130 OA 
HETATM   10  H   UNL     1      -9.483   5.909  73.816  1.00  0.00     0.000 HD 
HETATM   11  C   UNL     1      -8.134   4.878  70.276  1.00  0.00    -0.077 A  
HETATM   12  C   UNL     1      -7.916   5.940  69.397  1.00  0.00    -0.102 A  
ENDBRANCH   4   5
ENDBRANCH   2   4
TORSDOF 2
ENDMDL
MODEL      236
REMARK 921   NORMALIZED FREE ENERGY PREDICTED BY IDOCK:   -0.73 KCAL/MOL
REMARK 922        TOTAL FREE ENERGY PREDICTED BY IDOCK:   -1.00 KCAL/MOL
REMARK 923 INTER-LIGAND FREE ENERGY PREDICTED BY IDOCK:   -1.06 KCAL/MOL
REMARK 924 INTRA-LIGAND FREE ENERGY PREDICTED BY IDOCK:    0.06 KCAL/MOL
REMARK 927      BINDING AFFINITY PREDICTED BY RF-SCORE:    0.00 PKD
ROOT
HETATM    1  C   UNL     1      -8.771  17.585  66.985  1.00  0.00    -0.254 C  
HETATM    2  C   UNL     1      -9.726  16.493  67.364  1.00  0.00    -0.246 C  
HETATM    3  O   UNL     1     -10.634  16.103  66.644  1.00  0.00    -0.311 OA 
ENDROOT
BRANCH   2   4
HETATM    4  O   UNL     1      -9.428  16.057  68.657  1.00  0.00    -0.207 OA 
BRANCH   4   5
HETATM    5  C   UNL     1      -8.177  15.475  68.949  1.00  0.00    -0.201 A  
HETATM    6  C   UNL     1      -7.381  14.857  67.984  1.00  0.00    -0.138 A  
HETATM    7  C   UNL     1      -6.167  14.302  68.370  1.00  0.00    -0.103 A  
HETATM    8  C   UNL     1      -5.721  14.392  69.685  1.00  0.00    -0.099 A  
HETATM    9  O   UNL     1      -5.379  13.644  67.472  1.00  0.00    -0.323 OA 
HETATM   10  H   UNL     1      -4.549  13.265  67.736  1.00  0.00     0.000 HD 
HETATM   11  C   UNL     1      -6.505  15.048  70.637  1.00  0.00     0.121 A  
HETATM   12  C   UNL     1      -7.737  15.591  70.269  1.00  0.00     0.699 A  
ENDBRANCH   4   5
ENDBRANCH   2   4
TORSDOF 2
ENDMDL
MODEL      237
REMARK 921   NORMALIZED FREE ENERGY PREDICTED BY IDOCK:   -0.50 KCAL/MOL
REMARK 922        TOTAL FREE ENERGY PREDICTED BY IDOCK:   -0.74 KCAL/MOL
REMARK 923 INTER-LIGAND FREE ENERGY PREDICTED BY IDOCK:   -1.44 KCAL/MOL
REMARK 924 INTRA-LIGAND FREE ENERGY PREDICTED BY IDOCK:    0.70 KCAL/MOL
REMARK 927      BINDING AFFINITY PREDICTED BY RF-SCORE:    0.00 PKD
ROOT
HETATM    1  C   UNL     1      -8.113   7.176  70.843  1.00  0.00    -0.111 C  
HETATM    2  C   UNL     1      -8.512   5.888  70.187  1.00  0.00    -0.126 C  
HETATM    3  O   UNL     1      -9.343   5.118  70.648  1.00  0.00    -0.147 OA 
ENDROOT
BRANCH   2   4
HETATM    4  O   UNL     1      -7.756   5.715  69.027  1.00  0.00    -0.086 OA 
BRANCH   4   5
HETATM    5  C   UNL     1      -7.715   6.721  68.039  1.00  0.00    -0.112 A  
HETATM    6  C   UNL     1      -8.292   6.573  66.777  1.00  0.00    -0.111 A  
HETATM    7  C   UNL     1      -8.191   7.618  65.865  1.00  0.00    -0.133 A  
HETATM    8  C   UNL     1      -7.567   8.813  66.208  1.00  0.00    -0.091 A  
HETATM    9  O   UNL     1      -8.695   7.499  64.604  1.00  0.00    -0.365 OA 
HETATM   10  H   UNL     1      -8.626   8.213  63.981  1.00  0.00     0.000 HD 
HETATM   11  C   UNL     1      -7.028   8.969  67.487  1.00  0.00    -0.078 A  
HETATM   12  C   UNL     1      -7.102   7.921  68.406  1.00  0.00    -0.081 A  
ENDBRANCH   4   5
ENDBRANCH   2   4
TORSDOF 2
ENDMDL
MODEL      238
REMARK 921   NORMALIZED FREE ENERGY PREDICTED BY IDOCK:   -0.04 KCAL/MOL
REMARK 922        TOTAL FREE ENERGY PREDICTED BY IDOCK:   -0.23 KCAL/MOL
REMARK 923 INTER-LIGAND FREE ENERGY PREDICTED BY IDOCK:   -0.02 KCAL/MOL
REMARK 924 INTRA-LIGAND FREE ENERGY PREDICTED BY IDOCK:   -0.21 KCAL/MOL
REMARK 927      BINDING AFFINITY PREDICTED BY RF-SCORE:    0.00 PKD
ROOT
HETATM    1  C   UNL     1      -6.444  14.884  72.298  1.00  0.00     1.368 C  
HETATM    2  C   UNL     1      -6.264  14.577  70.841  1.00  0.00    -0.047 C  
HETATM    3  O   UNL     1      -5.178  14.558  70.279  1.00  0.00    -0.094 OA 
ENDROOT
BRANCH   2   4
HETATM    4  O   UNL     1      -7.517  14.375  70.260  1.00  0.00     0.295 OA 
BRANCH   4   5
HETATM    5  C   UNL     1      -7.890  15.076  69.094  1.00  0.00    -0.188 A  
HETATM    6  C   UNL     1      -7.915  16.469  69.018  1.00  0.00    -0.225 A  
HETATM    7  C   UNL     1      -8.306  17.069  67.827  1.00  0.00    -0.196 A  
HETATM    8  C   UNL     1      -8.628  16.307  66.709  1.00  0.00    -0.273 A  
HETATM    9  O   UNL     1      -8.394  18.427  67.722  1.00  0.00    -0.255 OA 
HETATM   10  H   UNL     1      -8.662  18.837  66.908  1.00  0.00     0.000 HD 
HETATM   11  C   UNL     1      -8.561  14.914  66.781  1.00  0.00    -0.256 A  
HETATM   12  C   UNL     1      -8.192  14.295  67.976  1.00  0.00    -0.153 A  
ENDBRANCH   4   5
ENDBRANCH   2   4
TORSDOF 2
ENDMDL
