MODEL        1
REMARK 921   NORMALIZED FREE ENERGY PREDICTED BY IDOCK:   -7.48 KCAL/MOL
REMARK 922        TOTAL FREE ENERGY PREDICTED BY IDOCK:   -8.67 KCAL/MOL
REMARK 923 INTER-LIGAND FREE ENERGY PREDICTED BY IDOCK:   -8.35 KCAL/MOL
REMARK 924 INTRA-LIGAND FREE ENERGY PREDICTED BY IDOCK:   -0.32 KCAL/MOL
REMARK 927      BINDING AFFINITY PREDICTED BY RF-SCORE:    0.00 PKD
ROOT
HETATM    1  O   UNL     1     -13.238  16.105  74.061  1.00  0.00    -0.935 OA 
HETATM    2  H   UNL     1     -13.854  15.714  74.668  1.00  0.00     0.000 HD 
HETATM    3  C   UNL     1     -12.873  15.471  72.909  1.00  0.00    -0.457 A  
HETATM    4  C   UNL     1     -11.971  16.044  72.021  1.00  0.00    -0.622 A  
HETATM    5  C   UNL     1     -11.651  15.370  70.838  1.00  0.00    -0.396 A  
HETATM    6  C   UNL     1     -12.222  14.123  70.542  1.00  0.00    -0.431 A  
HETATM    7  C   UNL     1     -13.445  14.235  72.640  1.00  0.00    -0.623 A  
HETATM    8  C   UNL     1     -13.125  13.564  71.456  1.00  0.00    -0.427 A  
ENDROOT
BRANCH   6   9
HETATM    9  C   UNL     1     -11.927  13.501  69.240  1.00  0.00    -0.378 C  
HETATM   10  C   UNL     1     -12.253  14.026  68.048  1.00  0.00    -0.188 C  
BRANCH  10  11
HETATM   11  C   UNL     1     -11.905  13.421  66.749  1.00  0.00    -0.452 A  
HETATM   12  C   UNL     1     -11.174  12.229  66.635  1.00  0.00    -0.367 A  
HETATM   13  C   UNL     1     -10.886  11.705  65.375  1.00  0.00    -0.280 A  
HETATM   14  C   UNL     1     -11.322  12.333  64.216  1.00  0.00    -0.415 A  
HETATM   15  O   UNL     1     -10.167  10.553  65.233  1.00  0.00    -0.298 OA 
HETATM   16  H   UNL     1      -9.970  10.196  64.375  1.00  0.00     0.000 HD 
HETATM   17  C   UNL     1     -12.062  13.503  64.329  1.00  0.00    -0.431 A  
HETATM   18  O   UNL     1     -12.522  14.161  63.225  1.00  0.00    -1.146 OA 
HETATM   19  C   UNL     1     -12.358  14.045  65.578  1.00  0.00    -0.503 A  
HETATM   20  H   UNL     1     -13.028  14.960  63.303  1.00  0.00     0.000 HD 
ENDBRANCH  10  11
ENDBRANCH   6   9
TORSDOF 2
ENDMDL
MODEL        2
REMARK 921   NORMALIZED FREE ENERGY PREDICTED BY IDOCK:   -7.44 KCAL/MOL
REMARK 922        TOTAL FREE ENERGY PREDICTED BY IDOCK:   -8.63 KCAL/MOL
REMARK 923 INTER-LIGAND FREE ENERGY PREDICTED BY IDOCK:   -8.30 KCAL/MOL
REMARK 924 INTRA-LIGAND FREE ENERGY PREDICTED BY IDOCK:   -0.33 KCAL/MOL
REMARK 927      BINDING AFFINITY PREDICTED BY RF-SCORE:    0.00 PKD
ROOT
HETATM    1  O   UNL     1     -13.382  15.977  74.263  1.00  0.00    -0.806 OA 
HETATM    2  H   UNL     1     -14.004  15.512  74.809  1.00  0.00     0.000 HD 
HETATM    3  C   UNL     1     -12.930  15.448  73.089  1.00  0.00    -0.515 A  
HETATM    4  C   UNL     1     -12.020  16.130  72.290  1.00  0.00    -0.637 A  
HETATM    5  C   UNL     1     -11.610  15.561  71.080  1.00  0.00    -0.424 A  
HETATM    6  C   UNL     1     -12.098  14.312  70.667  1.00  0.00    -0.417 A  
HETATM    7  C   UNL     1     -13.423  14.209  72.705  1.00  0.00    -0.634 A  
HETATM    8  C   UNL     1     -13.012  13.643  71.493  1.00  0.00    -0.443 A  
ENDROOT
BRANCH   6   9
HETATM    9  C   UNL     1     -11.710  13.803  69.341  1.00  0.00    -0.379 C  
HETATM   10  C   UNL     1     -12.152  14.294  68.172  1.00  0.00    -0.275 C  
BRANCH  10  11
HETATM   11  C   UNL     1     -11.714  13.813  66.849  1.00  0.00    -0.424 A  
HETATM   12  C   UNL     1     -12.327  14.214  65.652  1.00  0.00    -0.473 A  
HETATM   13  C   UNL     1     -11.858  13.728  64.431  1.00  0.00    -0.427 A  
HETATM   14  C   UNL     1     -10.776  12.859  64.369  1.00  0.00    -0.407 A  
HETATM   15  O   UNL     1     -12.441  14.090  63.251  1.00  0.00    -1.139 OA 
HETATM   16  H   UNL     1     -12.122  13.760  62.421  1.00  0.00     0.000 HD 
HETATM   17  C   UNL     1     -10.157  12.478  65.553  1.00  0.00    -0.265 A  
HETATM   18  O   UNL     1      -9.087  11.632  65.553  1.00  0.00    -0.369 OA 
HETATM   19  C   UNL     1     -10.612  12.949  66.783  1.00  0.00    -0.268 A  
HETATM   20  H   UNL     1      -8.664  11.371  66.362  1.00  0.00     0.000 HD 
ENDBRANCH  10  11
ENDBRANCH   6   9
TORSDOF 2
ENDMDL
MODEL        3
REMARK 921   NORMALIZED FREE ENERGY PREDICTED BY IDOCK:   -7.41 KCAL/MOL
REMARK 922        TOTAL FREE ENERGY PREDICTED BY IDOCK:   -8.59 KCAL/MOL
REMARK 923 INTER-LIGAND FREE ENERGY PREDICTED BY IDOCK:   -8.28 KCAL/MOL
REMARK 924 INTRA-LIGAND FREE ENERGY PREDICTED BY IDOCK:   -0.31 KCAL/MOL
REMARK 927      BINDING AFFINITY PREDICTED BY RF-SCORE:    0.00 PKD
ROOT
HETATM    1  O   UNL     1     -12.935  16.032  74.264  1.00  0.00    -0.897 OA 
HETATM    2  H   UNL     1     -12.522  16.860  74.479  1.00  0.00     0.000 HD 
HETATM    3  C   UNL     1     -12.763  15.445  73.045  1.00  0.00    -0.451 A  
HETATM    4  C   UNL     1     -13.367  14.234  72.731  1.00  0.00    -0.621 A  
HETATM    5  C   UNL     1     -13.136  13.655  71.479  1.00  0.00    -0.431 A  
HETATM    6  C   UNL     1     -12.310  14.285  70.536  1.00  0.00    -0.430 A  
HETATM    7  C   UNL     1     -11.946  16.089  72.125  1.00  0.00    -0.629 A  
HETATM    8  C   UNL     1     -11.715  15.508  70.875  1.00  0.00    -0.413 A  
ENDROOT
BRANCH   6   9
HETATM    9  C   UNL     1     -12.021  13.588  69.271  1.00  0.00    -0.378 C  
HETATM   10  C   UNL     1     -12.236  14.099  68.048  1.00  0.00    -0.181 C  
BRANCH  10  11
HETATM   11  C   UNL     1     -11.892  13.415  66.788  1.00  0.00    -0.452 A  
HETATM   12  C   UNL     1     -11.184  12.204  66.748  1.00  0.00    -0.375 A  
HETATM   13  C   UNL     1     -10.899  11.603  65.522  1.00  0.00    -0.279 A  
HETATM   14  C   UNL     1     -11.316  12.173  64.325  1.00  0.00    -0.426 A  
HETATM   15  O   UNL     1     -10.201  10.432  65.450  1.00  0.00    -0.292 OA 
HETATM   16  H   UNL     1     -10.007  10.023  64.615  1.00  0.00     0.000 HD 
HETATM   17  C   UNL     1     -12.034  13.361  64.366  1.00  0.00    -0.411 A  
HETATM   18  O   UNL     1     -12.475  13.963  63.224  1.00  0.00    -1.113 OA 
HETATM   19  C   UNL     1     -12.327  13.979  65.580  1.00  0.00    -0.502 A  
HETATM   20  H   UNL     1     -12.966  14.775  63.253  1.00  0.00     0.000 HD 
ENDBRANCH  10  11
ENDBRANCH   6   9
TORSDOF 2
ENDMDL
MODEL        4
REMARK 921   NORMALIZED FREE ENERGY PREDICTED BY IDOCK:   -7.06 KCAL/MOL
REMARK 922        TOTAL FREE ENERGY PREDICTED BY IDOCK:   -8.21 KCAL/MOL
REMARK 923 INTER-LIGAND FREE ENERGY PREDICTED BY IDOCK:   -7.88 KCAL/MOL
REMARK 924 INTRA-LIGAND FREE ENERGY PREDICTED BY IDOCK:   -0.33 KCAL/MOL
REMARK 927      BINDING AFFINITY PREDICTED BY RF-SCORE:    0.00 PKD
ROOT
HETATM    1  O   UNL     1     -11.543  16.320  63.800  1.00  0.00    -1.539 OA 
HETATM    2  H   UNL     1     -12.000  16.212  62.974  1.00  0.00     0.000 HD 
HETATM    3  C   UNL     1     -11.575  15.354  64.763  1.00  0.00    -0.286 A  
HETATM    4  C   UNL     1     -10.907  15.513  65.971  1.00  0.00    -0.301 A  
HETATM    5  C   UNL     1     -10.943  14.482  66.915  1.00  0.00    -0.316 A  
HETATM    6  C   UNL     1     -11.649  13.296  66.662  1.00  0.00    -0.408 A  
HETATM    7  C   UNL     1     -12.286  14.193  64.492  1.00  0.00    -0.468 A  
HETATM    8  C   UNL     1     -12.319  13.162  65.437  1.00  0.00    -0.532 A  
ENDROOT
BRANCH   6   9
HETATM    9  C   UNL     1     -11.575  12.203  67.646  1.00  0.00    -0.413 C  
HETATM   10  C   UNL     1     -11.778  12.346  68.966  1.00  0.00    -0.372 C  
BRANCH  10  11
HETATM   11  C   UNL     1     -11.756  11.236  69.936  1.00  0.00    -0.430 A  
HETATM   12  C   UNL     1     -12.783  11.017  70.867  1.00  0.00    -0.452 A  
HETATM   13  C   UNL     1     -12.705   9.941  71.752  1.00  0.00    -0.428 A  
HETATM   14  C   UNL     1     -11.631   9.061  71.723  1.00  0.00    -0.444 A  
HETATM   15  O   UNL     1     -13.683   9.711  72.677  1.00  0.00    -0.701 OA 
HETATM   16  H   UNL     1     -13.630   8.978  73.279  1.00  0.00     0.000 HD 
HETATM   17  C   UNL     1     -10.625   9.265  70.788  1.00  0.00    -0.285 A  
HETATM   18  O   UNL     1      -9.549   8.430  70.710  1.00  0.00    -0.164 OA 
HETATM   19  C   UNL     1     -10.681  10.336  69.898  1.00  0.00    -0.344 A  
HETATM   20  H   UNL     1      -8.861   8.570  70.070  1.00  0.00     0.000 HD 
ENDBRANCH  10  11
ENDBRANCH   6   9
TORSDOF 2
ENDMDL
MODEL        5
REMARK 921   NORMALIZED FREE ENERGY PREDICTED BY IDOCK:   -7.03 KCAL/MOL
REMARK 922        TOTAL FREE ENERGY PREDICTED BY IDOCK:   -8.17 KCAL/MOL
REMARK 923 INTER-LIGAND FREE ENERGY PREDICTED BY IDOCK:   -7.85 KCAL/MOL
REMARK 924 INTRA-LIGAND FREE ENERGY PREDICTED BY IDOCK:   -0.32 KCAL/MOL
REMARK 927      BINDING AFFINITY PREDICTED BY RF-SCORE:    0.00 PKD
ROOT
HETATM    1  O   UNL     1     -12.864  15.868  74.512  1.00  0.00    -0.897 OA 
HETATM    2  H   UNL     1     -12.371  16.621  74.814  1.00  0.00     0.000 HD 
HETATM    3  C   UNL     1     -12.759  15.416  73.229  1.00  0.00    -0.508 A  
HETATM    4  C   UNL     1     -13.481  14.314  72.787  1.00  0.00    -0.590 A  
HETATM    5  C   UNL     1     -13.317  13.869  71.471  1.00  0.00    -0.406 A  
HETATM    6  C   UNL     1     -12.440  14.524  70.593  1.00  0.00    -0.409 A  
HETATM    7  C   UNL     1     -11.891  16.084  72.376  1.00  0.00    -0.639 A  
HETATM    8  C   UNL     1     -11.727  15.636  71.061  1.00  0.00    -0.444 A  
ENDROOT
BRANCH   6   9
HETATM    9  C   UNL     1     -12.230  13.958  69.249  1.00  0.00    -0.319 C  
HETATM   10  C   UNL     1     -11.431  14.489  68.310  1.00  0.00    -0.336 C  
BRANCH  10  11
HETATM   11  C   UNL     1     -11.186  13.884  66.988  1.00  0.00    -0.327 A  
HETATM   12  C   UNL     1     -11.952  14.194  65.854  1.00  0.00    -0.420 A  
HETATM   13  C   UNL     1     -11.661  13.593  64.630  1.00  0.00    -0.371 A  
HETATM   14  C   UNL     1     -10.608  12.696  64.499  1.00  0.00    -0.369 A  
HETATM   15  O   UNL     1     -12.397  13.865  63.512  1.00  0.00    -0.976 OA 
HETATM   16  H   UNL     1     -12.199  13.456  62.679  1.00  0.00     0.000 HD 
HETATM   17  C   UNL     1      -9.837  12.404  65.617  1.00  0.00    -0.222 A  
HETATM   18  O   UNL     1      -8.787  11.536  65.547  1.00  0.00    -0.378 OA 
HETATM   19  C   UNL     1     -10.113  12.991  66.850  1.00  0.00    -0.243 A  
HETATM   20  H   UNL     1      -8.260  11.337  66.311  1.00  0.00     0.000 HD 
ENDBRANCH  10  11
ENDBRANCH   6   9
TORSDOF 2
ENDMDL
MODEL        6
REMARK 921   NORMALIZED FREE ENERGY PREDICTED BY IDOCK:   -7.00 KCAL/MOL
REMARK 922        TOTAL FREE ENERGY PREDICTED BY IDOCK:   -8.15 KCAL/MOL
REMARK 923 INTER-LIGAND FREE ENERGY PREDICTED BY IDOCK:   -7.81 KCAL/MOL
REMARK 924 INTRA-LIGAND FREE ENERGY PREDICTED BY IDOCK:   -0.33 KCAL/MOL
REMARK 927      BINDING AFFINITY PREDICTED BY RF-SCORE:    0.00 PKD
ROOT
HETATM    1  O   UNL     1     -12.299  14.429  63.345  1.00  0.00    -1.094 OA 
HETATM    2  H   UNL     1     -12.810  15.228  63.397  1.00  0.00     0.000 HD 
HETATM    3  C   UNL     1     -12.045  13.674  64.452  1.00  0.00    -0.427 A  
HETATM    4  C   UNL     1     -11.298  12.504  64.376  1.00  0.00    -0.395 A  
HETATM    5  C   UNL     1     -11.090  11.747  65.533  1.00  0.00    -0.336 A  
HETATM    6  C   UNL     1     -11.616  12.157  66.767  1.00  0.00    -0.412 A  
HETATM    7  C   UNL     1     -12.570  14.102  65.663  1.00  0.00    -0.495 A  
HETATM    8  C   UNL     1     -12.362  13.343  66.819  1.00  0.00    -0.287 A  
ENDROOT
BRANCH   6   9
HETATM    9  C   UNL     1     -11.451  11.275  67.935  1.00  0.00    -0.360 C  
HETATM   10  C   UNL     1     -12.074  11.438  69.113  1.00  0.00    -0.331 C  
BRANCH  10  11
HETATM   11  C   UNL     1     -11.944  10.518  70.258  1.00  0.00    -0.411 A  
HETATM   12  C   UNL     1     -12.999  10.248  71.143  1.00  0.00    -0.503 A  
HETATM   13  C   UNL     1     -12.812   9.359  72.202  1.00  0.00    -0.401 A  
HETATM   14  C   UNL     1     -11.597   8.714  72.395  1.00  0.00    -0.385 A  
HETATM   15  O   UNL     1     -13.816   9.087  73.086  1.00  0.00    -1.096 OA 
HETATM   16  H   UNL     1     -13.688   8.482  73.806  1.00  0.00     0.000 HD 
HETATM   17  C   UNL     1     -10.558   8.966  71.507  1.00  0.00    -0.329 A  
HETATM   18  O   UNL     1      -9.346   8.357  71.644  1.00  0.00    -0.172 OA 
HETATM   19  C   UNL     1     -10.724   9.853  70.445  1.00  0.00    -0.379 A  
HETATM   20  H   UNL     1      -8.636   8.529  71.037  1.00  0.00     0.000 HD 
ENDBRANCH  10  11
ENDBRANCH   6   9
TORSDOF 2
ENDMDL
MODEL        7
REMARK 921   NORMALIZED FREE ENERGY PREDICTED BY IDOCK:   -6.99 KCAL/MOL
REMARK 922        TOTAL FREE ENERGY PREDICTED BY IDOCK:   -8.13 KCAL/MOL
REMARK 923 INTER-LIGAND FREE ENERGY PREDICTED BY IDOCK:   -7.81 KCAL/MOL
REMARK 924 INTRA-LIGAND FREE ENERGY PREDICTED BY IDOCK:   -0.32 KCAL/MOL
REMARK 927      BINDING AFFINITY PREDICTED BY RF-SCORE:    0.00 PKD
ROOT
HETATM    1  O   UNL     1     -11.585  16.413  63.714  1.00  0.00    -1.605 OA 
HETATM    2  H   UNL     1     -12.072  16.336  62.903  1.00  0.00     0.000 HD 
HETATM    3  C   UNL     1     -11.617  15.429  64.659  1.00  0.00    -0.311 A  
HETATM    4  C   UNL     1     -10.905  15.541  65.847  1.00  0.00    -0.317 A  
HETATM    5  C   UNL     1     -10.944  14.492  66.771  1.00  0.00    -0.316 A  
HETATM    6  C   UNL     1     -11.698  13.336  66.519  1.00  0.00    -0.423 A  
HETATM    7  C   UNL     1     -12.375  14.297  64.390  1.00  0.00    -0.417 A  
HETATM    8  C   UNL     1     -12.412  13.250  65.316  1.00  0.00    -0.543 A  
ENDROOT
BRANCH   6   9
HETATM    9  C   UNL     1     -11.628  12.222  67.480  1.00  0.00    -0.422 C  
HETATM   10  C   UNL     1     -11.657  12.359  68.816  1.00  0.00    -0.373 C  
BRANCH  10  11
HETATM   11  C   UNL     1     -11.642  11.233  69.767  1.00  0.00    -0.408 A  
HETATM   12  C   UNL     1     -10.628  10.263  69.784  1.00  0.00    -0.312 A  
HETATM   13  C   UNL     1     -10.669   9.227  70.718  1.00  0.00    -0.284 A  
HETATM   14  C   UNL     1     -11.692   9.140  71.653  1.00  0.00    -0.448 A  
HETATM   15  O   UNL     1      -9.703   8.263  70.751  1.00  0.00    -0.167 OA 
HETATM   16  H   UNL     1      -9.731   7.558  71.387  1.00  0.00     0.000 HD 
HETATM   17  C   UNL     1     -12.685  10.111  71.650  1.00  0.00    -0.447 A  
HETATM   18  O   UNL     1     -13.711  10.080  72.548  1.00  0.00    -0.632 OA 
HETATM   19  C   UNL     1     -12.665  11.152  70.723  1.00  0.00    -0.388 A  
HETATM   20  H   UNL     1     -14.390  10.744  72.545  1.00  0.00     0.000 HD 
ENDBRANCH  10  11
ENDBRANCH   6   9
TORSDOF 2
ENDMDL
MODEL        8
REMARK 921   NORMALIZED FREE ENERGY PREDICTED BY IDOCK:   -6.99 KCAL/MOL
REMARK 922        TOTAL FREE ENERGY PREDICTED BY IDOCK:   -8.13 KCAL/MOL
REMARK 923 INTER-LIGAND FREE ENERGY PREDICTED BY IDOCK:   -7.81 KCAL/MOL
REMARK 924 INTRA-LIGAND FREE ENERGY PREDICTED BY IDOCK:   -0.32 KCAL/MOL
REMARK 927      BINDING AFFINITY PREDICTED BY RF-SCORE:    0.00 PKD
ROOT
HETATM    1  O   UNL     1     -12.391  14.423  63.400  1.00  0.00    -1.094 OA 
HETATM    2  H   UNL     1     -12.861  15.246  63.469  1.00  0.00     0.000 HD 
HETATM    3  C   UNL     1     -12.091  13.679  64.503  1.00  0.00    -0.419 A  
HETATM    4  C   UNL     1     -11.404  12.475  64.400  1.00  0.00    -0.395 A  
HETATM    5  C   UNL     1     -11.147  11.732  65.557  1.00  0.00    -0.336 A  
HETATM    6  C   UNL     1     -11.565  12.189  66.816  1.00  0.00    -0.412 A  
HETATM    7  C   UNL     1     -12.510  14.154  65.738  1.00  0.00    -0.490 A  
HETATM    8  C   UNL     1     -12.252  13.408  66.893  1.00  0.00    -0.343 A  
ENDROOT
BRANCH   6   9
HETATM    9  C   UNL     1     -11.355  11.323  67.988  1.00  0.00    -0.372 C  
HETATM   10  C   UNL     1     -12.146  11.297  69.074  1.00  0.00    -0.325 C  
BRANCH  10  11
HETATM   11  C   UNL     1     -11.958  10.387  70.218  1.00  0.00    -0.387 A  
HETATM   12  C   UNL     1     -10.715   9.825  70.549  1.00  0.00    -0.381 A  
HETATM   13  C   UNL     1     -10.603   8.979  71.652  1.00  0.00    -0.364 A  
HETATM   14  C   UNL     1     -11.701   8.686  72.450  1.00  0.00    -0.393 A  
HETATM   15  O   UNL     1      -9.410   8.408  71.990  1.00  0.00    -0.210 OA 
HETATM   16  H   UNL     1      -9.334   7.831  72.741  1.00  0.00     0.000 HD 
HETATM   17  C   UNL     1     -12.927   9.258  72.135  1.00  0.00    -0.424 A  
HETATM   18  O   UNL     1     -14.039   9.012  72.887  1.00  0.00    -1.009 OA 
HETATM   19  C   UNL     1     -13.061  10.104  71.036  1.00  0.00    -0.458 A  
HETATM   20  H   UNL     1     -14.877   9.404  72.671  1.00  0.00     0.000 HD 
ENDBRANCH  10  11
ENDBRANCH   6   9
TORSDOF 2
ENDMDL
MODEL        9
REMARK 921   NORMALIZED FREE ENERGY PREDICTED BY IDOCK:   -6.91 KCAL/MOL
REMARK 922        TOTAL FREE ENERGY PREDICTED BY IDOCK:   -8.04 KCAL/MOL
REMARK 923 INTER-LIGAND FREE ENERGY PREDICTED BY IDOCK:   -7.70 KCAL/MOL
REMARK 924 INTRA-LIGAND FREE ENERGY PREDICTED BY IDOCK:   -0.34 KCAL/MOL
REMARK 927      BINDING AFFINITY PREDICTED BY RF-SCORE:    0.00 PKD
ROOT
HETATM    1  O   UNL     1     -13.240   8.736  73.109  1.00  0.00    -0.866 OA 
HETATM    2  H   UNL     1     -12.881   7.870  73.262  1.00  0.00     0.000 HD 
HETATM    3  C   UNL     1     -12.740   9.552  72.137  1.00  0.00    -0.362 A  
HETATM    4  C   UNL     1     -13.265  10.819  71.913  1.00  0.00    -0.524 A  
HETATM    5  C   UNL     1     -12.740  11.607  70.885  1.00  0.00    -0.351 A  
HETATM    6  C   UNL     1     -11.687  11.139  70.083  1.00  0.00    -0.439 A  
HETATM    7  C   UNL     1     -11.694   9.070  71.361  1.00  0.00    -0.392 A  
HETATM    8  C   UNL     1     -11.172   9.859  70.332  1.00  0.00    -0.379 A  
ENDROOT
BRANCH   6   9
HETATM    9  C   UNL     1     -11.236  11.968  68.952  1.00  0.00    -0.315 C  
HETATM   10  C   UNL     1     -12.035  12.445  67.984  1.00  0.00    -0.264 C  
BRANCH  10  11
HETATM   11  C   UNL     1     -11.582  13.319  66.887  1.00  0.00    -0.408 A  
HETATM   12  C   UNL     1     -12.375  13.608  65.766  1.00  0.00    -0.524 A  
HETATM   13  C   UNL     1     -11.890  14.452  64.767  1.00  0.00    -0.433 A  
HETATM   14  C   UNL     1     -10.632  15.033  64.862  1.00  0.00    -0.400 A  
HETATM   15  O   UNL     1     -12.634  14.741  63.659  1.00  0.00    -1.014 OA 
HETATM   16  H   UNL     1     -12.304  15.315  62.979  1.00  0.00     0.000 HD 
HETATM   17  C   UNL     1      -9.855  14.763  65.981  1.00  0.00    -0.324 A  
HETATM   18  O   UNL     1      -8.614  15.311  66.132  1.00  0.00    -0.433 OA 
HETATM   19  C   UNL     1     -10.319  13.921  66.989  1.00  0.00    -0.267 A  
HETATM   20  H   UNL     1      -8.083  15.126  66.897  1.00  0.00     0.000 HD 
ENDBRANCH  10  11
ENDBRANCH   6   9
TORSDOF 2
ENDMDL
MODEL       10
REMARK 921   NORMALIZED FREE ENERGY PREDICTED BY IDOCK:   -6.88 KCAL/MOL
REMARK 922        TOTAL FREE ENERGY PREDICTED BY IDOCK:   -8.01 KCAL/MOL
REMARK 923 INTER-LIGAND FREE ENERGY PREDICTED BY IDOCK:   -7.68 KCAL/MOL
REMARK 924 INTRA-LIGAND FREE ENERGY PREDICTED BY IDOCK:   -0.33 KCAL/MOL
REMARK 927      BINDING AFFINITY PREDICTED BY RF-SCORE:    0.00 PKD
ROOT
HETATM    1  O   UNL     1     -13.417   8.902  73.164  1.00  0.00    -0.968 OA 
HETATM    2  H   UNL     1     -13.187   7.985  73.250  1.00  0.00     0.000 HD 
HETATM    3  C   UNL     1     -12.859   9.687  72.198  1.00  0.00    -0.375 A  
HETATM    4  C   UNL     1     -13.195  11.030  72.071  1.00  0.00    -0.447 A  
HETATM    5  C   UNL     1     -12.620  11.787  71.046  1.00  0.00    -0.409 A  
HETATM    6  C   UNL     1     -11.705  11.212  70.151  1.00  0.00    -0.439 A  
HETATM    7  C   UNL     1     -11.951   9.098  71.328  1.00  0.00    -0.394 A  
HETATM    8  C   UNL     1     -11.379   9.857  70.302  1.00  0.00    -0.357 A  
ENDROOT
BRANCH   6   9
HETATM    9  C   UNL     1     -11.203  12.026  69.031  1.00  0.00    -0.313 C  
HETATM   10  C   UNL     1     -11.947  12.446  67.995  1.00  0.00    -0.264 C  
BRANCH  10  11
HETATM   11  C   UNL     1     -11.447  13.307  66.907  1.00  0.00    -0.376 A  
HETATM   12  C   UNL     1     -10.241  14.019  66.992  1.00  0.00    -0.261 A  
HETATM   13  C   UNL     1      -9.821  14.809  65.922  1.00  0.00    -0.334 A  
HETATM   14  C   UNL     1     -10.567  14.898  64.754  1.00  0.00    -0.336 A  
HETATM   15  O   UNL     1      -8.658  15.523  65.980  1.00  0.00    -0.392 OA 
HETATM   16  H   UNL     1      -8.372  16.061  65.252  1.00  0.00     0.000 HD 
HETATM   17  C   UNL     1     -11.751  14.177  64.662  1.00  0.00    -0.417 A  
HETATM   18  O   UNL     1     -12.522  14.221  63.538  1.00  0.00    -1.095 OA 
HETATM   19  C   UNL     1     -12.191  13.385  65.721  1.00  0.00    -0.507 A  
HETATM   20  H   UNL     1     -13.332  13.728  63.475  1.00  0.00     0.000 HD 
ENDBRANCH  10  11
ENDBRANCH   6   9
TORSDOF 2
ENDMDL
MODEL       11
REMARK 921   NORMALIZED FREE ENERGY PREDICTED BY IDOCK:   -6.83 KCAL/MOL
REMARK 922        TOTAL FREE ENERGY PREDICTED BY IDOCK:   -7.95 KCAL/MOL
REMARK 923 INTER-LIGAND FREE ENERGY PREDICTED BY IDOCK:   -7.64 KCAL/MOL
REMARK 924 INTRA-LIGAND FREE ENERGY PREDICTED BY IDOCK:   -0.31 KCAL/MOL
REMARK 927      BINDING AFFINITY PREDICTED BY RF-SCORE:    0.00 PKD
ROOT
HETATM    1  O   UNL     1     -12.211   8.189  72.896  1.00  0.00    -0.614 OA 
HETATM    2  H   UNL     1     -12.913   8.217  73.535  1.00  0.00     0.000 HD 
HETATM    3  C   UNL     1     -12.089   9.146  71.931  1.00  0.00    -0.378 A  
HETATM    4  C   UNL     1     -11.063   9.104  70.995  1.00  0.00    -0.374 A  
HETATM    5  C   UNL     1     -10.959  10.125  70.045  1.00  0.00    -0.364 A  
HETATM    6  C   UNL     1     -11.881  11.182  70.019  1.00  0.00    -0.441 A  
HETATM    7  C   UNL     1     -13.016  10.179  71.922  1.00  0.00    -0.549 A  
HETATM    8  C   UNL     1     -12.910  11.199  70.971  1.00  0.00    -0.424 A  
ENDROOT
BRANCH   6   9
HETATM    9  C   UNL     1     -11.672  12.281  69.061  1.00  0.00    -0.376 C  
HETATM   10  C   UNL     1     -11.647  12.140  67.726  1.00  0.00    -0.410 C  
BRANCH  10  11
HETATM   11  C   UNL     1     -11.492  13.255  66.774  1.00  0.00    -0.387 A  
HETATM   12  C   UNL     1     -10.828  14.448  67.100  1.00  0.00    -0.292 A  
HETATM   13  C   UNL     1     -10.708  15.461  66.149  1.00  0.00    -0.314 A  
HETATM   14  C   UNL     1     -11.221  15.311  64.867  1.00  0.00    -0.422 A  
HETATM   15  O   UNL     1     -10.078  16.637  66.441  1.00  0.00    -0.287 OA 
HETATM   16  H   UNL     1      -9.996  17.327  65.793  1.00  0.00     0.000 HD 
HETATM   17  C   UNL     1     -11.860  14.123  64.538  1.00  0.00    -0.436 A  
HETATM   18  O   UNL     1     -12.378  13.917  63.293  1.00  0.00    -1.115 OA 
HETATM   19  C   UNL     1     -11.994  13.099  65.474  1.00  0.00    -0.457 A  
HETATM   20  H   UNL     1     -12.814  13.104  63.069  1.00  0.00     0.000 HD 
ENDBRANCH  10  11
ENDBRANCH   6   9
TORSDOF 2
ENDMDL
MODEL       12
REMARK 921   NORMALIZED FREE ENERGY PREDICTED BY IDOCK:   -6.78 KCAL/MOL
REMARK 922        TOTAL FREE ENERGY PREDICTED BY IDOCK:   -7.90 KCAL/MOL
REMARK 923 INTER-LIGAND FREE ENERGY PREDICTED BY IDOCK:   -7.56 KCAL/MOL
REMARK 924 INTRA-LIGAND FREE ENERGY PREDICTED BY IDOCK:   -0.33 KCAL/MOL
REMARK 927      BINDING AFFINITY PREDICTED BY RF-SCORE:    0.00 PKD
ROOT
HETATM    1  O   UNL     1     -10.502  10.826  62.623  1.00  0.00    -0.760 OA 
HETATM    2  H   UNL     1     -11.024  10.923  61.835  1.00  0.00     0.000 HD 
HETATM    3  C   UNL     1     -10.856  11.435  63.791  1.00  0.00    -0.395 A  
HETATM    4  C   UNL     1     -10.092  11.292  64.943  1.00  0.00    -0.333 A  
HETATM    5  C   UNL     1     -10.512  11.911  66.125  1.00  0.00    -0.272 A  
HETATM    6  C   UNL     1     -11.686  12.679  66.160  1.00  0.00    -0.461 A  
HETATM    7  C   UNL     1     -12.018  12.195  63.799  1.00  0.00    -0.607 A  
HETATM    8  C   UNL     1     -12.436  12.812  64.983  1.00  0.00    -0.572 A  
ENDROOT
BRANCH   6   9
HETATM    9  C   UNL     1     -12.134  13.228  67.450  1.00  0.00    -0.327 C  
HETATM   10  C   UNL     1     -11.502  13.049  68.621  1.00  0.00    -0.344 C  
BRANCH  10  11
HETATM   11  C   UNL     1     -11.929  13.649  69.898  1.00  0.00    -0.415 A  
HETATM   12  C   UNL     1     -11.606  14.964  70.268  1.00  0.00    -0.332 A  
HETATM   13  C   UNL     1     -12.050  15.475  71.487  1.00  0.00    -0.393 A  
HETATM   14  C   UNL     1     -12.827  14.711  72.349  1.00  0.00    -0.442 A  
HETATM   15  O   UNL     1     -11.742  16.746  71.879  1.00  0.00    -0.599 OA 
HETATM   16  H   UNL     1     -12.044  17.094  72.709  1.00  0.00     0.000 HD 
HETATM   17  C   UNL     1     -13.164  13.417  71.974  1.00  0.00    -0.438 A  
HETATM   18  O   UNL     1     -13.929  12.623  72.777  1.00  0.00    -0.642 OA 
HETATM   19  C   UNL     1     -12.728  12.886  70.762  1.00  0.00    -0.229 A  
HETATM   20  H   UNL     1     -14.159  11.738  72.521  1.00  0.00     0.000 HD 
ENDBRANCH  10  11
ENDBRANCH   6   9
TORSDOF 2
ENDMDL
MODEL       13
REMARK 921   NORMALIZED FREE ENERGY PREDICTED BY IDOCK:   -6.73 KCAL/MOL
REMARK 922        TOTAL FREE ENERGY PREDICTED BY IDOCK:   -7.84 KCAL/MOL
REMARK 923 INTER-LIGAND FREE ENERGY PREDICTED BY IDOCK:   -7.51 KCAL/MOL
REMARK 924 INTRA-LIGAND FREE ENERGY PREDICTED BY IDOCK:   -0.33 KCAL/MOL
REMARK 927      BINDING AFFINITY PREDICTED BY RF-SCORE:    0.00 PKD
ROOT
HETATM    1  O   UNL     1     -10.301  10.690  62.521  1.00  0.00    -0.751 OA 
HETATM    2  H   UNL     1     -10.791  10.805  61.716  1.00  0.00     0.000 HD 
HETATM    3  C   UNL     1     -10.698  11.278  63.686  1.00  0.00    -0.367 A  
HETATM    4  C   UNL     1      -9.981  11.111  64.864  1.00  0.00    -0.331 A  
HETATM    5  C   UNL     1     -10.445  11.708  66.041  1.00  0.00    -0.294 A  
HETATM    6  C   UNL     1     -11.618  12.478  66.045  1.00  0.00    -0.456 A  
HETATM    7  C   UNL     1     -11.858  12.041  63.664  1.00  0.00    -0.602 A  
HETATM    8  C   UNL     1     -12.321  12.636  64.842  1.00  0.00    -0.563 A  
ENDROOT
BRANCH   6   9
HETATM    9  C   UNL     1     -12.115  13.004  67.327  1.00  0.00    -0.304 C  
HETATM   10  C   UNL     1     -11.475  12.890  68.502  1.00  0.00    -0.345 C  
BRANCH  10  11
HETATM   11  C   UNL     1     -11.956  13.468  69.770  1.00  0.00    -0.405 A  
HETATM   12  C   UNL     1     -12.658  12.723  70.730  1.00  0.00    -0.308 A  
HETATM   13  C   UNL     1     -13.077  13.329  71.914  1.00  0.00    -0.388 A  
HETATM   14  C   UNL     1     -12.800  14.664  72.179  1.00  0.00    -0.408 A  
HETATM   15  O   UNL     1     -13.772  12.632  72.861  1.00  0.00    -0.650 OA 
HETATM   16  H   UNL     1     -14.057  13.045  73.667  1.00  0.00     0.000 HD 
HETATM   17  C   UNL     1     -12.087  15.397  71.238  1.00  0.00    -0.366 A  
HETATM   18  O   UNL     1     -11.781  16.710  71.446  1.00  0.00    -0.626 OA 
HETATM   19  C   UNL     1     -11.663  14.812  70.047  1.00  0.00    -0.344 A  
HETATM   20  H   UNL     1     -11.294  17.210  70.802  1.00  0.00     0.000 HD 
ENDBRANCH  10  11
ENDBRANCH   6   9
TORSDOF 2
ENDMDL
MODEL       14
REMARK 921   NORMALIZED FREE ENERGY PREDICTED BY IDOCK:   -6.60 KCAL/MOL
REMARK 922        TOTAL FREE ENERGY PREDICTED BY IDOCK:   -7.70 KCAL/MOL
REMARK 923 INTER-LIGAND FREE ENERGY PREDICTED BY IDOCK:   -7.36 KCAL/MOL
REMARK 924 INTRA-LIGAND FREE ENERGY PREDICTED BY IDOCK:   -0.34 KCAL/MOL
REMARK 927      BINDING AFFINITY PREDICTED BY RF-SCORE:    0.00 PKD
ROOT
HETATM    1  O   UNL     1     -11.632   7.705  73.378  1.00  0.00    -0.641 OA 
HETATM    2  H   UNL     1     -10.862   7.209  73.629  1.00  0.00     0.000 HD 
HETATM    3  C   UNL     1     -11.610   8.562  72.316  1.00  0.00    -0.374 A  
HETATM    4  C   UNL     1     -12.736   9.288  71.948  1.00  0.00    -0.474 A  
HETATM    5  C   UNL     1     -12.675  10.131  70.834  1.00  0.00    -0.448 A  
HETATM    6  C   UNL     1     -11.492  10.258  70.090  1.00  0.00    -0.383 A  
HETATM    7  C   UNL     1     -10.427   8.676  71.599  1.00  0.00    -0.366 A  
HETATM    8  C   UNL     1     -10.368   9.518  70.484  1.00  0.00    -0.350 A  
ENDROOT
BRANCH   6   9
HETATM    9  C   UNL     1     -11.508  11.082  68.869  1.00  0.00    -0.364 C  
HETATM   10  C   UNL     1     -10.912  10.751  67.712  1.00  0.00    -0.354 C  
BRANCH  10  11
HETATM   11  C   UNL     1     -10.981  11.558  66.481  1.00  0.00    -0.346 A  
HETATM   12  C   UNL     1     -10.071  11.412  65.423  1.00  0.00    -0.308 A  
HETATM   13  C   UNL     1     -10.197  12.201  64.279  1.00  0.00    -0.324 A  
HETATM   14  C   UNL     1     -11.224  13.128  64.153  1.00  0.00    -0.433 A  
HETATM   15  O   UNL     1      -9.320  12.090  63.239  1.00  0.00    -0.651 OA 
HETATM   16  H   UNL     1      -9.406  12.627  62.461  1.00  0.00     0.000 HD 
HETATM   17  C   UNL     1     -12.137  13.259  65.192  1.00  0.00    -0.413 A  
HETATM   18  O   UNL     1     -13.169  14.148  65.122  1.00  0.00    -0.743 OA 
HETATM   19  C   UNL     1     -12.026  12.482  66.344  1.00  0.00    -0.386 A  
HETATM   20  H   UNL     1     -13.793  14.237  65.832  1.00  0.00     0.000 HD 
ENDBRANCH  10  11
ENDBRANCH   6   9
TORSDOF 2
ENDMDL
MODEL       15
REMARK 921   NORMALIZED FREE ENERGY PREDICTED BY IDOCK:   -6.57 KCAL/MOL
REMARK 922        TOTAL FREE ENERGY PREDICTED BY IDOCK:   -7.65 KCAL/MOL
REMARK 923 INTER-LIGAND FREE ENERGY PREDICTED BY IDOCK:   -7.33 KCAL/MOL
REMARK 924 INTRA-LIGAND FREE ENERGY PREDICTED BY IDOCK:   -0.33 KCAL/MOL
REMARK 927      BINDING AFFINITY PREDICTED BY RF-SCORE:    0.00 PKD
ROOT
HETATM    1  O   UNL     1     -11.271  15.823  64.365  1.00  0.00    -0.718 OA 
HETATM    2  H   UNL     1     -11.508  15.689  63.455  1.00  0.00     0.000 HD 
HETATM    3  C   UNL     1     -11.423  14.835  65.294  1.00  0.00    -0.352 A  
HETATM    4  C   UNL     1     -11.076  15.032  66.625  1.00  0.00    -0.326 A  
HETATM    5  C   UNL     1     -11.221  13.979  67.534  1.00  0.00    -0.328 A  
HETATM    6  C   UNL     1     -11.718  12.733  67.122  1.00  0.00    -0.443 A  
HETATM    7  C   UNL     1     -11.923  13.613  64.864  1.00  0.00    -0.410 A  
HETATM    8  C   UNL     1     -12.065  12.562  65.775  1.00  0.00    -0.443 A  
ENDROOT
BRANCH   6   9
HETATM    9  C   UNL     1     -11.760  11.630  68.096  1.00  0.00    -0.365 C  
HETATM   10  C   UNL     1     -11.635  11.776  69.425  1.00  0.00    -0.386 C  
BRANCH  10  11
HETATM   11  C   UNL     1     -11.733  10.671  70.397  1.00  0.00    -0.446 A  
HETATM   12  C   UNL     1     -10.672   9.792  70.660  1.00  0.00    -0.394 A  
HETATM   13  C   UNL     1     -10.827   8.772  71.599  1.00  0.00    -0.329 A  
HETATM   14  C   UNL     1     -12.016   8.612  72.299  1.00  0.00    -0.438 A  
HETATM   15  O   UNL     1      -9.817   7.894  71.868  1.00  0.00    -0.164 OA 
HETATM   16  H   UNL     1      -9.923   7.200  72.507  1.00  0.00     0.000 HD 
HETATM   17  C   UNL     1     -13.060   9.495  72.053  1.00  0.00    -0.438 A  
HETATM   18  O   UNL     1     -14.248   9.390  72.715  1.00  0.00    -0.840 OA 
HETATM   19  C   UNL     1     -12.926  10.518  71.117  1.00  0.00    -0.506 A  
HETATM   20  H   UNL     1     -14.961   9.994  72.547  1.00  0.00     0.000 HD 
ENDBRANCH  10  11
ENDBRANCH   6   9
TORSDOF 2
ENDMDL
MODEL       16
REMARK 921   NORMALIZED FREE ENERGY PREDICTED BY IDOCK:   -6.48 KCAL/MOL
REMARK 922        TOTAL FREE ENERGY PREDICTED BY IDOCK:   -7.56 KCAL/MOL
REMARK 923 INTER-LIGAND FREE ENERGY PREDICTED BY IDOCK:   -7.24 KCAL/MOL
REMARK 924 INTRA-LIGAND FREE ENERGY PREDICTED BY IDOCK:   -0.31 KCAL/MOL
REMARK 927      BINDING AFFINITY PREDICTED BY RF-SCORE:    0.00 PKD
ROOT
HETATM    1  O   UNL     1      -8.063  20.208  65.547  1.00  0.00    -0.465 OA 
HETATM    2  H   UNL     1      -7.210  19.966  65.206  1.00  0.00     0.000 HD 
HETATM    3  C   UNL     1      -8.808  19.335  66.286  1.00  0.00    -0.326 A  
HETATM    4  C   UNL     1     -10.055  19.689  66.785  1.00  0.00    -0.537 A  
HETATM    5  C   UNL     1     -10.768  18.772  67.564  1.00  0.00    -0.474 A  
HETATM    6  C   UNL     1     -10.245  17.500  67.839  1.00  0.00    -0.350 A  
HETATM    7  C   UNL     1      -8.272  18.080  66.540  1.00  0.00    -0.298 A  
HETATM    8  C   UNL     1      -8.986  17.165  67.320  1.00  0.00    -0.228 A  
ENDROOT
BRANCH   6   9
HETATM    9  C   UNL     1     -10.990  16.608  68.743  1.00  0.00    -0.309 C  
HETATM   10  C   UNL     1     -10.865  16.591  70.080  1.00  0.00    -0.258 C  
BRANCH  10  11
HETATM   11  C   UNL     1     -11.656  15.732  70.979  1.00  0.00    -0.453 A  
HETATM   12  C   UNL     1     -11.945  14.389  70.692  1.00  0.00    -0.393 A  
HETATM   13  C   UNL     1     -12.692  13.628  71.591  1.00  0.00    -0.305 A  
HETATM   14  C   UNL     1     -13.150  14.168  72.786  1.00  0.00    -0.573 A  
HETATM   15  O   UNL     1     -13.000  12.323  71.333  1.00  0.00    -0.366 OA 
HETATM   16  H   UNL     1     -13.508  11.805  71.945  1.00  0.00     0.000 HD 
HETATM   17  C   UNL     1     -12.847  15.492  73.080  1.00  0.00    -0.497 A  
HETATM   18  O   UNL     1     -13.265  16.074  74.241  1.00  0.00    -0.881 OA 
HETATM   19  C   UNL     1     -12.105  16.270  72.194  1.00  0.00    -0.530 A  
HETATM   20  H   UNL     1     -13.058  16.979  74.442  1.00  0.00     0.000 HD 
ENDBRANCH  10  11
ENDBRANCH   6   9
TORSDOF 2
ENDMDL
MODEL       17
REMARK 921   NORMALIZED FREE ENERGY PREDICTED BY IDOCK:   -6.31 KCAL/MOL
REMARK 922        TOTAL FREE ENERGY PREDICTED BY IDOCK:   -7.37 KCAL/MOL
REMARK 923 INTER-LIGAND FREE ENERGY PREDICTED BY IDOCK:   -7.04 KCAL/MOL
REMARK 924 INTRA-LIGAND FREE ENERGY PREDICTED BY IDOCK:   -0.33 KCAL/MOL
REMARK 927      BINDING AFFINITY PREDICTED BY RF-SCORE:    0.00 PKD
ROOT
HETATM    1  O   UNL     1     -13.611   9.765  72.638  1.00  0.00    -0.665 OA 
HETATM    2  H   UNL     1     -13.384   8.877  72.389  1.00  0.00     0.000 HD 
HETATM    3  C   UNL     1     -13.155  10.840  71.933  1.00  0.00    -0.451 A  
HETATM    4  C   UNL     1     -13.487  12.140  72.298  1.00  0.00    -0.298 A  
HETATM    5  C   UNL     1     -13.022  13.209  71.525  1.00  0.00    -0.412 A  
HETATM    6  C   UNL     1     -12.221  12.987  70.395  1.00  0.00    -0.386 A  
HETATM    7  C   UNL     1     -12.359  10.597  70.822  1.00  0.00    -0.472 A  
HETATM    8  C   UNL     1     -11.897  11.668  70.050  1.00  0.00    -0.435 A  
ENDROOT
BRANCH   6   9
HETATM    9  C   UNL     1     -11.839  14.139  69.561  1.00  0.00    -0.373 C  
HETATM   10  C   UNL     1     -11.402  14.057  68.294  1.00  0.00    -0.317 C  
BRANCH  10  11
HETATM   11  C   UNL     1     -11.074  15.221  67.450  1.00  0.00    -0.326 A  
HETATM   12  C   UNL     1     -11.347  15.265  66.075  1.00  0.00    -0.162 A  
HETATM   13  C   UNL     1     -11.020  16.401  65.335  1.00  0.00    -0.160 A  
HETATM   14  C   UNL     1     -10.437  17.510  65.935  1.00  0.00    -0.251 A  
HETATM   15  O   UNL     1     -11.263  16.469  63.992  1.00  0.00    -1.409 OA 
HETATM   16  H   UNL     1     -11.040  17.242  63.489  1.00  0.00     0.000 HD 
HETATM   17  C   UNL     1     -10.185  17.474  67.301  1.00  0.00    -0.335 A  
HETATM   18  O   UNL     1      -9.620  18.535  67.946  1.00  0.00    -0.285 OA 
HETATM   19  C   UNL     1     -10.501  16.347  68.058  1.00  0.00    -0.303 A  
HETATM   20  H   UNL     1      -9.447  18.510  68.879  1.00  0.00     0.000 HD 
ENDBRANCH  10  11
ENDBRANCH   6   9
TORSDOF 2
ENDMDL
MODEL       18
REMARK 921   NORMALIZED FREE ENERGY PREDICTED BY IDOCK:   -6.26 KCAL/MOL
REMARK 922        TOTAL FREE ENERGY PREDICTED BY IDOCK:   -7.31 KCAL/MOL
REMARK 923 INTER-LIGAND FREE ENERGY PREDICTED BY IDOCK:   -6.98 KCAL/MOL
REMARK 924 INTRA-LIGAND FREE ENERGY PREDICTED BY IDOCK:   -0.33 KCAL/MOL
REMARK 927      BINDING AFFINITY PREDICTED BY RF-SCORE:    0.00 PKD
ROOT
HETATM    1  O   UNL     1      -7.795  20.446  65.499  1.00  0.00    -0.513 OA 
HETATM    2  H   UNL     1      -6.995  20.155  65.078  1.00  0.00     0.000 HD 
HETATM    3  C   UNL     1      -8.577  19.586  66.214  1.00  0.00    -0.361 A  
HETATM    4  C   UNL     1      -9.747  20.013  66.830  1.00  0.00    -0.563 A  
HETATM    5  C   UNL     1     -10.499  19.101  67.578  1.00  0.00    -0.549 A  
HETATM    6  C   UNL     1     -10.093  17.765  67.707  1.00  0.00    -0.345 A  
HETATM    7  C   UNL     1      -8.158  18.267  66.322  1.00  0.00    -0.254 A  
HETATM    8  C   UNL     1      -8.911  17.358  67.071  1.00  0.00    -0.248 A  
ENDROOT
BRANCH   6   9
HETATM    9  C   UNL     1     -10.867  16.870  68.584  1.00  0.00    -0.314 C  
HETATM   10  C   UNL     1     -10.673  16.736  69.906  1.00  0.00    -0.123 C  
BRANCH  10  11
HETATM   11  C   UNL     1     -11.490  15.879  70.784  1.00  0.00    -0.437 A  
HETATM   12  C   UNL     1     -12.034  16.330  71.996  1.00  0.00    -0.544 A  
HETATM   13  C   UNL     1     -12.807  15.470  72.776  1.00  0.00    -0.435 A  
HETATM   14  C   UNL     1     -13.068  14.167  72.371  1.00  0.00    -0.525 A  
HETATM   15  O   UNL     1     -13.339  15.876  73.966  1.00  0.00    -0.809 OA 
HETATM   16  H   UNL     1     -13.866  15.291  74.497  1.00  0.00     0.000 HD 
HETATM   17  C   UNL     1     -12.546  13.727  71.161  1.00  0.00    -0.373 A  
HETATM   18  O   UNL     1     -12.775  12.460  70.710  1.00  0.00    -0.238 OA 
HETATM   19  C   UNL     1     -11.769  14.569  70.369  1.00  0.00    -0.354 A  
HETATM   20  H   UNL     1     -12.418  12.160  69.883  1.00  0.00     0.000 HD 
ENDBRANCH  10  11
ENDBRANCH   6   9
TORSDOF 2
ENDMDL
MODEL       19
REMARK 921   NORMALIZED FREE ENERGY PREDICTED BY IDOCK:   -6.25 KCAL/MOL
REMARK 922        TOTAL FREE ENERGY PREDICTED BY IDOCK:   -7.30 KCAL/MOL
REMARK 923 INTER-LIGAND FREE ENERGY PREDICTED BY IDOCK:   -6.98 KCAL/MOL
REMARK 924 INTRA-LIGAND FREE ENERGY PREDICTED BY IDOCK:   -0.32 KCAL/MOL
REMARK 927      BINDING AFFINITY PREDICTED BY RF-SCORE:    0.00 PKD
ROOT
HETATM    1  O   UNL     1     -11.272   7.470  73.495  1.00  0.00    -0.603 OA 
HETATM    2  H   UNL     1     -10.432   7.116  73.762  1.00  0.00     0.000 HD 
HETATM    3  C   UNL     1     -11.378   8.337  72.447  1.00  0.00    -0.388 A  
HETATM    4  C   UNL     1     -12.607   8.855  72.056  1.00  0.00    -0.460 A  
HETATM    5  C   UNL     1     -12.670   9.716  70.957  1.00  0.00    -0.354 A  
HETATM    6  C   UNL     1     -11.510  10.070  70.251  1.00  0.00    -0.372 A  
HETATM    7  C   UNL     1     -10.216   8.678  71.768  1.00  0.00    -0.378 A  
HETATM    8  C   UNL     1     -10.282   9.539  70.667  1.00  0.00    -0.364 A  
ENDROOT
BRANCH   6   9
HETATM    9  C   UNL     1     -11.643  10.903  69.043  1.00  0.00    -0.387 C  
HETATM   10  C   UNL     1     -10.886  10.781  67.941  1.00  0.00    -0.313 C  
BRANCH  10  11
HETATM   11  C   UNL     1     -11.064  11.583  66.716  1.00  0.00    -0.361 A  
HETATM   12  C   UNL     1     -12.034  12.589  66.599  1.00  0.00    -0.351 A  
HETATM   13  C   UNL     1     -12.143  13.319  65.415  1.00  0.00    -0.422 A  
HETATM   14  C   UNL     1     -11.296  13.081  64.341  1.00  0.00    -0.397 A  
HETATM   15  O   UNL     1     -13.086  14.296  65.268  1.00  0.00    -0.707 OA 
HETATM   16  H   UNL     1     -13.160  14.792  64.462  1.00  0.00     0.000 HD 
HETATM   17  C   UNL     1     -10.322  12.097  64.464  1.00  0.00    -0.304 A  
HETATM   18  O   UNL     1      -9.458  11.824  63.444  1.00  0.00    -0.517 OA 
HETATM   19  C   UNL     1     -10.198  11.355  65.637  1.00  0.00    -0.298 A  
HETATM   20  H   UNL     1      -8.793  11.152  63.529  1.00  0.00     0.000 HD 
ENDBRANCH  10  11
ENDBRANCH   6   9
TORSDOF 2
ENDMDL
MODEL       20
REMARK 921   NORMALIZED FREE ENERGY PREDICTED BY IDOCK:   -6.22 KCAL/MOL
REMARK 922        TOTAL FREE ENERGY PREDICTED BY IDOCK:   -7.27 KCAL/MOL
REMARK 923 INTER-LIGAND FREE ENERGY PREDICTED BY IDOCK:   -6.94 KCAL/MOL
REMARK 924 INTRA-LIGAND FREE ENERGY PREDICTED BY IDOCK:   -0.33 KCAL/MOL
REMARK 927      BINDING AFFINITY PREDICTED BY RF-SCORE:    0.00 PKD
ROOT
HETATM    1  O   UNL     1      -6.069  21.058  68.516  1.00  0.00    -0.334 OA 
HETATM    2  H   UNL     1      -5.770  21.787  67.984  1.00  0.00     0.000 HD 
HETATM    3  C   UNL     1      -7.003  20.177  68.055  1.00  0.00    -0.290 A  
HETATM    4  C   UNL     1      -7.440  19.112  68.833  1.00  0.00    -0.378 A  
HETATM    5  C   UNL     1      -8.376  18.216  68.306  1.00  0.00    -0.301 A  
HETATM    6  C   UNL     1      -8.883  18.384  67.009  1.00  0.00    -0.271 A  
HETATM    7  C   UNL     1      -7.496  20.367  66.771  1.00  0.00    -0.329 A  
HETATM    8  C   UNL     1      -8.430  19.469  66.246  1.00  0.00    -0.370 A  
ENDROOT
BRANCH   6   9
HETATM    9  C   UNL     1      -9.792  17.360  66.466  1.00  0.00    -0.310 C  
HETATM   10  C   UNL     1      -9.659  16.037  66.658  1.00  0.00    -0.258 C  
BRANCH  10  11
HETATM   11  C   UNL     1     -10.606  15.025  66.156  1.00  0.00    -0.314 A  
HETATM   12  C   UNL     1     -11.165  15.075  64.870  1.00  0.00    -0.423 A  
HETATM   13  C   UNL     1     -12.047  14.079  64.453  1.00  0.00    -0.458 A  
HETATM   14  C   UNL     1     -12.380  13.017  65.284  1.00  0.00    -0.537 A  
HETATM   15  O   UNL     1     -12.616  14.108  63.212  1.00  0.00    -1.080 OA 
HETATM   16  H   UNL     1     -13.217  13.429  62.929  1.00  0.00     0.000 HD 
HETATM   17  C   UNL     1     -11.811  12.956  66.550  1.00  0.00    -0.407 A  
HETATM   18  O   UNL     1     -12.096  11.933  67.407  1.00  0.00    -0.577 OA 
HETATM   19  C   UNL     1     -10.930  13.942  66.987  1.00  0.00    -0.301 A  
HETATM   20  H   UNL     1     -11.707  11.892  68.272  1.00  0.00     0.000 HD 
ENDBRANCH  10  11
ENDBRANCH   6   9
TORSDOF 2
ENDMDL
MODEL       21
REMARK 921   NORMALIZED FREE ENERGY PREDICTED BY IDOCK:   -6.19 KCAL/MOL
REMARK 922        TOTAL FREE ENERGY PREDICTED BY IDOCK:   -7.24 KCAL/MOL
REMARK 923 INTER-LIGAND FREE ENERGY PREDICTED BY IDOCK:   -6.92 KCAL/MOL
REMARK 924 INTRA-LIGAND FREE ENERGY PREDICTED BY IDOCK:   -0.32 KCAL/MOL
REMARK 927      BINDING AFFINITY PREDICTED BY RF-SCORE:    0.00 PKD
ROOT
HETATM    1  O   UNL     1     -13.418   9.505  72.496  1.00  0.00    -0.611 OA 
HETATM    2  H   UNL     1     -13.920   9.666  73.286  1.00  0.00     0.000 HD 
HETATM    3  C   UNL     1     -13.016  10.528  71.688  1.00  0.00    -0.476 A  
HETATM    4  C   UNL     1     -12.282  10.292  70.532  1.00  0.00    -0.390 A  
HETATM    5  C   UNL     1     -11.865  11.376  69.752  1.00  0.00    -0.435 A  
HETATM    6  C   UNL     1     -12.185  12.692  70.116  1.00  0.00    -0.310 A  
HETATM    7  C   UNL     1     -13.351  11.821  72.065  1.00  0.00    -0.417 A  
HETATM    8  C   UNL     1     -12.931  12.903  71.284  1.00  0.00    -0.317 A  
ENDROOT
BRANCH   6   9
HETATM    9  C   UNL     1     -11.641  13.801  69.314  1.00  0.00    -0.362 C  
HETATM   10  C   UNL     1     -11.781  13.927  67.984  1.00  0.00    -0.387 C  
BRANCH  10  11
HETATM   11  C   UNL     1     -11.279  15.069  67.199  1.00  0.00    -0.336 A  
HETATM   12  C   UNL     1     -10.441  16.055  67.740  1.00  0.00    -0.298 A  
HETATM   13  C   UNL     1      -9.993  17.106  66.939  1.00  0.00    -0.288 A  
HETATM   14  C   UNL     1     -10.349  17.194  65.599  1.00  0.00    -0.198 A  
HETATM   15  O   UNL     1      -9.186  18.087  67.440  1.00  0.00    -0.251 OA 
HETATM   16  H   UNL     1      -8.882  18.802  66.895  1.00  0.00     0.000 HD 
HETATM   17  C   UNL     1     -11.163  16.206  65.058  1.00  0.00    -0.220 A  
HETATM   18  O   UNL     1     -11.539  16.237  63.748  1.00  0.00    -1.539 OA 
HETATM   19  C   UNL     1     -11.623  15.150  65.842  1.00  0.00    -0.086 A  
HETATM   20  H   UNL     1     -12.095  15.562  63.379  1.00  0.00     0.000 HD 
ENDBRANCH  10  11
ENDBRANCH   6   9
TORSDOF 2
ENDMDL
MODEL       22
REMARK 921   NORMALIZED FREE ENERGY PREDICTED BY IDOCK:   -6.18 KCAL/MOL
REMARK 922        TOTAL FREE ENERGY PREDICTED BY IDOCK:   -7.23 KCAL/MOL
REMARK 923 INTER-LIGAND FREE ENERGY PREDICTED BY IDOCK:   -6.91 KCAL/MOL
REMARK 924 INTRA-LIGAND FREE ENERGY PREDICTED BY IDOCK:   -0.32 KCAL/MOL
REMARK 927      BINDING AFFINITY PREDICTED BY RF-SCORE:    0.00 PKD
ROOT
HETATM    1  O   UNL     1      -9.565  21.056  66.863  1.00  0.00    -0.671 OA 
HETATM    2  H   UNL     1      -9.513  21.353  65.962  1.00  0.00     0.000 HD 
HETATM    3  C   UNL     1      -9.897  19.769  67.170  1.00  0.00    -0.386 A  
HETATM    4  C   UNL     1      -9.972  19.334  68.488  1.00  0.00    -0.513 A  
HETATM    5  C   UNL     1     -10.286  17.998  68.753  1.00  0.00    -0.362 A  
HETATM    6  C   UNL     1     -10.533  17.094  67.708  1.00  0.00    -0.362 A  
HETATM    7  C   UNL     1     -10.144  18.895  66.120  1.00  0.00    -0.438 A  
HETATM    8  C   UNL     1     -10.456  17.558  66.387  1.00  0.00    -0.277 A  
ENDROOT
BRANCH   6   9
HETATM    9  C   UNL     1     -10.764  15.677  68.037  1.00  0.00    -0.287 C  
HETATM   10  C   UNL     1     -11.572  15.239  69.016  1.00  0.00    -0.360 C  
BRANCH  10  11
HETATM   11  C   UNL     1     -11.838  13.818  69.301  1.00  0.00    -0.392 A  
HETATM   12  C   UNL     1     -11.540  12.790  68.393  1.00  0.00    -0.365 A  
HETATM   13  C   UNL     1     -11.809  11.463  68.728  1.00  0.00    -0.323 A  
HETATM   14  C   UNL     1     -12.357  11.127  69.960  1.00  0.00    -0.351 A  
HETATM   15  O   UNL     1     -11.541  10.443  67.861  1.00  0.00    -0.669 OA 
HETATM   16  H   UNL     1     -11.724   9.540  68.090  1.00  0.00     0.000 HD 
HETATM   17  C   UNL     1     -12.633  12.143  70.867  1.00  0.00    -0.247 A  
HETATM   18  O   UNL     1     -13.165  11.873  72.093  1.00  0.00    -0.495 OA 
HETATM   19  C   UNL     1     -12.375  13.475  70.550  1.00  0.00    -0.412 A  
HETATM   20  H   UNL     1     -13.354  12.567  72.713  1.00  0.00     0.000 HD 
ENDBRANCH  10  11
ENDBRANCH   6   9
TORSDOF 2
ENDMDL
MODEL       23
REMARK 921   NORMALIZED FREE ENERGY PREDICTED BY IDOCK:   -6.16 KCAL/MOL
REMARK 922        TOTAL FREE ENERGY PREDICTED BY IDOCK:   -7.20 KCAL/MOL
REMARK 923 INTER-LIGAND FREE ENERGY PREDICTED BY IDOCK:   -6.89 KCAL/MOL
REMARK 924 INTRA-LIGAND FREE ENERGY PREDICTED BY IDOCK:   -0.32 KCAL/MOL
REMARK 927      BINDING AFFINITY PREDICTED BY RF-SCORE:    0.00 PKD
ROOT
HETATM    1  O   UNL     1      -6.429  21.379  67.804  1.00  0.00    -0.445 OA 
HETATM    2  H   UNL     1      -6.756  22.231  67.541  1.00  0.00     0.000 HD 
HETATM    3  C   UNL     1      -7.090  20.231  67.478  1.00  0.00    -0.289 A  
HETATM    4  C   UNL     1      -6.612  18.984  67.863  1.00  0.00    -0.237 A  
HETATM    5  C   UNL     1      -7.307  17.834  67.479  1.00  0.00    -0.209 A  
HETATM    6  C   UNL     1      -8.483  17.923  66.718  1.00  0.00    -0.268 A  
HETATM    7  C   UNL     1      -8.254  20.344  66.730  1.00  0.00    -0.276 A  
HETATM    8  C   UNL     1      -8.947  19.192  66.346  1.00  0.00    -0.356 A  
ENDROOT
BRANCH   6   9
HETATM    9  C   UNL     1      -9.123  16.679  66.257  1.00  0.00    -0.333 C  
HETATM   10  C   UNL     1     -10.277  16.187  66.738  1.00  0.00    -0.281 C  
BRANCH  10  11
HETATM   11  C   UNL     1     -10.937  14.971  66.231  1.00  0.00    -0.338 A  
HETATM   12  C   UNL     1     -11.155  13.835  67.026  1.00  0.00    -0.313 A  
HETATM   13  C   UNL     1     -11.796  12.719  66.487  1.00  0.00    -0.405 A  
HETATM   14  C   UNL     1     -12.243  12.709  65.172  1.00  0.00    -0.539 A  
HETATM   15  O   UNL     1     -12.011  11.595  67.233  1.00  0.00    -0.627 OA 
HETATM   16  H   UNL     1     -12.447  10.835  66.866  1.00  0.00     0.000 HD 
HETATM   17  C   UNL     1     -12.045  13.840  64.391  1.00  0.00    -0.436 A  
HETATM   18  O   UNL     1     -12.468  13.890  63.095  1.00  0.00    -1.121 OA 
HETATM   19  C   UNL     1     -11.404  14.964  64.909  1.00  0.00    -0.415 A  
HETATM   20  H   UNL     1     -12.332  14.664  62.562  1.00  0.00     0.000 HD 
ENDBRANCH  10  11
ENDBRANCH   6   9
TORSDOF 2
ENDMDL
MODEL       24
REMARK 921   NORMALIZED FREE ENERGY PREDICTED BY IDOCK:   -6.15 KCAL/MOL
REMARK 922        TOTAL FREE ENERGY PREDICTED BY IDOCK:   -7.19 KCAL/MOL
REMARK 923 INTER-LIGAND FREE ENERGY PREDICTED BY IDOCK:   -6.86 KCAL/MOL
REMARK 924 INTRA-LIGAND FREE ENERGY PREDICTED BY IDOCK:   -0.33 KCAL/MOL
REMARK 927      BINDING AFFINITY PREDICTED BY RF-SCORE:    0.00 PKD
ROOT
HETATM    1  O   UNL     1     -12.718  11.272  62.771  1.00  0.00    -0.876 OA 
HETATM    2  H   UNL     1     -12.407  10.375  62.730  1.00  0.00     0.000 HD 
HETATM    3  C   UNL     1     -12.079  12.213  63.523  1.00  0.00    -0.550 A  
HETATM    4  C   UNL     1     -12.534  13.525  63.583  1.00  0.00    -0.278 A  
HETATM    5  C   UNL     1     -11.828  14.462  64.342  1.00  0.00    -0.433 A  
HETATM    6  C   UNL     1     -10.673  14.095  65.049  1.00  0.00    -0.429 A  
HETATM    7  C   UNL     1     -10.942  11.825  64.219  1.00  0.00    -0.419 A  
HETATM    8  C   UNL     1     -10.236  12.764  64.977  1.00  0.00    -0.292 A  
ENDROOT
BRANCH   6   9
HETATM    9  C   UNL     1      -9.912  15.140  65.755  1.00  0.00    -0.375 C  
HETATM   10  C   UNL     1     -10.364  16.378  66.008  1.00  0.00    -0.365 C  
BRANCH  10  11
HETATM   11  C   UNL     1      -9.615  17.399  66.763  1.00  0.00    -0.283 A  
HETATM   12  C   UNL     1      -8.571  17.081  67.646  1.00  0.00    -0.213 A  
HETATM   13  C   UNL     1      -7.896  18.096  68.323  1.00  0.00    -0.293 A  
HETATM   14  C   UNL     1      -8.224  19.432  68.132  1.00  0.00    -0.359 A  
HETATM   15  O   UNL     1      -6.885  17.816  69.197  1.00  0.00    -0.251 OA 
HETATM   16  H   UNL     1      -6.425  18.507  69.658  1.00  0.00     0.000 HD 
HETATM   17  C   UNL     1      -9.244  19.749  67.244  1.00  0.00    -0.341 A  
HETATM   18  O   UNL     1      -9.605  21.043  67.011  1.00  0.00    -0.687 OA 
HETATM   19  C   UNL     1      -9.933  18.749  66.559  1.00  0.00    -0.415 A  
HETATM   20  H   UNL     1     -10.302  21.260  66.403  1.00  0.00     0.000 HD 
ENDBRANCH  10  11
ENDBRANCH   6   9
TORSDOF 2
ENDMDL
MODEL       25
REMARK 921   NORMALIZED FREE ENERGY PREDICTED BY IDOCK:   -6.12 KCAL/MOL
REMARK 922        TOTAL FREE ENERGY PREDICTED BY IDOCK:   -7.15 KCAL/MOL
REMARK 923 INTER-LIGAND FREE ENERGY PREDICTED BY IDOCK:   -6.81 KCAL/MOL
REMARK 924 INTRA-LIGAND FREE ENERGY PREDICTED BY IDOCK:   -0.34 KCAL/MOL
REMARK 927      BINDING AFFINITY PREDICTED BY RF-SCORE:    0.00 PKD
ROOT
HETATM    1  O   UNL     1     -12.486  11.343  62.705  1.00  0.00    -0.929 OA 
HETATM    2  H   UNL     1     -12.159  10.453  62.651  1.00  0.00     0.000 HD 
HETATM    3  C   UNL     1     -11.919  12.260  63.543  1.00  0.00    -0.533 A  
HETATM    4  C   UNL     1     -12.398  13.562  63.622  1.00  0.00    -0.377 A  
HETATM    5  C   UNL     1     -11.765  14.475  64.472  1.00  0.00    -0.421 A  
HETATM    6  C   UNL     1     -10.662  14.091  65.249  1.00  0.00    -0.367 A  
HETATM    7  C   UNL     1     -10.833  11.856  64.307  1.00  0.00    -0.396 A  
HETATM    8  C   UNL     1     -10.201  12.770  65.155  1.00  0.00    -0.297 A  
ENDROOT
BRANCH   6   9
HETATM    9  C   UNL     1      -9.973  15.114  66.053  1.00  0.00    -0.335 C  
HETATM   10  C   UNL     1     -10.369  16.392  66.172  1.00  0.00    -0.354 C  
BRANCH  10  11
HETATM   11  C   UNL     1      -9.703  17.394  67.024  1.00  0.00    -0.276 A  
HETATM   12  C   UNL     1     -10.401  18.216  67.921  1.00  0.00    -0.410 A  
HETATM   13  C   UNL     1      -9.709  19.138  68.706  1.00  0.00    -0.430 A  
HETATM   14  C   UNL     1      -8.327  19.254  68.632  1.00  0.00    -0.407 A  
HETATM   15  O   UNL     1     -10.363  19.960  69.579  1.00  0.00    -0.631 OA 
HETATM   16  H   UNL     1      -9.891  20.587  70.113  1.00  0.00     0.000 HD 
HETATM   17  C   UNL     1      -7.633  18.426  67.758  1.00  0.00    -0.231 A  
HETATM   18  O   UNL     1      -6.275  18.491  67.647  1.00  0.00    -0.181 OA 
HETATM   19  C   UNL     1      -8.306  17.501  66.963  1.00  0.00    -0.239 A  
HETATM   20  H   UNL     1      -5.801  17.925  67.050  1.00  0.00     0.000 HD 
ENDBRANCH  10  11
ENDBRANCH   6   9
TORSDOF 2
ENDMDL
MODEL       26
REMARK 921   NORMALIZED FREE ENERGY PREDICTED BY IDOCK:   -6.03 KCAL/MOL
REMARK 922        TOTAL FREE ENERGY PREDICTED BY IDOCK:   -7.06 KCAL/MOL
REMARK 923 INTER-LIGAND FREE ENERGY PREDICTED BY IDOCK:   -6.75 KCAL/MOL
REMARK 924 INTRA-LIGAND FREE ENERGY PREDICTED BY IDOCK:   -0.31 KCAL/MOL
REMARK 927      BINDING AFFINITY PREDICTED BY RF-SCORE:    0.00 PKD
ROOT
HETATM    1  O   UNL     1      -9.456  20.704  66.286  1.00  0.00    -0.633 OA 
HETATM    2  H   UNL     1      -9.455  20.760  65.338  1.00  0.00     0.000 HD 
HETATM    3  C   UNL     1      -9.796  19.551  66.931  1.00  0.00    -0.369 A  
HETATM    4  C   UNL     1      -9.796  19.469  68.318  1.00  0.00    -0.512 A  
HETATM    5  C   UNL     1     -10.121  18.257  68.934  1.00  0.00    -0.358 A  
HETATM    6  C   UNL     1     -10.454  17.127  68.171  1.00  0.00    -0.366 A  
HETATM    7  C   UNL     1     -10.128  18.448  66.156  1.00  0.00    -0.376 A  
HETATM    8  C   UNL     1     -10.451  17.237  66.774  1.00  0.00    -0.261 A  
ENDROOT
BRANCH   6   9
HETATM    9  C   UNL     1     -10.694  15.850  68.864  1.00  0.00    -0.254 C  
HETATM   10  C   UNL     1     -11.891  15.252  68.976  1.00  0.00    -0.342 C  
BRANCH  10  11
HETATM   11  C   UNL     1     -12.111  13.946  69.625  1.00  0.00    -0.404 A  
HETATM   12  C   UNL     1     -12.707  13.814  70.888  1.00  0.00    -0.394 A  
HETATM   13  C   UNL     1     -12.895  12.547  71.442  1.00  0.00    -0.260 A  
HETATM   14  C   UNL     1     -12.516  11.398  70.759  1.00  0.00    -0.460 A  
HETATM   15  O   UNL     1     -13.462  12.388  72.674  1.00  0.00    -0.600 OA 
HETATM   16  H   UNL     1     -13.590  11.526  73.050  1.00  0.00     0.000 HD 
HETATM   17  C   UNL     1     -11.944  11.528  69.500  1.00  0.00    -0.335 A  
HETATM   18  O   UNL     1     -11.558  10.435  68.780  1.00  0.00    -0.452 OA 
HETATM   19  C   UNL     1     -11.744  12.784  68.930  1.00  0.00    -0.370 A  
HETATM   20  H   UNL     1     -11.167  10.525  67.920  1.00  0.00     0.000 HD 
ENDBRANCH  10  11
ENDBRANCH   6   9
TORSDOF 2
ENDMDL
MODEL       27
REMARK 921   NORMALIZED FREE ENERGY PREDICTED BY IDOCK:   -6.00 KCAL/MOL
REMARK 922        TOTAL FREE ENERGY PREDICTED BY IDOCK:   -7.02 KCAL/MOL
REMARK 923 INTER-LIGAND FREE ENERGY PREDICTED BY IDOCK:   -6.68 KCAL/MOL
REMARK 924 INTRA-LIGAND FREE ENERGY PREDICTED BY IDOCK:   -0.34 KCAL/MOL
REMARK 927      BINDING AFFINITY PREDICTED BY RF-SCORE:    0.00 PKD
ROOT
HETATM    1  O   UNL     1      -8.777  18.879  65.756  1.00  0.00    -0.407 OA 
HETATM    2  H   UNL     1      -8.474  18.648  64.886  1.00  0.00     0.000 HD 
HETATM    3  C   UNL     1      -9.501  18.004  66.513  1.00  0.00    -0.301 A  
HETATM    4  C   UNL     1      -9.945  18.343  67.786  1.00  0.00    -0.365 A  
HETATM    5  C   UNL     1     -10.656  17.402  68.536  1.00  0.00    -0.340 A  
HETATM    6  C   UNL     1     -10.934  16.127  68.019  1.00  0.00    -0.338 A  
HETATM    7  C   UNL     1      -9.769  16.752  65.978  1.00  0.00    -0.287 A  
HETATM    8  C   UNL     1     -10.479  15.812  66.731  1.00  0.00    -0.305 A  
ENDROOT
BRANCH   6   9
HETATM    9  C   UNL     1     -11.601  15.141  68.886  1.00  0.00    -0.361 C  
HETATM   10  C   UNL     1     -11.251  13.849  68.988  1.00  0.00    -0.312 C  
BRANCH  10  11
HETATM   11  C   UNL     1     -11.890  12.883  69.900  1.00  0.00    -0.373 A  
HETATM   12  C   UNL     1     -11.734  11.495  69.771  1.00  0.00    -0.426 A  
HETATM   13  C   UNL     1     -12.359  10.635  70.674  1.00  0.00    -0.369 A  
HETATM   14  C   UNL     1     -13.131  11.125  71.720  1.00  0.00    -0.536 A  
HETATM   15  O   UNL     1     -12.235   9.279  70.566  1.00  0.00    -0.479 OA 
HETATM   16  H   UNL     1     -12.661   8.694  71.181  1.00  0.00     0.000 HD 
HETATM   17  C   UNL     1     -13.269  12.500  71.860  1.00  0.00    -0.392 A  
HETATM   18  O   UNL     1     -14.009  13.039  72.872  1.00  0.00    -0.666 OA 
HETATM   19  C   UNL     1     -12.655  13.376  70.967  1.00  0.00    -0.425 A  
HETATM   20  H   UNL     1     -14.104  13.979  72.967  1.00  0.00     0.000 HD 
ENDBRANCH  10  11
ENDBRANCH   6   9
TORSDOF 2
ENDMDL
MODEL       28
REMARK 921   NORMALIZED FREE ENERGY PREDICTED BY IDOCK:   -5.97 KCAL/MOL
REMARK 922        TOTAL FREE ENERGY PREDICTED BY IDOCK:   -6.99 KCAL/MOL
REMARK 923 INTER-LIGAND FREE ENERGY PREDICTED BY IDOCK:   -6.66 KCAL/MOL
REMARK 924 INTRA-LIGAND FREE ENERGY PREDICTED BY IDOCK:   -0.33 KCAL/MOL
REMARK 927      BINDING AFFINITY PREDICTED BY RF-SCORE:    0.00 PKD
ROOT
HETATM    1  O   UNL     1      -8.908  20.215  66.179  1.00  0.00    -0.524 OA 
HETATM    2  H   UNL     1      -8.859  20.143  65.233  1.00  0.00     0.000 HD 
HETATM    3  C   UNL     1      -9.495  19.245  66.937  1.00  0.00    -0.325 A  
HETATM    4  C   UNL     1      -9.565  19.350  68.321  1.00  0.00    -0.454 A  
HETATM    5  C   UNL     1     -10.148  18.315  69.059  1.00  0.00    -0.283 A  
HETATM    6  C   UNL     1     -10.668  17.179  68.421  1.00  0.00    -0.347 A  
HETATM    7  C   UNL     1     -10.008  18.133  66.283  1.00  0.00    -0.342 A  
HETATM    8  C   UNL     1     -10.589  17.098  67.023  1.00  0.00    -0.227 A  
ENDROOT
BRANCH   6   9
HETATM    9  C   UNL     1     -11.183  16.075  69.249  1.00  0.00    -0.346 C  
HETATM   10  C   UNL     1     -11.510  14.857  68.786  1.00  0.00    -0.328 C  
BRANCH  10  11
HETATM   11  C   UNL     1     -11.972  13.743  69.633  1.00  0.00    -0.399 A  
HETATM   12  C   UNL     1     -11.739  12.396  69.313  1.00  0.00    -0.386 A  
HETATM   13  C   UNL     1     -12.196  11.389  70.163  1.00  0.00    -0.321 A  
HETATM   14  C   UNL     1     -12.871  11.688  71.339  1.00  0.00    -0.461 A  
HETATM   15  O   UNL     1     -11.995  10.070  69.873  1.00  0.00    -0.443 OA 
HETATM   16  H   UNL     1     -12.305   9.384  70.451  1.00  0.00     0.000 HD 
HETATM   17  C   UNL     1     -13.084  13.022  71.666  1.00  0.00    -0.347 A  
HETATM   18  O   UNL     1     -13.735  13.376  72.811  1.00  0.00    -0.697 OA 
HETATM   19  C   UNL     1     -12.639  14.043  70.829  1.00  0.00    -0.431 A  
HETATM   20  H   UNL     1     -13.881  14.288  73.033  1.00  0.00     0.000 HD 
ENDBRANCH  10  11
ENDBRANCH   6   9
TORSDOF 2
ENDMDL
MODEL       29
REMARK 921   NORMALIZED FREE ENERGY PREDICTED BY IDOCK:   -5.96 KCAL/MOL
REMARK 922        TOTAL FREE ENERGY PREDICTED BY IDOCK:   -6.97 KCAL/MOL
REMARK 923 INTER-LIGAND FREE ENERGY PREDICTED BY IDOCK:   -6.66 KCAL/MOL
REMARK 924 INTRA-LIGAND FREE ENERGY PREDICTED BY IDOCK:   -0.32 KCAL/MOL
REMARK 927      BINDING AFFINITY PREDICTED BY RF-SCORE:    0.00 PKD
ROOT
HETATM    1  O   UNL     1     -13.194  15.955  70.961  1.00  0.00    -0.593 OA 
HETATM    2  H   UNL     1     -12.762  16.429  70.260  1.00  0.00     0.000 HD 
HETATM    3  C   UNL     1     -13.071  14.602  71.085  1.00  0.00    -0.366 A  
HETATM    4  C   UNL     1     -13.703  13.908  72.111  1.00  0.00    -0.619 A  
HETATM    5  C   UNL     1     -13.522  12.525  72.216  1.00  0.00    -0.490 A  
HETATM    6  C   UNL     1     -12.721  11.831  71.298  1.00  0.00    -0.420 A  
HETATM    7  C   UNL     1     -12.278  13.935  70.161  1.00  0.00    -0.425 A  
HETATM    8  C   UNL     1     -12.098  12.552  70.269  1.00  0.00    -0.373 A  
ENDROOT
BRANCH   6   9
HETATM    9  C   UNL     1     -12.485  10.392  71.509  1.00  0.00    -0.508 C  
HETATM   10  C   UNL     1     -11.513   9.679  70.918  1.00  0.00    -0.427 C  
BRANCH  10  11
HETATM   11  C   UNL     1     -11.252   8.252  71.179  1.00  0.00    -0.296 A  
HETATM   12  C   UNL     1     -11.300   7.692  72.465  1.00  0.00    -0.409 A  
HETATM   13  C   UNL     1     -11.052   6.331  72.642  1.00  0.00    -0.263 A  
HETATM   14  C   UNL     1     -10.769   5.503  71.563  1.00  0.00    -0.290 A  
HETATM   15  O   UNL     1     -11.080   5.760  73.882  1.00  0.00    -0.386 OA 
HETATM   16  H   UNL     1     -10.911   4.833  74.003  1.00  0.00     0.000 HD 
HETATM   17  C   UNL     1     -10.741   6.053  70.288  1.00  0.00    -0.300 A  
HETATM   18  O   UNL     1     -10.475   5.288  69.191  1.00  0.00    -0.219 OA 
HETATM   19  C   UNL     1     -10.983   7.411  70.090  1.00  0.00    -0.272 A  
HETATM   20  H   UNL     1     -10.456   5.665  68.320  1.00  0.00     0.000 HD 
ENDBRANCH  10  11
ENDBRANCH   6   9
TORSDOF 2
ENDMDL
MODEL       30
REMARK 921   NORMALIZED FREE ENERGY PREDICTED BY IDOCK:   -5.95 KCAL/MOL
REMARK 922        TOTAL FREE ENERGY PREDICTED BY IDOCK:   -6.97 KCAL/MOL
REMARK 923 INTER-LIGAND FREE ENERGY PREDICTED BY IDOCK:   -6.64 KCAL/MOL
REMARK 924 INTRA-LIGAND FREE ENERGY PREDICTED BY IDOCK:   -0.33 KCAL/MOL
REMARK 927      BINDING AFFINITY PREDICTED BY RF-SCORE:    0.00 PKD
ROOT
HETATM    1  O   UNL     1     -13.254  16.035  70.802  1.00  0.00    -0.604 OA 
HETATM    2  H   UNL     1     -12.884  16.472  70.044  1.00  0.00     0.000 HD 
HETATM    3  C   UNL     1     -13.111  14.691  70.988  1.00  0.00    -0.367 A  
HETATM    4  C   UNL     1     -13.651  14.052  72.097  1.00  0.00    -0.582 A  
HETATM    5  C   UNL     1     -13.453  12.677  72.261  1.00  0.00    -0.541 A  
HETATM    6  C   UNL     1     -12.723  11.937  71.318  1.00  0.00    -0.401 A  
HETATM    7  C   UNL     1     -12.391  13.978  70.038  1.00  0.00    -0.397 A  
HETATM    8  C   UNL     1     -12.193  12.604  70.205  1.00  0.00    -0.347 A  
ENDROOT
BRANCH   6   9
HETATM    9  C   UNL     1     -12.460  10.513  71.585  1.00  0.00    -0.443 C  
HETATM   10  C   UNL     1     -11.530   9.774  70.960  1.00  0.00    -0.458 C  
BRANCH  10  11
HETATM   11  C   UNL     1     -11.238   8.363  71.274  1.00  0.00    -0.309 A  
HETATM   12  C   UNL     1     -10.978   7.401  70.287  1.00  0.00    -0.272 A  
HETATM   13  C   UNL     1     -10.699   6.084  70.652  1.00  0.00    -0.276 A  
HETATM   14  C   UNL     1     -10.655   5.700  71.986  1.00  0.00    -0.283 A  
HETATM   15  O   UNL     1     -10.455   5.123  69.713  1.00  0.00    -0.285 OA 
HETATM   16  H   UNL     1     -10.264   4.227  69.963  1.00  0.00     0.000 HD 
HETATM   17  C   UNL     1     -10.892   6.657  72.965  1.00  0.00    -0.267 A  
HETATM   18  O   UNL     1     -10.857   6.340  74.291  1.00  0.00    -0.347 OA 
HETATM   19  C   UNL     1     -11.177   7.977  72.621  1.00  0.00    -0.462 A  
HETATM   20  H   UNL     1     -11.019   6.994  74.959  1.00  0.00     0.000 HD 
ENDBRANCH  10  11
ENDBRANCH   6   9
TORSDOF 2
ENDMDL
MODEL       31
REMARK 921   NORMALIZED FREE ENERGY PREDICTED BY IDOCK:   -5.94 KCAL/MOL
REMARK 922        TOTAL FREE ENERGY PREDICTED BY IDOCK:   -6.95 KCAL/MOL
REMARK 923 INTER-LIGAND FREE ENERGY PREDICTED BY IDOCK:   -6.62 KCAL/MOL
REMARK 924 INTRA-LIGAND FREE ENERGY PREDICTED BY IDOCK:   -0.33 KCAL/MOL
REMARK 927      BINDING AFFINITY PREDICTED BY RF-SCORE:    0.00 PKD
ROOT
HETATM    1  O   UNL     1     -11.533  16.487  63.800  1.00  0.00    -1.615 OA 
HETATM    2  H   UNL     1     -10.858  17.152  63.737  1.00  0.00     0.000 HD 
HETATM    3  C   UNL     1     -11.402  15.417  64.636  1.00  0.00    -0.355 A  
HETATM    4  C   UNL     1     -12.390  14.445  64.729  1.00  0.00    -0.427 A  
HETATM    5  C   UNL     1     -12.225  13.382  65.623  1.00  0.00    -0.510 A  
HETATM    6  C   UNL     1     -11.074  13.282  66.419  1.00  0.00    -0.313 A  
HETATM    7  C   UNL     1     -10.252  15.335  65.409  1.00  0.00    -0.414 A  
HETATM    8  C   UNL     1     -10.089  14.273  66.304  1.00  0.00    -0.308 A  
ENDROOT
BRANCH   6   9
HETATM    9  C   UNL     1     -10.993  12.198  67.413  1.00  0.00    -0.308 C  
HETATM   10  C   UNL     1     -11.019  10.887  67.122  1.00  0.00    -0.334 C  
BRANCH  10  11
HETATM   11  C   UNL     1     -10.882   9.811  68.120  1.00  0.00    -0.264 A  
HETATM   12  C   UNL     1     -10.426   8.524  67.795  1.00  0.00    -0.287 A  
HETATM   13  C   UNL     1     -10.309   7.553  68.789  1.00  0.00    -0.200 A  
HETATM   14  C   UNL     1     -10.623   7.835  70.112  1.00  0.00    -0.237 A  
HETATM   15  O   UNL     1      -9.880   6.289  68.500  1.00  0.00    -0.133 OA 
HETATM   16  H   UNL     1      -9.801   5.628  69.177  1.00  0.00     0.000 HD 
HETATM   17  C   UNL     1     -11.056   9.114  70.438  1.00  0.00    -0.253 A  
HETATM   18  O   UNL     1     -11.372   9.450  71.722  1.00  0.00    -0.379 OA 
HETATM   19  C   UNL     1     -11.182  10.098  69.459  1.00  0.00    -0.288 A  
HETATM   20  H   UNL     1     -11.668  10.325  71.944  1.00  0.00     0.000 HD 
ENDBRANCH  10  11
ENDBRANCH   6   9
TORSDOF 2
ENDMDL
MODEL       32
REMARK 921   NORMALIZED FREE ENERGY PREDICTED BY IDOCK:   -5.93 KCAL/MOL
REMARK 922        TOTAL FREE ENERGY PREDICTED BY IDOCK:   -6.94 KCAL/MOL
REMARK 923 INTER-LIGAND FREE ENERGY PREDICTED BY IDOCK:   -6.62 KCAL/MOL
REMARK 924 INTRA-LIGAND FREE ENERGY PREDICTED BY IDOCK:   -0.32 KCAL/MOL
REMARK 927      BINDING AFFINITY PREDICTED BY RF-SCORE:    0.00 PKD
ROOT
HETATM    1  O   UNL     1     -13.333  16.135  73.933  1.00  0.00    -0.924 OA 
HETATM    2  H   UNL     1     -12.958  16.995  74.077  1.00  0.00     0.000 HD 
HETATM    3  C   UNL     1     -13.044  15.410  72.814  1.00  0.00    -0.466 A  
HETATM    4  C   UNL     1     -13.593  14.150  72.605  1.00  0.00    -0.618 A  
HETATM    5  C   UNL     1     -13.243  13.432  71.458  1.00  0.00    -0.395 A  
HETATM    6  C   UNL     1     -12.354  13.968  70.514  1.00  0.00    -0.437 A  
HETATM    7  C   UNL     1     -12.167  15.963  71.892  1.00  0.00    -0.558 A  
HETATM    8  C   UNL     1     -11.817  15.242  70.746  1.00  0.00    -0.381 A  
ENDROOT
BRANCH   6   9
HETATM    9  C   UNL     1     -11.943  13.132  69.373  1.00  0.00    -0.347 C  
HETATM   10  C   UNL     1     -11.037  12.143  69.434  1.00  0.00    -0.183 C  
BRANCH  10  11
HETATM   11  C   UNL     1     -10.674  11.276  68.299  1.00  0.00    -0.231 A  
HETATM   12  C   UNL     1     -10.841   9.883  68.320  1.00  0.00    -0.275 A  
HETATM   13  C   UNL     1     -10.486   9.121  67.207  1.00  0.00    -0.265 A  
HETATM   14  C   UNL     1      -9.978   9.715  66.058  1.00  0.00    -0.344 A  
HETATM   15  O   UNL     1     -10.626   7.762  67.202  1.00  0.00    -0.321 OA 
HETATM   16  H   UNL     1     -10.384   7.244  66.444  1.00  0.00     0.000 HD 
HETATM   17  C   UNL     1      -9.831  11.096  66.030  1.00  0.00    -0.228 A  
HETATM   18  O   UNL     1      -9.344  11.735  64.928  1.00  0.00    -0.417 OA 
HETATM   19  C   UNL     1     -10.177  11.875  67.132  1.00  0.00    -0.230 A  
HETATM   20  H   UNL     1      -9.244  12.679  64.909  1.00  0.00     0.000 HD 
ENDBRANCH  10  11
ENDBRANCH   6   9
TORSDOF 2
ENDMDL
MODEL       33
REMARK 921   NORMALIZED FREE ENERGY PREDICTED BY IDOCK:   -5.89 KCAL/MOL
REMARK 922        TOTAL FREE ENERGY PREDICTED BY IDOCK:   -6.90 KCAL/MOL
REMARK 923 INTER-LIGAND FREE ENERGY PREDICTED BY IDOCK:   -6.58 KCAL/MOL
REMARK 924 INTRA-LIGAND FREE ENERGY PREDICTED BY IDOCK:   -0.32 KCAL/MOL
REMARK 927      BINDING AFFINITY PREDICTED BY RF-SCORE:    0.00 PKD
ROOT
HETATM    1  O   UNL     1      -9.003   8.010  73.130  1.00  0.00    -0.215 OA 
HETATM    2  H   UNL     1      -8.070   7.892  73.264  1.00  0.00     0.000 HD 
HETATM    3  C   UNL     1      -9.488   8.648  72.026  1.00  0.00    -0.300 A  
HETATM    4  C   UNL     1     -10.853   8.821  71.831  1.00  0.00    -0.431 A  
HETATM    5  C   UNL     1     -11.306   9.453  70.669  1.00  0.00    -0.352 A  
HETATM    6  C   UNL     1     -10.401   9.920  69.703  1.00  0.00    -0.265 A  
HETATM    7  C   UNL     1      -8.574   9.107  71.088  1.00  0.00    -0.196 A  
HETATM    8  C   UNL     1      -9.029   9.738  69.926  1.00  0.00    -0.254 A  
ENDROOT
BRANCH   6   9
HETATM    9  C   UNL     1     -10.931  10.491  68.454  1.00  0.00    -0.310 C  
HETATM   10  C   UNL     1     -10.178  10.926  67.430  1.00  0.00    -0.236 C  
BRANCH  10  11
HETATM   11  C   UNL     1     -10.720  11.445  66.161  1.00  0.00    -0.320 A  
HETATM   12  C   UNL     1     -10.330  10.950  64.907  1.00  0.00    -0.371 A  
HETATM   13  C   UNL     1     -10.889  11.479  63.743  1.00  0.00    -0.416 A  
HETATM   14  C   UNL     1     -11.845  12.484  63.796  1.00  0.00    -0.577 A  
HETATM   15  O   UNL     1     -10.519  11.026  62.509  1.00  0.00    -0.644 OA 
HETATM   16  H   UNL     1     -10.900  11.386  61.717  1.00  0.00     0.000 HD 
HETATM   17  C   UNL     1     -12.247  12.960  65.037  1.00  0.00    -0.464 A  
HETATM   18  O   UNL     1     -13.187  13.942  65.150  1.00  0.00    -0.768 OA 
HETATM   19  C   UNL     1     -11.699  12.448  66.212  1.00  0.00    -0.457 A  
HETATM   20  H   UNL     1     -13.461  14.267  66.000  1.00  0.00     0.000 HD 
ENDBRANCH  10  11
ENDBRANCH   6   9
TORSDOF 2
ENDMDL
MODEL       34
REMARK 921   NORMALIZED FREE ENERGY PREDICTED BY IDOCK:   -5.84 KCAL/MOL
REMARK 922        TOTAL FREE ENERGY PREDICTED BY IDOCK:   -6.84 KCAL/MOL
REMARK 923 INTER-LIGAND FREE ENERGY PREDICTED BY IDOCK:   -6.51 KCAL/MOL
REMARK 924 INTRA-LIGAND FREE ENERGY PREDICTED BY IDOCK:   -0.33 KCAL/MOL
REMARK 927      BINDING AFFINITY PREDICTED BY RF-SCORE:    0.00 PKD
ROOT
HETATM    1  O   UNL     1     -13.593  16.301  73.606  1.00  0.00    -0.912 OA 
HETATM    2  H   UNL     1     -13.249  17.184  73.659  1.00  0.00     0.000 HD 
HETATM    3  C   UNL     1     -13.182  15.434  72.636  1.00  0.00    -0.468 A  
HETATM    4  C   UNL     1     -13.685  14.141  72.559  1.00  0.00    -0.626 A  
HETATM    5  C   UNL     1     -13.210  13.278  71.566  1.00  0.00    -0.383 A  
HETATM    6  C   UNL     1     -12.242  13.703  70.644  1.00  0.00    -0.434 A  
HETATM    7  C   UNL     1     -12.228  15.879  71.731  1.00  0.00    -0.551 A  
HETATM    8  C   UNL     1     -11.754  15.014  70.740  1.00  0.00    -0.371 A  
ENDROOT
BRANCH   6   9
HETATM    9  C   UNL     1     -11.705  12.727  69.680  1.00  0.00    -0.372 C  
HETATM   10  C   UNL     1     -11.488  11.429  69.944  1.00  0.00    -0.353 C  
BRANCH  10  11
HETATM   11  C   UNL     1     -11.003  10.449  68.956  1.00  0.00    -0.282 A  
HETATM   12  C   UNL     1     -10.790  10.770  67.606  1.00  0.00    -0.332 A  
HETATM   13  C   UNL     1     -10.319   9.797  66.724  1.00  0.00    -0.218 A  
HETATM   14  C   UNL     1     -10.039   8.507  67.155  1.00  0.00    -0.331 A  
HETATM   15  O   UNL     1     -10.114  10.076  65.403  1.00  0.00    -0.310 OA 
HETATM   16  H   UNL     1      -9.794   9.414  64.802  1.00  0.00     0.000 HD 
HETATM   17  C   UNL     1     -10.230   8.195  68.495  1.00  0.00    -0.208 A  
HETATM   18  O   UNL     1      -9.966   6.946  68.978  1.00  0.00    -0.153 OA 
HETATM   19  C   UNL     1     -10.702   9.151  69.393  1.00  0.00    -0.210 A  
HETATM   20  H   UNL     1     -10.097   6.733  69.894  1.00  0.00     0.000 HD 
ENDBRANCH  10  11
ENDBRANCH   6   9
TORSDOF 2
ENDMDL
MODEL       35
REMARK 921   NORMALIZED FREE ENERGY PREDICTED BY IDOCK:   -5.84 KCAL/MOL
REMARK 922        TOTAL FREE ENERGY PREDICTED BY IDOCK:   -6.84 KCAL/MOL
REMARK 923 INTER-LIGAND FREE ENERGY PREDICTED BY IDOCK:   -6.52 KCAL/MOL
REMARK 924 INTRA-LIGAND FREE ENERGY PREDICTED BY IDOCK:   -0.32 KCAL/MOL
REMARK 927      BINDING AFFINITY PREDICTED BY RF-SCORE:    0.00 PKD
ROOT
HETATM    1  O   UNL     1      -9.015   9.109  63.591  1.00  0.00    -0.420 OA 
HETATM    2  H   UNL     1      -8.643   8.264  63.812  1.00  0.00     0.000 HD 
HETATM    3  C   UNL     1      -9.652   9.872  64.525  1.00  0.00    -0.222 A  
HETATM    4  C   UNL     1     -10.196  11.109  64.201  1.00  0.00    -0.405 A  
HETATM    5  C   UNL     1     -10.813  11.870  65.199  1.00  0.00    -0.350 A  
HETATM    6  C   UNL     1     -10.896  11.398  66.518  1.00  0.00    -0.334 A  
HETATM    7  C   UNL     1      -9.728   9.382  65.821  1.00  0.00    -0.354 A  
HETATM    8  C   UNL     1     -10.344  10.145  66.818  1.00  0.00    -0.285 A  
ENDROOT
BRANCH   6   9
HETATM    9  C   UNL     1     -11.469  12.278  67.550  1.00  0.00    -0.414 C  
HETATM   10  C   UNL     1     -11.343  12.091  68.874  1.00  0.00    -0.333 C  
BRANCH  10  11
HETATM   11  C   UNL     1     -11.873  13.008  69.899  1.00  0.00    -0.377 A  
HETATM   12  C   UNL     1     -11.568  14.377  69.926  1.00  0.00    -0.341 A  
HETATM   13  C   UNL     1     -12.111  15.193  70.919  1.00  0.00    -0.334 A  
HETATM   14  C   UNL     1     -12.969  14.681  71.883  1.00  0.00    -0.406 A  
HETATM   15  O   UNL     1     -11.822  16.527  70.978  1.00  0.00    -0.561 OA 
HETATM   16  H   UNL     1     -12.192  17.082  71.654  1.00  0.00     0.000 HD 
HETATM   17  C   UNL     1     -13.287  13.330  71.844  1.00  0.00    -0.451 A  
HETATM   18  O   UNL     1     -14.129  12.773  72.762  1.00  0.00    -0.666 OA 
HETATM   19  C   UNL     1     -12.753  12.497  70.863  1.00  0.00    -0.270 A  
HETATM   20  H   UNL     1     -14.346  11.849  72.735  1.00  0.00     0.000 HD 
ENDBRANCH  10  11
ENDBRANCH   6   9
TORSDOF 2
ENDMDL
MODEL       36
REMARK 921   NORMALIZED FREE ENERGY PREDICTED BY IDOCK:   -5.80 KCAL/MOL
REMARK 922        TOTAL FREE ENERGY PREDICTED BY IDOCK:   -6.80 KCAL/MOL
REMARK 923 INTER-LIGAND FREE ENERGY PREDICTED BY IDOCK:   -6.49 KCAL/MOL
REMARK 924 INTRA-LIGAND FREE ENERGY PREDICTED BY IDOCK:   -0.31 KCAL/MOL
REMARK 927      BINDING AFFINITY PREDICTED BY RF-SCORE:    0.00 PKD
ROOT
HETATM    1  O   UNL     1     -12.171   8.038  73.099  1.00  0.00    -0.659 OA 
HETATM    2  H   UNL     1     -11.506   7.378  73.250  1.00  0.00     0.000 HD 
HETATM    3  C   UNL     1     -12.063   8.938  72.080  1.00  0.00    -0.371 A  
HETATM    4  C   UNL     1     -13.037   9.904  71.859  1.00  0.00    -0.559 A  
HETATM    5  C   UNL     1     -12.898  10.785  70.782  1.00  0.00    -0.408 A  
HETATM    6  C   UNL     1     -11.785  10.712  69.930  1.00  0.00    -0.395 A  
HETATM    7  C   UNL     1     -10.950   8.851  71.254  1.00  0.00    -0.363 A  
HETATM    8  C   UNL     1     -10.814   9.732  70.177  1.00  0.00    -0.340 A  
ENDROOT
BRANCH   6   9
HETATM    9  C   UNL     1     -11.734  11.598  68.755  1.00  0.00    -0.392 C  
HETATM   10  C   UNL     1     -10.662  12.316  68.382  1.00  0.00    -0.255 C  
BRANCH  10  11
HETATM   11  C   UNL     1     -10.603  13.158  67.173  1.00  0.00    -0.259 A  
HETATM   12  C   UNL     1     -10.456  12.628  65.882  1.00  0.00    -0.295 A  
HETATM   13  C   UNL     1     -10.418  13.479  64.778  1.00  0.00    -0.413 A  
HETATM   14  C   UNL     1     -10.538  14.855  64.925  1.00  0.00    -0.417 A  
HETATM   15  O   UNL     1     -10.264  12.994  63.512  1.00  0.00    -0.602 OA 
HETATM   16  H   UNL     1     -10.237  13.574  62.760  1.00  0.00     0.000 HD 
HETATM   17  C   UNL     1     -10.703  15.379  66.201  1.00  0.00    -0.314 A  
HETATM   18  O   UNL     1     -10.833  16.722  66.405  1.00  0.00    -0.157 OA 
HETATM   19  C   UNL     1     -10.741  14.546  67.317  1.00  0.00    -0.287 A  
HETATM   20  H   UNL     1     -10.946  17.079  67.278  1.00  0.00     0.000 HD 
ENDBRANCH  10  11
ENDBRANCH   6   9
TORSDOF 2
ENDMDL
MODEL       37
REMARK 921   NORMALIZED FREE ENERGY PREDICTED BY IDOCK:   -5.76 KCAL/MOL
REMARK 922        TOTAL FREE ENERGY PREDICTED BY IDOCK:   -6.76 KCAL/MOL
REMARK 923 INTER-LIGAND FREE ENERGY PREDICTED BY IDOCK:   -6.44 KCAL/MOL
REMARK 924 INTRA-LIGAND FREE ENERGY PREDICTED BY IDOCK:   -0.32 KCAL/MOL
REMARK 927      BINDING AFFINITY PREDICTED BY RF-SCORE:    0.00 PKD
ROOT
HETATM    1  O   UNL     1     -10.401  17.182  66.342  1.00  0.00    -0.321 OA 
HETATM    2  H   UNL     1     -10.269  17.090  65.406  1.00  0.00     0.000 HD 
HETATM    3  C   UNL     1     -10.857  16.145  67.102  1.00  0.00    -0.216 A  
HETATM    4  C   UNL     1     -11.050  16.280  68.472  1.00  0.00    -0.368 A  
HETATM    5  C   UNL     1     -11.489  15.179  69.214  1.00  0.00    -0.327 A  
HETATM    6  C   UNL     1     -11.744  13.946  68.594  1.00  0.00    -0.396 A  
HETATM    7  C   UNL     1     -11.109  14.937  66.466  1.00  0.00    -0.341 A  
HETATM    8  C   UNL     1     -11.547  13.837  67.210  1.00  0.00    -0.391 A  
ENDROOT
BRANCH   6   9
HETATM    9  C   UNL     1     -12.111  12.794  69.434  1.00  0.00    -0.248 C  
HETATM   10  C   UNL     1     -11.314  11.742  69.683  1.00  0.00    -0.287 C  
BRANCH  10  11
HETATM   11  C   UNL     1     -11.671  10.620  70.570  1.00  0.00    -0.451 A  
HETATM   12  C   UNL     1     -12.882  10.562  71.276  1.00  0.00    -0.532 A  
HETATM   13  C   UNL     1     -13.162   9.466  72.092  1.00  0.00    -0.460 A  
HETATM   14  C   UNL     1     -12.268   8.410  72.213  1.00  0.00    -0.449 A  
HETATM   15  O   UNL     1     -14.327   9.388  72.801  1.00  0.00    -0.821 OA 
HETATM   16  H   UNL     1     -14.517   8.641  73.356  1.00  0.00     0.000 HD 
HETATM   17  C   UNL     1     -11.078   8.458  71.499  1.00  0.00    -0.266 A  
HETATM   18  O   UNL     1     -10.165   7.447  71.574  1.00  0.00    -0.193 OA 
HETATM   19  C   UNL     1     -10.777   9.545  70.680  1.00  0.00    -0.375 A  
HETATM   20  H   UNL     1      -9.351   7.480  71.085  1.00  0.00     0.000 HD 
ENDBRANCH  10  11
ENDBRANCH   6   9
TORSDOF 2
ENDMDL
MODEL       38
REMARK 921   NORMALIZED FREE ENERGY PREDICTED BY IDOCK:   -5.76 KCAL/MOL
REMARK 922        TOTAL FREE ENERGY PREDICTED BY IDOCK:   -6.75 KCAL/MOL
REMARK 923 INTER-LIGAND FREE ENERGY PREDICTED BY IDOCK:   -6.42 KCAL/MOL
REMARK 924 INTRA-LIGAND FREE ENERGY PREDICTED BY IDOCK:   -0.33 KCAL/MOL
REMARK 927      BINDING AFFINITY PREDICTED BY RF-SCORE:    0.00 PKD
ROOT
HETATM    1  O   UNL     1      -9.098  21.279  67.328  1.00  0.00    -0.522 OA 
HETATM    2  H   UNL     1      -9.811  21.873  67.529  1.00  0.00     0.000 HD 
HETATM    3  C   UNL     1      -9.305  19.938  67.188  1.00  0.00    -0.364 A  
HETATM    4  C   UNL     1      -8.260  19.070  66.895  1.00  0.00    -0.286 A  
HETATM    5  C   UNL     1      -8.527  17.707  66.730  1.00  0.00    -0.274 A  
HETATM    6  C   UNL     1      -9.830  17.206  66.866  1.00  0.00    -0.285 A  
HETATM    7  C   UNL     1     -10.602  19.464  67.333  1.00  0.00    -0.603 A  
HETATM    8  C   UNL     1     -10.866  18.101  67.167  1.00  0.00    -0.212 A  
ENDROOT
BRANCH   6   9
HETATM    9  C   UNL     1     -10.073  15.780  66.587  1.00  0.00    -0.287 C  
HETATM   10  C   UNL     1     -10.579  15.298  65.441  1.00  0.00    -0.413 C  
BRANCH  10  11
HETATM   11  C   UNL     1     -10.767  13.865  65.152  1.00  0.00    -0.371 A  
HETATM   12  C   UNL     1     -11.568  13.398  64.098  1.00  0.00    -0.440 A  
HETATM   13  C   UNL     1     -11.696  12.028  63.873  1.00  0.00    -0.446 A  
HETATM   14  C   UNL     1     -11.030  11.101  64.665  1.00  0.00    -0.238 A  
HETATM   15  O   UNL     1     -12.478  11.544  62.863  1.00  0.00    -0.964 OA 
HETATM   16  H   UNL     1     -12.565  10.611  62.710  1.00  0.00     0.000 HD 
HETATM   17  C   UNL     1     -10.220  11.563  65.695  1.00  0.00    -0.248 A  
HETATM   18  O   UNL     1      -9.537  10.701  66.501  1.00  0.00    -0.172 OA 
HETATM   19  C   UNL     1     -10.082  12.928  65.939  1.00  0.00    -0.295 A  
HETATM   20  H   UNL     1      -8.984  11.017  67.205  1.00  0.00     0.000 HD 
ENDBRANCH  10  11
ENDBRANCH   6   9
TORSDOF 2
ENDMDL
MODEL       39
REMARK 921   NORMALIZED FREE ENERGY PREDICTED BY IDOCK:   -5.76 KCAL/MOL
REMARK 922        TOTAL FREE ENERGY PREDICTED BY IDOCK:   -6.75 KCAL/MOL
REMARK 923 INTER-LIGAND FREE ENERGY PREDICTED BY IDOCK:   -6.40 KCAL/MOL
REMARK 924 INTRA-LIGAND FREE ENERGY PREDICTED BY IDOCK:   -0.35 KCAL/MOL
REMARK 927      BINDING AFFINITY PREDICTED BY RF-SCORE:    0.00 PKD
ROOT
HETATM    1  O   UNL     1     -10.252   9.876  65.005  1.00  0.00    -0.328 OA 
HETATM    2  H   UNL     1     -10.576   9.526  64.183  1.00  0.00     0.000 HD 
HETATM    3  C   UNL     1     -10.183  11.220  65.228  1.00  0.00    -0.274 A  
HETATM    4  C   UNL     1      -9.709  11.731  66.430  1.00  0.00    -0.234 A  
HETATM    5  C   UNL     1      -9.685  13.116  66.625  1.00  0.00    -0.261 A  
HETATM    6  C   UNL     1     -10.125  13.993  65.621  1.00  0.00    -0.342 A  
HETATM    7  C   UNL     1     -10.617  12.068  64.218  1.00  0.00    -0.377 A  
HETATM    8  C   UNL     1     -10.594  13.452  64.416  1.00  0.00    -0.423 A  
ENDROOT
BRANCH   6   9
HETATM    9  C   UNL     1     -10.170  15.436  65.912  1.00  0.00    -0.365 C  
HETATM   10  C   UNL     1     -10.067  15.975  67.138  1.00  0.00    -0.270 C  
BRANCH  10  11
HETATM   11  C   UNL     1     -10.059  17.423  67.412  1.00  0.00    -0.321 A  
HETATM   12  C   UNL     1     -10.186  17.955  68.704  1.00  0.00    -0.387 A  
HETATM   13  C   UNL     1     -10.161  19.336  68.896  1.00  0.00    -0.362 A  
HETATM   14  C   UNL     1      -9.995  20.209  67.829  1.00  0.00    -0.549 A  
HETATM   15  O   UNL     1     -10.294  19.882  70.141  1.00  0.00    -0.579 OA 
HETATM   16  H   UNL     1     -10.277  20.823  70.271  1.00  0.00     0.000 HD 
HETATM   17  C   UNL     1      -9.849  19.683  66.552  1.00  0.00    -0.420 A  
HETATM   18  O   UNL     1      -9.677  20.491  65.467  1.00  0.00    -0.552 OA 
HETATM   19  C   UNL     1      -9.875  18.306  66.338  1.00  0.00    -0.358 A  
HETATM   20  H   UNL     1      -9.577  20.131  64.594  1.00  0.00     0.000 HD 
ENDBRANCH  10  11
ENDBRANCH   6   9
TORSDOF 2
ENDMDL
MODEL       40
REMARK 921   NORMALIZED FREE ENERGY PREDICTED BY IDOCK:   -5.75 KCAL/MOL
REMARK 922        TOTAL FREE ENERGY PREDICTED BY IDOCK:   -6.75 KCAL/MOL
REMARK 923 INTER-LIGAND FREE ENERGY PREDICTED BY IDOCK:   -6.43 KCAL/MOL
REMARK 924 INTRA-LIGAND FREE ENERGY PREDICTED BY IDOCK:   -0.32 KCAL/MOL
REMARK 927      BINDING AFFINITY PREDICTED BY RF-SCORE:    0.00 PKD
ROOT
HETATM    1  O   UNL     1     -13.136  12.585  64.948  1.00  0.00    -0.833 OA 
HETATM    2  H   UNL     1     -13.418  12.457  64.049  1.00  0.00     0.000 HD 
HETATM    3  C   UNL     1     -12.349  13.640  65.303  1.00  0.00    -0.465 A  
HETATM    4  C   UNL     1     -11.937  13.827  66.617  1.00  0.00    -0.469 A  
HETATM    5  C   UNL     1     -11.156  14.941  66.940  1.00  0.00    -0.337 A  
HETATM    6  C   UNL     1     -10.777  15.866  65.954  1.00  0.00    -0.303 A  
HETATM    7  C   UNL     1     -11.981  14.538  64.310  1.00  0.00    -0.419 A  
HETATM    8  C   UNL     1     -11.202  15.653  64.635  1.00  0.00    -0.380 A  
ENDROOT
BRANCH   6   9
HETATM    9  C   UNL     1     -10.037  17.072  66.362  1.00  0.00    -0.325 C  
HETATM   10  C   UNL     1      -8.830  17.068  66.950  1.00  0.00    -0.251 C  
BRANCH  10  11
HETATM   11  C   UNL     1      -8.073  18.283  67.305  1.00  0.00    -0.233 A  
HETATM   12  C   UNL     1      -7.665  18.571  68.616  1.00  0.00    -0.332 A  
HETATM   13  C   UNL     1      -6.943  19.734  68.882  1.00  0.00    -0.332 A  
HETATM   14  C   UNL     1      -6.600  20.618  67.868  1.00  0.00    -0.360 A  
HETATM   15  O   UNL     1      -6.543  20.046  70.150  1.00  0.00    -0.349 OA 
HETATM   16  H   UNL     1      -6.051  20.838  70.331  1.00  0.00     0.000 HD 
HETATM   17  C   UNL     1      -6.987  20.323  66.566  1.00  0.00    -0.247 A  
HETATM   18  O   UNL     1      -6.673  21.151  65.529  1.00  0.00    -0.499 OA 
HETATM   19  C   UNL     1      -7.712  19.168  66.279  1.00  0.00    -0.296 A  
HETATM   20  H   UNL     1      -6.938  20.949  64.639  1.00  0.00     0.000 HD 
ENDBRANCH  10  11
ENDBRANCH   6   9
TORSDOF 2
ENDMDL
MODEL       41
REMARK 921   NORMALIZED FREE ENERGY PREDICTED BY IDOCK:   -5.71 KCAL/MOL
REMARK 922        TOTAL FREE ENERGY PREDICTED BY IDOCK:   -6.69 KCAL/MOL
REMARK 923 INTER-LIGAND FREE ENERGY PREDICTED BY IDOCK:   -6.37 KCAL/MOL
REMARK 924 INTRA-LIGAND FREE ENERGY PREDICTED BY IDOCK:   -0.33 KCAL/MOL
REMARK 927      BINDING AFFINITY PREDICTED BY RF-SCORE:    0.00 PKD
ROOT
HETATM    1  O   UNL     1     -11.099   6.926  73.629  1.00  0.00    -0.518 OA 
HETATM    2  H   UNL     1     -10.298   6.514  73.930  1.00  0.00     0.000 HD 
HETATM    3  C   UNL     1     -11.081   7.903  72.677  1.00  0.00    -0.385 A  
HETATM    4  C   UNL     1     -12.253   8.506  72.236  1.00  0.00    -0.454 A  
HETATM    5  C   UNL     1     -12.189   9.481  71.236  1.00  0.00    -0.433 A  
HETATM    6  C   UNL     1     -10.959   9.862  70.679  1.00  0.00    -0.405 A  
HETATM    7  C   UNL     1      -9.852   8.268  72.145  1.00  0.00    -0.342 A  
HETATM    8  C   UNL     1      -9.790   9.242  71.144  1.00  0.00    -0.342 A  
ENDROOT
BRANCH   6   9
HETATM    9  C   UNL     1     -10.954  10.822  69.562  1.00  0.00    -0.317 C  
HETATM   10  C   UNL     1     -11.610  11.994  69.555  1.00  0.00    -0.389 C  
BRANCH  10  11
HETATM   11  C   UNL     1     -11.554  12.972  68.454  1.00  0.00    -0.370 A  
HETATM   12  C   UNL     1     -11.185  14.313  68.644  1.00  0.00    -0.287 A  
HETATM   13  C   UNL     1     -11.143  15.186  67.556  1.00  0.00    -0.319 A  
HETATM   14  C   UNL     1     -11.447  14.753  66.272  1.00  0.00    -0.316 A  
HETATM   15  O   UNL     1     -10.800  16.498  67.712  1.00  0.00    -0.341 OA 
HETATM   16  H   UNL     1     -10.771  17.092  66.972  1.00  0.00     0.000 HD 
HETATM   17  C   UNL     1     -11.793  13.421  66.081  1.00  0.00    -0.385 A  
HETATM   18  O   UNL     1     -12.095  12.938  64.841  1.00  0.00    -0.379 OA 
HETATM   19  C   UNL     1     -11.844  12.533  67.154  1.00  0.00    -0.386 A  
HETATM   20  H   UNL     1     -12.332  12.027  64.711  1.00  0.00     0.000 HD 
ENDBRANCH  10  11
ENDBRANCH   6   9
TORSDOF 2
ENDMDL
MODEL       42
REMARK 921   NORMALIZED FREE ENERGY PREDICTED BY IDOCK:   -5.67 KCAL/MOL
REMARK 922        TOTAL FREE ENERGY PREDICTED BY IDOCK:   -6.65 KCAL/MOL
REMARK 923 INTER-LIGAND FREE ENERGY PREDICTED BY IDOCK:   -6.32 KCAL/MOL
REMARK 924 INTRA-LIGAND FREE ENERGY PREDICTED BY IDOCK:   -0.34 KCAL/MOL
REMARK 927      BINDING AFFINITY PREDICTED BY RF-SCORE:    0.00 PKD
ROOT
HETATM    1  O   UNL     1     -11.367   9.634  67.448  1.00  0.00    -0.328 OA 
HETATM    2  H   UNL     1     -11.698   9.070  68.137  1.00  0.00     0.000 HD 
HETATM    3  C   UNL     1     -11.343  10.991  67.590  1.00  0.00    -0.281 A  
HETATM    4  C   UNL     1     -10.859  11.816  66.582  1.00  0.00    -0.318 A  
HETATM    5  C   UNL     1     -10.825  13.199  66.785  1.00  0.00    -0.289 A  
HETATM    6  C   UNL     1     -11.279  13.763  67.987  1.00  0.00    -0.293 A  
HETATM    7  C   UNL     1     -11.804  11.527  68.785  1.00  0.00    -0.394 A  
HETATM    8  C   UNL     1     -11.767  12.910  68.986  1.00  0.00    -0.375 A  
ENDROOT
BRANCH   6   9
HETATM    9  C   UNL     1     -11.132  15.215  68.188  1.00  0.00    -0.306 C  
HETATM   10  C   UNL     1     -10.467  16.040  67.363  1.00  0.00    -0.308 C  
BRANCH  10  11
HETATM   11  C   UNL     1     -10.373  17.499  67.545  1.00  0.00    -0.356 A  
HETATM   12  C   UNL     1     -10.380  18.112  68.807  1.00  0.00    -0.270 A  
HETATM   13  C   UNL     1     -10.278  19.499  68.910  1.00  0.00    -0.306 A  
HETATM   14  C   UNL     1     -10.152  20.299  67.782  1.00  0.00    -0.505 A  
HETATM   15  O   UNL     1     -10.295  20.124  70.124  1.00  0.00    -0.635 OA 
HETATM   16  H   UNL     1     -10.225  21.069  70.194  1.00  0.00     0.000 HD 
HETATM   17  C   UNL     1     -10.124  19.691  66.533  1.00  0.00    -0.461 A  
HETATM   18  O   UNL     1      -9.996  20.425  65.390  1.00  0.00    -0.474 OA 
HETATM   19  C   UNL     1     -10.228  18.307  66.408  1.00  0.00    -0.417 A  
HETATM   20  H   UNL     1      -9.977  20.009  64.536  1.00  0.00     0.000 HD 
ENDBRANCH  10  11
ENDBRANCH   6   9
TORSDOF 2
ENDMDL
MODEL       43
REMARK 921   NORMALIZED FREE ENERGY PREDICTED BY IDOCK:   -5.66 KCAL/MOL
REMARK 922        TOTAL FREE ENERGY PREDICTED BY IDOCK:   -6.64 KCAL/MOL
REMARK 923 INTER-LIGAND FREE ENERGY PREDICTED BY IDOCK:   -6.32 KCAL/MOL
REMARK 924 INTRA-LIGAND FREE ENERGY PREDICTED BY IDOCK:   -0.32 KCAL/MOL
REMARK 927      BINDING AFFINITY PREDICTED BY RF-SCORE:    0.00 PKD
ROOT
HETATM    1  O   UNL     1      -9.029   9.112  63.607  1.00  0.00    -0.420 OA 
HETATM    2  H   UNL     1      -8.612   8.296  63.858  1.00  0.00     0.000 HD 
HETATM    3  C   UNL     1      -9.678   9.890  64.520  1.00  0.00    -0.153 A  
HETATM    4  C   UNL     1     -10.287  11.083  64.152  1.00  0.00    -0.434 A  
HETATM    5  C   UNL     1     -10.914  11.863  65.129  1.00  0.00    -0.365 A  
HETATM    6  C   UNL     1     -10.942  11.453  66.471  1.00  0.00    -0.328 A  
HETATM    7  C   UNL     1      -9.698   9.460  65.840  1.00  0.00    -0.355 A  
HETATM    8  C   UNL     1     -10.324  10.242  66.815  1.00  0.00    -0.288 A  
ENDROOT
BRANCH   6   9
HETATM    9  C   UNL     1     -11.530  12.355  67.475  1.00  0.00    -0.410 C  
HETATM   10  C   UNL     1     -11.462  12.172  68.804  1.00  0.00    -0.359 C  
BRANCH  10  11
HETATM   11  C   UNL     1     -12.005  13.110  69.802  1.00  0.00    -0.382 A  
HETATM   12  C   UNL     1     -12.848  12.706  70.848  1.00  0.00    -0.178 A  
HETATM   13  C   UNL     1     -13.321  13.644  71.766  1.00  0.00    -0.388 A  
HETATM   14  C   UNL     1     -12.962  14.983  71.679  1.00  0.00    -0.432 A  
HETATM   15  O   UNL     1     -14.153  13.282  72.787  1.00  0.00    -0.716 OA 
HETATM   16  H   UNL     1     -14.474  13.920  73.412  1.00  0.00     0.000 HD 
HETATM   17  C   UNL     1     -12.111  15.380  70.655  1.00  0.00    -0.369 A  
HETATM   18  O   UNL     1     -11.719  16.680  70.523  1.00  0.00    -0.396 OA 
HETATM   19  C   UNL     1     -11.630  14.459  69.726  1.00  0.00    -0.352 A  
HETATM   20  H   UNL     1     -11.138  16.951  69.823  1.00  0.00     0.000 HD 
ENDBRANCH  10  11
ENDBRANCH   6   9
TORSDOF 2
ENDMDL
MODEL       44
REMARK 921   NORMALIZED FREE ENERGY PREDICTED BY IDOCK:   -5.65 KCAL/MOL
REMARK 922        TOTAL FREE ENERGY PREDICTED BY IDOCK:   -6.63 KCAL/MOL
REMARK 923 INTER-LIGAND FREE ENERGY PREDICTED BY IDOCK:   -6.28 KCAL/MOL
REMARK 924 INTRA-LIGAND FREE ENERGY PREDICTED BY IDOCK:   -0.35 KCAL/MOL
REMARK 927      BINDING AFFINITY PREDICTED BY RF-SCORE:    0.00 PKD
ROOT
HETATM    1  O   UNL     1     -10.841   7.546  73.530  1.00  0.00    -0.435 OA 
HETATM    2  H   UNL     1     -11.394   7.691  74.289  1.00  0.00     0.000 HD 
HETATM    3  C   UNL     1     -11.050   8.215  72.359  1.00  0.00    -0.369 A  
HETATM    4  C   UNL     1     -10.241   8.002  71.249  1.00  0.00    -0.230 A  
HETATM    5  C   UNL     1     -10.474   8.734  70.081  1.00  0.00    -0.230 A  
HETATM    6  C   UNL     1     -11.515   9.672  70.013  1.00  0.00    -0.191 A  
HETATM    7  C   UNL     1     -12.090   9.133  72.314  1.00  0.00    -0.311 A  
HETATM    8  C   UNL     1     -12.320   9.865  71.145  1.00  0.00    -0.466 A  
ENDROOT
BRANCH   6   9
HETATM    9  C   UNL     1     -11.657  10.486  68.794  1.00  0.00    -0.252 C  
HETATM   10  C   UNL     1     -10.673  10.724  67.912  1.00  0.00    -0.282 C  
BRANCH  10  11
HETATM   11  C   UNL     1     -10.840  11.494  66.666  1.00  0.00    -0.335 A  
HETATM   12  C   UNL     1      -9.996  11.339  65.556  1.00  0.00    -0.293 A  
HETATM   13  C   UNL     1     -10.215  12.092  64.402  1.00  0.00    -0.306 A  
HETATM   14  C   UNL     1     -11.270  12.992  64.319  1.00  0.00    -0.411 A  
HETATM   15  O   UNL     1      -9.404  11.972  63.311  1.00  0.00    -0.651 OA 
HETATM   16  H   UNL     1      -9.553  12.485  62.526  1.00  0.00     0.000 HD 
HETATM   17  C   UNL     1     -12.118  13.131  65.411  1.00  0.00    -0.433 A  
HETATM   18  O   UNL     1     -13.173  13.995  65.384  1.00  0.00    -0.761 OA 
HETATM   19  C   UNL     1     -11.914  12.390  66.573  1.00  0.00    -0.325 A  
HETATM   20  H   UNL     1     -13.752  14.089  66.130  1.00  0.00     0.000 HD 
ENDBRANCH  10  11
ENDBRANCH   6   9
TORSDOF 2
ENDMDL
MODEL       45
REMARK 921   NORMALIZED FREE ENERGY PREDICTED BY IDOCK:   -5.62 KCAL/MOL
REMARK 922        TOTAL FREE ENERGY PREDICTED BY IDOCK:   -6.60 KCAL/MOL
REMARK 923 INTER-LIGAND FREE ENERGY PREDICTED BY IDOCK:   -6.27 KCAL/MOL
REMARK 924 INTRA-LIGAND FREE ENERGY PREDICTED BY IDOCK:   -0.33 KCAL/MOL
REMARK 927      BINDING AFFINITY PREDICTED BY RF-SCORE:    0.00 PKD
ROOT
HETATM    1  O   UNL     1      -8.711  21.337  67.204  1.00  0.00    -0.503 OA 
HETATM    2  H   UNL     1      -9.318  21.967  67.574  1.00  0.00     0.000 HD 
HETATM    3  C   UNL     1      -9.036  20.017  67.092  1.00  0.00    -0.363 A  
HETATM    4  C   UNL     1      -8.148  19.095  66.551  1.00  0.00    -0.309 A  
HETATM    5  C   UNL     1      -8.537  17.758  66.428  1.00  0.00    -0.260 A  
HETATM    6  C   UNL     1      -9.807  17.335  66.850  1.00  0.00    -0.287 A  
HETATM    7  C   UNL     1     -10.295  19.620  67.522  1.00  0.00    -0.578 A  
HETATM    8  C   UNL     1     -10.683  18.283  67.397  1.00  0.00    -0.377 A  
ENDROOT
BRANCH   6   9
HETATM    9  C   UNL     1     -10.204  15.937  66.609  1.00  0.00    -0.293 C  
HETATM   10  C   UNL     1     -10.177  15.327  65.413  1.00  0.00    -0.414 C  
BRANCH  10  11
HETATM   11  C   UNL     1     -10.524  13.911  65.193  1.00  0.00    -0.409 A  
HETATM   12  C   UNL     1      -9.934  12.862  65.913  1.00  0.00    -0.273 A  
HETATM   13  C   UNL     1     -10.314  11.543  65.663  1.00  0.00    -0.261 A  
HETATM   14  C   UNL     1     -11.285  11.240  64.717  1.00  0.00    -0.128 A  
HETATM   15  O   UNL     1      -9.748  10.500  66.339  1.00  0.00    -0.184 OA 
HETATM   16  H   UNL     1     -10.007   9.603  66.168  1.00  0.00     0.000 HD 
HETATM   17  C   UNL     1     -11.884  12.281  64.018  1.00  0.00    -0.444 A  
HETATM   18  O   UNL     1     -12.848  12.044  63.082  1.00  0.00    -0.794 OA 
HETATM   19  C   UNL     1     -11.516  13.605  64.251  1.00  0.00    -0.393 A  
HETATM   20  H   UNL     1     -13.257  12.756  62.604  1.00  0.00     0.000 HD 
ENDBRANCH  10  11
ENDBRANCH   6   9
TORSDOF 2
ENDMDL
MODEL       46
REMARK 921   NORMALIZED FREE ENERGY PREDICTED BY IDOCK:   -5.61 KCAL/MOL
REMARK 922        TOTAL FREE ENERGY PREDICTED BY IDOCK:   -6.59 KCAL/MOL
REMARK 923 INTER-LIGAND FREE ENERGY PREDICTED BY IDOCK:   -6.27 KCAL/MOL
REMARK 924 INTRA-LIGAND FREE ENERGY PREDICTED BY IDOCK:   -0.32 KCAL/MOL
REMARK 927      BINDING AFFINITY PREDICTED BY RF-SCORE:    0.00 PKD
ROOT
HETATM    1  O   UNL     1     -11.880   5.205  72.984  1.00  0.00    -0.466 OA 
HETATM    2  H   UNL     1     -11.190   4.852  73.533  1.00  0.00     0.000 HD 
HETATM    3  C   UNL     1     -11.795   6.458  72.450  1.00  0.00    -0.213 A  
HETATM    4  C   UNL     1     -12.804   6.974  71.647  1.00  0.00    -0.408 A  
HETATM    5  C   UNL     1     -12.658   8.251  71.097  1.00  0.00    -0.152 A  
HETATM    6  C   UNL     1     -11.511   9.019  71.351  1.00  0.00    -0.400 A  
HETATM    7  C   UNL     1     -10.654   7.201  72.721  1.00  0.00    -0.303 A  
HETATM    8  C   UNL     1     -10.509   8.478  72.168  1.00  0.00    -0.412 A  
ENDROOT
BRANCH   6   9
HETATM    9  C   UNL     1     -11.362  10.316  70.670  1.00  0.00    -0.431 C  
HETATM   10  C   UNL     1     -12.264  11.310  70.710  1.00  0.00    -0.479 C  
BRANCH  10  11
HETATM   11  C   UNL     1     -12.080  12.626  70.070  1.00  0.00    -0.339 A  
HETATM   12  C   UNL     1     -11.713  12.774  68.724  1.00  0.00    -0.363 A  
HETATM   13  C   UNL     1     -11.565  14.048  68.177  1.00  0.00    -0.334 A  
HETATM   14  C   UNL     1     -11.789  15.189  68.936  1.00  0.00    -0.337 A  
HETATM   15  O   UNL     1     -11.196  14.223  66.874  1.00  0.00    -0.307 OA 
HETATM   16  H   UNL     1     -11.095  15.091  66.501  1.00  0.00     0.000 HD 
HETATM   17  C   UNL     1     -12.173  15.043  70.264  1.00  0.00    -0.340 A  
HETATM   18  O   UNL     1     -12.413  16.127  71.056  1.00  0.00    -0.530 OA 
HETATM   19  C   UNL     1     -12.323  13.779  70.830  1.00  0.00    -0.456 A  
HETATM   20  H   UNL     1     -12.675  16.027  71.963  1.00  0.00     0.000 HD 
ENDBRANCH  10  11
ENDBRANCH   6   9
TORSDOF 2
ENDMDL
MODEL       47
REMARK 921   NORMALIZED FREE ENERGY PREDICTED BY IDOCK:   -5.58 KCAL/MOL
REMARK 922        TOTAL FREE ENERGY PREDICTED BY IDOCK:   -6.56 KCAL/MOL
REMARK 923 INTER-LIGAND FREE ENERGY PREDICTED BY IDOCK:   -6.23 KCAL/MOL
REMARK 924 INTRA-LIGAND FREE ENERGY PREDICTED BY IDOCK:   -0.32 KCAL/MOL
REMARK 927      BINDING AFFINITY PREDICTED BY RF-SCORE:    0.00 PKD
ROOT
HETATM    1  O   UNL     1     -13.254  12.374  64.818  1.00  0.00    -0.784 OA 
HETATM    2  H   UNL     1     -13.581  12.228  63.938  1.00  0.00     0.000 HD 
HETATM    3  C   UNL     1     -12.456  13.441  65.111  1.00  0.00    -0.459 A  
HETATM    4  C   UNL     1     -11.977  13.656  66.398  1.00  0.00    -0.466 A  
HETATM    5  C   UNL     1     -11.188  14.780  66.658  1.00  0.00    -0.346 A  
HETATM    6  C   UNL     1     -10.866  15.687  65.636  1.00  0.00    -0.336 A  
HETATM    7  C   UNL     1     -12.146  14.321  64.083  1.00  0.00    -0.423 A  
HETATM    8  C   UNL     1     -11.357  15.446  64.346  1.00  0.00    -0.246 A  
ENDROOT
BRANCH   6   9
HETATM    9  C   UNL     1     -10.114  16.905  65.982  1.00  0.00    -0.336 C  
HETATM   10  C   UNL     1      -9.068  16.947  66.823  1.00  0.00    -0.266 C  
BRANCH  10  11
HETATM   11  C   UNL     1      -8.287  18.162  67.119  1.00  0.00    -0.244 A  
HETATM   12  C   UNL     1      -7.922  19.092  66.134  1.00  0.00    -0.291 A  
HETATM   13  C   UNL     1      -7.190  20.227  66.483  1.00  0.00    -0.266 A  
HETATM   14  C   UNL     1      -6.821  20.471  67.800  1.00  0.00    -0.363 A  
HETATM   15  O   UNL     1      -6.811  21.143  65.544  1.00  0.00    -0.493 OA 
HETATM   16  H   UNL     1      -6.312  21.916  65.782  1.00  0.00     0.000 HD 
HETATM   17  C   UNL     1      -7.200  19.560  68.778  1.00  0.00    -0.356 A  
HETATM   18  O   UNL     1      -6.871  19.750  70.088  1.00  0.00    -0.232 OA 
HETATM   19  C   UNL     1      -7.928  18.418  68.450  1.00  0.00    -0.325 A  
HETATM   20  H   UNL     1      -7.130  19.127  70.757  1.00  0.00     0.000 HD 
ENDBRANCH  10  11
ENDBRANCH   6   9
TORSDOF 2
ENDMDL
MODEL       48
REMARK 921   NORMALIZED FREE ENERGY PREDICTED BY IDOCK:   -5.56 KCAL/MOL
REMARK 922        TOTAL FREE ENERGY PREDICTED BY IDOCK:   -6.53 KCAL/MOL
REMARK 923 INTER-LIGAND FREE ENERGY PREDICTED BY IDOCK:   -6.19 KCAL/MOL
REMARK 924 INTRA-LIGAND FREE ENERGY PREDICTED BY IDOCK:   -0.34 KCAL/MOL
REMARK 927      BINDING AFFINITY PREDICTED BY RF-SCORE:    0.00 PKD
ROOT
HETATM    1  O   UNL     1     -10.237   4.339  71.160  1.00  0.00    -0.140 OA 
HETATM    2  H   UNL     1     -10.030   3.838  71.940  1.00  0.00     0.000 HD 
HETATM    3  C   UNL     1     -10.680   5.627  71.240  1.00  0.00    -0.244 A  
HETATM    4  C   UNL     1     -10.983   6.361  70.099  1.00  0.00    -0.395 A  
HETATM    5  C   UNL     1     -11.404   7.688  70.229  1.00  0.00    -0.197 A  
HETATM    6  C   UNL     1     -11.532   8.283  71.493  1.00  0.00    -0.325 A  
HETATM    7  C   UNL     1     -10.805   6.193  72.501  1.00  0.00    -0.275 A  
HETATM    8  C   UNL     1     -11.225   7.521  72.629  1.00  0.00    -0.399 A  
ENDROOT
BRANCH   6   9
HETATM    9  C   UNL     1     -11.885   9.711  71.571  1.00  0.00    -0.483 C  
HETATM   10  C   UNL     1     -11.853  10.566  70.536  1.00  0.00    -0.442 C  
BRANCH  10  11
HETATM   11  C   UNL     1     -12.261  11.981  70.612  1.00  0.00    -0.409 A  
HETATM   12  C   UNL     1     -12.935  12.520  71.719  1.00  0.00    -0.419 A  
HETATM   13  C   UNL     1     -13.285  13.871  71.732  1.00  0.00    -0.376 A  
HETATM   14  C   UNL     1     -12.966  14.708  70.671  1.00  0.00    -0.367 A  
HETATM   15  O   UNL     1     -13.951  14.421  72.790  1.00  0.00    -0.569 OA 
HETATM   16  H   UNL     1     -14.189  15.340  72.799  1.00  0.00     0.000 HD 
HETATM   17  C   UNL     1     -12.282  14.179  69.584  1.00  0.00    -0.326 A  
HETATM   18  O   UNL     1     -11.937  14.955  68.517  1.00  0.00    -0.486 OA 
HETATM   19  C   UNL     1     -11.926  12.832  69.550  1.00  0.00    -0.338 A  
HETATM   20  H   UNL     1     -11.470  14.592  67.774  1.00  0.00     0.000 HD 
ENDBRANCH  10  11
ENDBRANCH   6   9
TORSDOF 2
ENDMDL
MODEL       49
REMARK 921   NORMALIZED FREE ENERGY PREDICTED BY IDOCK:   -5.53 KCAL/MOL
REMARK 922        TOTAL FREE ENERGY PREDICTED BY IDOCK:   -6.50 KCAL/MOL
REMARK 923 INTER-LIGAND FREE ENERGY PREDICTED BY IDOCK:   -6.17 KCAL/MOL
REMARK 924 INTRA-LIGAND FREE ENERGY PREDICTED BY IDOCK:   -0.34 KCAL/MOL
REMARK 927      BINDING AFFINITY PREDICTED BY RF-SCORE:    0.00 PKD
ROOT
HETATM    1  O   UNL     1     -10.270   4.082  71.369  1.00  0.00    -0.125 OA 
HETATM    2  H   UNL     1     -10.305   3.596  70.554  1.00  0.00     0.000 HD 
HETATM    3  C   UNL     1     -10.512   5.424  71.409  1.00  0.00    -0.226 A  
HETATM    4  C   UNL     1     -10.461   6.135  72.601  1.00  0.00    -0.233 A  
HETATM    5  C   UNL     1     -10.747   7.504  72.597  1.00  0.00    -0.354 A  
HETATM    6  C   UNL     1     -11.076   8.168  71.405  1.00  0.00    -0.291 A  
HETATM    7  C   UNL     1     -10.829   6.060  70.216  1.00  0.00    -0.398 A  
HETATM    8  C   UNL     1     -11.117   7.429  70.214  1.00  0.00    -0.278 A  
ENDROOT
BRANCH   6   9
HETATM    9  C   UNL     1     -11.463   9.587  71.469  1.00  0.00    -0.466 C  
HETATM   10  C   UNL     1     -11.755  10.351  70.404  1.00  0.00    -0.419 C  
BRANCH  10  11
HETATM   11  C   UNL     1     -12.195  11.756  70.483  1.00  0.00    -0.438 A  
HETATM   12  C   UNL     1     -11.906  12.702  69.487  1.00  0.00    -0.376 A  
HETATM   13  C   UNL     1     -12.360  14.014  69.619  1.00  0.00    -0.260 A  
HETATM   14  C   UNL     1     -13.113  14.410  70.717  1.00  0.00    -0.344 A  
HETATM   15  O   UNL     1     -12.085  14.959  68.672  1.00  0.00    -0.531 OA 
HETATM   16  H   UNL     1     -12.395  15.852  68.762  1.00  0.00     0.000 HD 
HETATM   17  C   UNL     1     -13.416  13.469  71.693  1.00  0.00    -0.308 A  
HETATM   18  O   UNL     1     -14.157  13.798  72.790  1.00  0.00    -0.694 OA 
HETATM   19  C   UNL     1     -12.969  12.153  71.582  1.00  0.00    -0.427 A  
HETATM   20  H   UNL     1     -14.363  13.155  73.457  1.00  0.00     0.000 HD 
ENDBRANCH  10  11
ENDBRANCH   6   9
TORSDOF 2
ENDMDL
MODEL       50
REMARK 921   NORMALIZED FREE ENERGY PREDICTED BY IDOCK:   -5.52 KCAL/MOL
REMARK 922        TOTAL FREE ENERGY PREDICTED BY IDOCK:   -6.48 KCAL/MOL
REMARK 923 INTER-LIGAND FREE ENERGY PREDICTED BY IDOCK:   -6.15 KCAL/MOL
REMARK 924 INTRA-LIGAND FREE ENERGY PREDICTED BY IDOCK:   -0.34 KCAL/MOL
REMARK 927      BINDING AFFINITY PREDICTED BY RF-SCORE:    0.00 PKD
ROOT
HETATM    1  O   UNL     1     -12.370  14.048  62.975  1.00  0.00    -1.101 OA 
HETATM    2  H   UNL     1     -12.921  14.818  63.049  1.00  0.00     0.000 HD 
HETATM    3  C   UNL     1     -11.994  13.334  64.074  1.00  0.00    -0.465 A  
HETATM    4  C   UNL     1     -11.187  12.207  63.965  1.00  0.00    -0.458 A  
HETATM    5  C   UNL     1     -10.854  11.488  65.118  1.00  0.00    -0.326 A  
HETATM    6  C   UNL     1     -11.314  11.894  66.379  1.00  0.00    -0.400 A  
HETATM    7  C   UNL     1     -12.456  13.758  65.312  1.00  0.00    -0.512 A  
HETATM    8  C   UNL     1     -12.122  13.037  66.463  1.00  0.00    -0.410 A  
ENDROOT
BRANCH   6   9
HETATM    9  C   UNL     1     -11.015  11.049  67.548  1.00  0.00    -0.338 C  
HETATM   10  C   UNL     1     -10.604   9.773  67.486  1.00  0.00    -0.335 C  
BRANCH  10  11
HETATM   11  C   UNL     1     -10.254   8.953  68.660  1.00  0.00    -0.221 A  
HETATM   12  C   UNL     1      -9.680   9.492  69.821  1.00  0.00    -0.234 A  
HETATM   13  C   UNL     1      -9.381   8.662  70.902  1.00  0.00    -0.189 A  
HETATM   14  C   UNL     1      -9.656   7.301  70.863  1.00  0.00    -0.170 A  
HETATM   15  O   UNL     1      -8.811   9.156  72.040  1.00  0.00    -0.331 OA 
HETATM   16  H   UNL     1      -8.608   8.591  72.776  1.00  0.00     0.000 HD 
HETATM   17  C   UNL     1     -10.243   6.771  69.721  1.00  0.00    -0.187 A  
HETATM   18  O   UNL     1     -10.541   5.443  69.629  1.00  0.00    -0.298 OA 
HETATM   19  C   UNL     1     -10.546   7.582  68.629  1.00  0.00    -0.171 A  
HETATM   20  H   UNL     1     -10.943   5.081  68.848  1.00  0.00     0.000 HD 
ENDBRANCH  10  11
ENDBRANCH   6   9
TORSDOF 2
ENDMDL
MODEL       51
REMARK 921   NORMALIZED FREE ENERGY PREDICTED BY IDOCK:   -5.51 KCAL/MOL
REMARK 922        TOTAL FREE ENERGY PREDICTED BY IDOCK:   -6.48 KCAL/MOL
REMARK 923 INTER-LIGAND FREE ENERGY PREDICTED BY IDOCK:   -6.17 KCAL/MOL
REMARK 924 INTRA-LIGAND FREE ENERGY PREDICTED BY IDOCK:   -0.31 KCAL/MOL
REMARK 927      BINDING AFFINITY PREDICTED BY RF-SCORE:    0.00 PKD
ROOT
HETATM    1  O   UNL     1     -10.379   9.852  64.156  1.00  0.00    -0.308 OA 
HETATM    2  H   UNL     1      -9.815   9.243  64.617  1.00  0.00     0.000 HD 
HETATM    3  C   UNL     1     -10.408  11.178  64.477  1.00  0.00    -0.337 A  
HETATM    4  C   UNL     1     -11.233  12.069  63.801  1.00  0.00    -0.516 A  
HETATM    5  C   UNL     1     -11.206  13.424  64.145  1.00  0.00    -0.379 A  
HETATM    6  C   UNL     1     -10.364  13.893  65.166  1.00  0.00    -0.403 A  
HETATM    7  C   UNL     1      -9.572  11.617  65.494  1.00  0.00    -0.241 A  
HETATM    8  C   UNL     1      -9.545  12.973  65.835  1.00  0.00    -0.126 A  
ENDROOT
BRANCH   6   9
HETATM    9  C   UNL     1     -10.302  15.341  65.423  1.00  0.00    -0.421 C  
HETATM   10  C   UNL     1     -10.457  15.914  66.628  1.00  0.00    -0.306 C  
BRANCH  10  11
HETATM   11  C   UNL     1     -10.338  17.361  66.883  1.00  0.00    -0.317 A  
HETATM   12  C   UNL     1     -10.340  18.318  65.857  1.00  0.00    -0.297 A  
HETATM   13  C   UNL     1     -10.234  19.674  66.168  1.00  0.00    -0.508 A  
HETATM   14  C   UNL     1     -10.139  20.107  67.484  1.00  0.00    -0.549 A  
HETATM   15  O   UNL     1     -10.221  20.627  65.190  1.00  0.00    -0.197 OA 
HETATM   16  H   UNL     1     -10.148  21.550  65.402  1.00  0.00     0.000 HD 
HETATM   17  C   UNL     1     -10.157  19.160  68.501  1.00  0.00    -0.422 A  
HETATM   18  O   UNL     1     -10.075  19.527  69.812  1.00  0.00    -0.459 OA 
HETATM   19  C   UNL     1     -10.260  17.801  68.212  1.00  0.00    -0.382 A  
HETATM   20  H   UNL     1     -10.087  18.880  70.507  1.00  0.00     0.000 HD 
ENDBRANCH  10  11
ENDBRANCH   6   9
TORSDOF 2
ENDMDL
MODEL       52
REMARK 921   NORMALIZED FREE ENERGY PREDICTED BY IDOCK:   -5.46 KCAL/MOL
REMARK 922        TOTAL FREE ENERGY PREDICTED BY IDOCK:   -6.42 KCAL/MOL
REMARK 923 INTER-LIGAND FREE ENERGY PREDICTED BY IDOCK:   -6.09 KCAL/MOL
REMARK 924 INTRA-LIGAND FREE ENERGY PREDICTED BY IDOCK:   -0.33 KCAL/MOL
REMARK 927      BINDING AFFINITY PREDICTED BY RF-SCORE:    0.00 PKD
ROOT
HETATM    1  O   UNL     1     -11.350   6.183  71.262  1.00  0.00    -0.292 OA 
HETATM    2  H   UNL     1     -11.334   5.284  70.955  1.00  0.00     0.000 HD 
HETATM    3  C   UNL     1     -11.071   7.225  70.427  1.00  0.00    -0.268 A  
HETATM    4  C   UNL     1     -11.095   8.540  70.877  1.00  0.00    -0.295 A  
HETATM    5  C   UNL     1     -10.832   9.577  69.976  1.00  0.00    -0.286 A  
HETATM    6  C   UNL     1     -10.537   9.308  68.631  1.00  0.00    -0.219 A  
HETATM    7  C   UNL     1     -10.775   6.934  69.103  1.00  0.00    -0.262 A  
HETATM    8  C   UNL     1     -10.514   7.973  68.204  1.00  0.00    -0.222 A  
ENDROOT
BRANCH   6   9
HETATM    9  C   UNL     1     -10.363  10.438  67.704  1.00  0.00    -0.260 C  
HETATM   10  C   UNL     1     -11.341  11.279  67.328  1.00  0.00    -0.329 C  
BRANCH  10  11
HETATM   11  C   UNL     1     -11.144  12.441  66.442  1.00  0.00    -0.343 A  
HETATM   12  C   UNL     1     -11.917  12.661  65.292  1.00  0.00    -0.487 A  
HETATM   13  C   UNL     1     -11.686  13.786  64.501  1.00  0.00    -0.407 A  
HETATM   14  C   UNL     1     -10.708  14.714  64.836  1.00  0.00    -0.447 A  
HETATM   15  O   UNL     1     -12.414  14.021  63.370  1.00  0.00    -1.108 OA 
HETATM   16  H   UNL     1     -12.256  14.787  62.831  1.00  0.00     0.000 HD 
HETATM   17  C   UNL     1      -9.957  14.507  65.986  1.00  0.00    -0.322 A  
HETATM   18  O   UNL     1      -8.987  15.388  66.368  1.00  0.00    -0.281 OA 
HETATM   19  C   UNL     1     -10.170  13.387  66.788  1.00  0.00    -0.259 A  
HETATM   20  H   UNL     1      -8.474  15.245  67.154  1.00  0.00     0.000 HD 
ENDBRANCH  10  11
ENDBRANCH   6   9
TORSDOF 2
ENDMDL
MODEL       53
REMARK 921   NORMALIZED FREE ENERGY PREDICTED BY IDOCK:   -5.46 KCAL/MOL
REMARK 922        TOTAL FREE ENERGY PREDICTED BY IDOCK:   -6.42 KCAL/MOL
REMARK 923 INTER-LIGAND FREE ENERGY PREDICTED BY IDOCK:   -6.09 KCAL/MOL
REMARK 924 INTRA-LIGAND FREE ENERGY PREDICTED BY IDOCK:   -0.33 KCAL/MOL
REMARK 927      BINDING AFFINITY PREDICTED BY RF-SCORE:    0.00 PKD
ROOT
HETATM    1  O   UNL     1      -9.900   5.390  70.779  1.00  0.00    -0.170 OA 
HETATM    2  H   UNL     1      -9.943   4.907  71.596  1.00  0.00     0.000 HD 
HETATM    3  C   UNL     1     -10.304   6.691  70.699  1.00  0.00    -0.202 A  
HETATM    4  C   UNL     1     -10.240   7.397  69.504  1.00  0.00    -0.204 A  
HETATM    5  C   UNL     1     -10.636   8.738  69.478  1.00  0.00    -0.224 A  
HETATM    6  C   UNL     1     -11.104   9.374  70.637  1.00  0.00    -0.351 A  
HETATM    7  C   UNL     1     -10.769   7.298  71.858  1.00  0.00    -0.243 A  
HETATM    8  C   UNL     1     -11.163   8.639  71.829  1.00  0.00    -0.396 A  
ENDROOT
BRANCH   6   9
HETATM    9  C   UNL     1     -11.417  10.812  70.578  1.00  0.00    -0.367 C  
HETATM   10  C   UNL     1     -12.409  11.409  71.258  1.00  0.00    -0.344 C  
BRANCH  10  11
HETATM   11  C   UNL     1     -12.679  12.859  71.235  1.00  0.00    -0.371 A  
HETATM   12  C   UNL     1     -13.247  13.545  72.319  1.00  0.00    -0.571 A  
HETATM   13  C   UNL     1     -13.467  14.920  72.235  1.00  0.00    -0.409 A  
HETATM   14  C   UNL     1     -13.121  15.638  71.098  1.00  0.00    -0.523 A  
HETATM   15  O   UNL     1     -14.030  15.613  73.269  1.00  0.00    -0.562 OA 
HETATM   16  H   UNL     1     -14.180  16.549  73.212  1.00  0.00     0.000 HD 
HETATM   17  C   UNL     1     -12.541  14.962  70.032  1.00  0.00    -0.218 A  
HETATM   18  O   UNL     1     -12.174  15.616  68.893  1.00  0.00    -0.587 OA 
HETATM   19  C   UNL     1     -12.314  13.588  70.094  1.00  0.00    -0.345 A  
HETATM   20  H   UNL     1     -11.777  15.153  68.165  1.00  0.00     0.000 HD 
ENDBRANCH  10  11
ENDBRANCH   6   9
TORSDOF 2
ENDMDL
MODEL       54
REMARK 921   NORMALIZED FREE ENERGY PREDICTED BY IDOCK:   -5.45 KCAL/MOL
REMARK 922        TOTAL FREE ENERGY PREDICTED BY IDOCK:   -6.41 KCAL/MOL
REMARK 923 INTER-LIGAND FREE ENERGY PREDICTED BY IDOCK:   -6.08 KCAL/MOL
REMARK 924 INTRA-LIGAND FREE ENERGY PREDICTED BY IDOCK:   -0.33 KCAL/MOL
REMARK 927      BINDING AFFINITY PREDICTED BY RF-SCORE:    0.00 PKD
ROOT
HETATM    1  O   UNL     1     -12.011  16.118  63.582  1.00  0.00    -1.375 OA 
HETATM    2  H   UNL     1     -11.417  16.811  63.320  1.00  0.00     0.000 HD 
HETATM    3  C   UNL     1     -11.686  15.238  64.573  1.00  0.00    -0.305 A  
HETATM    4  C   UNL     1     -12.556  14.224  64.956  1.00  0.00    -0.360 A  
HETATM    5  C   UNL     1     -12.191  13.365  65.997  1.00  0.00    -0.491 A  
HETATM    6  C   UNL     1     -10.959  13.509  66.653  1.00  0.00    -0.293 A  
HETATM    7  C   UNL     1     -10.458  15.396  65.202  1.00  0.00    -0.439 A  
HETATM    8  C   UNL     1     -10.097  14.536  66.245  1.00  0.00    -0.308 A  
ENDROOT
BRANCH   6   9
HETATM    9  C   UNL     1     -10.665  12.641  67.806  1.00  0.00    -0.239 C  
HETATM   10  C   UNL     1     -11.275  11.473  68.061  1.00  0.00    -0.335 C  
BRANCH  10  11
HETATM   11  C   UNL     1     -10.935  10.585  69.188  1.00  0.00    -0.286 A  
HETATM   12  C   UNL     1     -11.906   9.933  69.965  1.00  0.00    -0.131 A  
HETATM   13  C   UNL     1     -11.516   9.098  71.012  1.00  0.00    -0.306 A  
HETATM   14  C   UNL     1     -10.175   8.881  71.300  1.00  0.00    -0.361 A  
HETATM   15  O   UNL     1     -12.438   8.461  71.792  1.00  0.00    -0.304 OA 
HETATM   16  H   UNL     1     -12.172   7.892  72.505  1.00  0.00     0.000 HD 
HETATM   17  C   UNL     1      -9.214   9.510  70.519  1.00  0.00    -0.225 A  
HETATM   18  O   UNL     1      -7.882   9.329  70.751  1.00  0.00    -0.142 OA 
HETATM   19  C   UNL     1      -9.582  10.351  69.470  1.00  0.00    -0.182 A  
HETATM   20  H   UNL     1      -7.225   9.759  70.216  1.00  0.00     0.000 HD 
ENDBRANCH  10  11
ENDBRANCH   6   9
TORSDOF 2
ENDMDL
MODEL       55
REMARK 921   NORMALIZED FREE ENERGY PREDICTED BY IDOCK:   -5.45 KCAL/MOL
REMARK 922        TOTAL FREE ENERGY PREDICTED BY IDOCK:   -6.41 KCAL/MOL
REMARK 923 INTER-LIGAND FREE ENERGY PREDICTED BY IDOCK:   -6.09 KCAL/MOL
REMARK 924 INTRA-LIGAND FREE ENERGY PREDICTED BY IDOCK:   -0.32 KCAL/MOL
REMARK 927      BINDING AFFINITY PREDICTED BY RF-SCORE:    0.00 PKD
ROOT
HETATM    1  O   UNL     1     -11.771   5.499  72.795  1.00  0.00    -0.427 OA 
HETATM    2  H   UNL     1     -11.651   4.638  72.411  1.00  0.00     0.000 HD 
HETATM    3  C   UNL     1     -11.495   6.636  72.094  1.00  0.00    -0.287 A  
HETATM    4  C   UNL     1     -11.671   7.895  72.656  1.00  0.00    -0.398 A  
HETATM    5  C   UNL     1     -11.405   9.032  71.888  1.00  0.00    -0.438 A  
HETATM    6  C   UNL     1     -10.955   8.919  70.564  1.00  0.00    -0.280 A  
HETATM    7  C   UNL     1     -11.045   6.499  70.788  1.00  0.00    -0.354 A  
HETATM    8  C   UNL     1     -10.780   7.638  70.021  1.00  0.00    -0.245 A  
ENDROOT
BRANCH   6   9
HETATM    9  C   UNL     1     -10.781  10.146  69.768  1.00  0.00    -0.317 C  
HETATM   10  C   UNL     1     -11.370  10.381  68.584  1.00  0.00    -0.277 C  
BRANCH  10  11
HETATM   11  C   UNL     1     -11.233  11.636  67.821  1.00  0.00    -0.333 A  
HETATM   12  C   UNL     1     -10.594  11.703  66.574  1.00  0.00    -0.292 A  
HETATM   13  C   UNL     1     -10.507  12.921  65.899  1.00  0.00    -0.279 A  
HETATM   14  C   UNL     1     -11.057  14.080  66.431  1.00  0.00    -0.316 A  
HETATM   15  O   UNL     1      -9.881  13.020  64.690  1.00  0.00    -0.566 OA 
HETATM   16  H   UNL     1      -9.821  13.849  64.231  1.00  0.00     0.000 HD 
HETATM   17  C   UNL     1     -11.707  14.010  67.657  1.00  0.00    -0.377 A  
HETATM   18  O   UNL     1     -12.272  15.114  68.224  1.00  0.00    -0.552 OA 
HETATM   19  C   UNL     1     -11.803  12.804  68.348  1.00  0.00    -0.353 A  
HETATM   20  H   UNL     1     -12.716  15.066  69.062  1.00  0.00     0.000 HD 
ENDBRANCH  10  11
ENDBRANCH   6   9
TORSDOF 2
ENDMDL
MODEL       56
REMARK 921   NORMALIZED FREE ENERGY PREDICTED BY IDOCK:   -5.44 KCAL/MOL
REMARK 922        TOTAL FREE ENERGY PREDICTED BY IDOCK:   -6.40 KCAL/MOL
REMARK 923 INTER-LIGAND FREE ENERGY PREDICTED BY IDOCK:   -6.07 KCAL/MOL
REMARK 924 INTRA-LIGAND FREE ENERGY PREDICTED BY IDOCK:   -0.34 KCAL/MOL
REMARK 927      BINDING AFFINITY PREDICTED BY RF-SCORE:    0.00 PKD
ROOT
HETATM    1  O   UNL     1      -9.831  16.601  67.110  1.00  0.00    -0.246 OA 
HETATM    2  H   UNL     1      -8.904  16.701  66.928  1.00  0.00     0.000 HD 
HETATM    3  C   UNL     1     -10.330  15.454  67.654  1.00  0.00    -0.262 A  
HETATM    4  C   UNL     1     -11.686  15.308  67.919  1.00  0.00    -0.233 A  
HETATM    5  C   UNL     1     -12.147  14.125  68.506  1.00  0.00    -0.312 A  
HETATM    6  C   UNL     1     -11.260  13.084  68.822  1.00  0.00    -0.325 A  
HETATM    7  C   UNL     1      -9.435  14.435  67.951  1.00  0.00    -0.214 A  
HETATM    8  C   UNL     1      -9.898  13.254  68.540  1.00  0.00    -0.169 A  
ENDROOT
BRANCH   6   9
HETATM    9  C   UNL     1     -11.781  11.900  69.526  1.00  0.00    -0.410 C  
HETATM   10  C   UNL     1     -11.074  10.787  69.782  1.00  0.00    -0.346 C  
BRANCH  10  11
HETATM   11  C   UNL     1     -11.587   9.630  70.537  1.00  0.00    -0.341 A  
HETATM   12  C   UNL     1     -11.129   8.320  70.328  1.00  0.00    -0.220 A  
HETATM   13  C   UNL     1     -11.650   7.270  71.083  1.00  0.00    -0.293 A  
HETATM   14  C   UNL     1     -12.613   7.492  72.059  1.00  0.00    -0.268 A  
HETATM   15  O   UNL     1     -11.233   5.984  70.894  1.00  0.00    -0.299 OA 
HETATM   16  H   UNL     1     -11.588   5.269  71.408  1.00  0.00     0.000 HD 
HETATM   17  C   UNL     1     -13.053   8.791  72.280  1.00  0.00    -0.409 A  
HETATM   18  O   UNL     1     -13.992   9.071  73.229  1.00  0.00    -1.205 OA 
HETATM   19  C   UNL     1     -12.547   9.855  71.534  1.00  0.00    -0.513 A  
HETATM   20  H   UNL     1     -14.292   9.959  73.380  1.00  0.00     0.000 HD 
ENDBRANCH  10  11
ENDBRANCH   6   9
TORSDOF 2
ENDMDL
MODEL       57
REMARK 921   NORMALIZED FREE ENERGY PREDICTED BY IDOCK:   -5.44 KCAL/MOL
REMARK 922        TOTAL FREE ENERGY PREDICTED BY IDOCK:   -6.39 KCAL/MOL
REMARK 923 INTER-LIGAND FREE ENERGY PREDICTED BY IDOCK:   -6.08 KCAL/MOL
REMARK 924 INTRA-LIGAND FREE ENERGY PREDICTED BY IDOCK:   -0.31 KCAL/MOL
REMARK 927      BINDING AFFINITY PREDICTED BY RF-SCORE:    0.00 PKD
ROOT
HETATM    1  O   UNL     1     -10.160   9.862  63.545  1.00  0.00    -0.401 OA 
HETATM    2  H   UNL     1      -9.559   9.242  63.941  1.00  0.00     0.000 HD 
HETATM    3  C   UNL     1     -10.404  11.078  64.112  1.00  0.00    -0.369 A  
HETATM    4  C   UNL     1     -11.283  11.985  63.532  1.00  0.00    -0.526 A  
HETATM    5  C   UNL     1     -11.478  13.232  64.133  1.00  0.00    -0.438 A  
HETATM    6  C   UNL     1     -10.804  13.575  65.316  1.00  0.00    -0.316 A  
HETATM    7  C   UNL     1      -9.732  11.393  65.285  1.00  0.00    -0.276 A  
HETATM    8  C   UNL     1      -9.927  12.642  65.883  1.00  0.00    -0.274 A  
ENDROOT
BRANCH   6   9
HETATM    9  C   UNL     1     -10.970  14.936  65.855  1.00  0.00    -0.338 C  
HETATM   10  C   UNL     1      -9.961  15.743  66.221  1.00  0.00    -0.315 C  
BRANCH  10  11
HETATM   11  C   UNL     1     -10.136  17.124  66.708  1.00  0.00    -0.303 A  
HETATM   12  C   UNL     1     -10.097  17.462  68.070  1.00  0.00    -0.326 A  
HETATM   13  C   UNL     1     -10.260  18.790  68.464  1.00  0.00    -0.344 A  
HETATM   14  C   UNL     1     -10.446  19.801  67.530  1.00  0.00    -0.569 A  
HETATM   15  O   UNL     1     -10.239  19.147  69.781  1.00  0.00    -0.330 OA 
HETATM   16  H   UNL     1     -10.350  20.052  70.049  1.00  0.00     0.000 HD 
HETATM   17  C   UNL     1     -10.464  19.470  66.181  1.00  0.00    -0.518 A  
HETATM   18  O   UNL     1     -10.637  20.421  65.219  1.00  0.00    -0.259 OA 
HETATM   19  C   UNL     1     -10.307  18.148  65.767  1.00  0.00    -0.178 A  
HETATM   20  H   UNL     1     -10.650  20.194  64.297  1.00  0.00     0.000 HD 
ENDBRANCH  10  11
ENDBRANCH   6   9
TORSDOF 2
ENDMDL
MODEL       58
REMARK 921   NORMALIZED FREE ENERGY PREDICTED BY IDOCK:   -5.42 KCAL/MOL
REMARK 922        TOTAL FREE ENERGY PREDICTED BY IDOCK:   -6.37 KCAL/MOL
REMARK 923 INTER-LIGAND FREE ENERGY PREDICTED BY IDOCK:   -6.06 KCAL/MOL
REMARK 924 INTRA-LIGAND FREE ENERGY PREDICTED BY IDOCK:   -0.31 KCAL/MOL
REMARK 927      BINDING AFFINITY PREDICTED BY RF-SCORE:    0.00 PKD
ROOT
HETATM    1  O   UNL     1     -13.670  10.920  72.262  1.00  0.00    -0.455 OA 
HETATM    2  H   UNL     1     -13.438  10.049  71.963  1.00  0.00     0.000 HD 
HETATM    3  C   UNL     1     -13.150  12.036  71.674  1.00  0.00    -0.318 A  
HETATM    4  C   UNL     1     -13.490  13.310  72.111  1.00  0.00    -0.655 A  
HETATM    5  C   UNL     1     -12.956  14.425  71.456  1.00  0.00    -0.406 A  
HETATM    6  C   UNL     1     -12.078  14.273  70.372  1.00  0.00    -0.409 A  
HETATM    7  C   UNL     1     -12.279  11.860  70.607  1.00  0.00    -0.424 A  
HETATM    8  C   UNL     1     -11.747  12.977  69.953  1.00  0.00    -0.326 A  
ENDROOT
BRANCH   6   9
HETATM    9  C   UNL     1     -11.621  15.476  69.657  1.00  0.00    -0.359 C  
HETATM   10  C   UNL     1     -10.351  15.714  69.291  1.00  0.00    -0.250 C  
BRANCH  10  11
HETATM   11  C   UNL     1      -9.913  16.897  68.527  1.00  0.00    -0.275 A  
HETATM   12  C   UNL     1     -10.632  17.407  67.435  1.00  0.00    -0.308 A  
HETATM   13  C   UNL     1     -10.168  18.536  66.761  1.00  0.00    -0.393 A  
HETATM   14  C   UNL     1      -9.005  19.185  67.156  1.00  0.00    -0.320 A  
HETATM   15  O   UNL     1     -10.839  19.048  65.688  1.00  0.00    -0.408 OA 
HETATM   16  H   UNL     1     -10.523  19.817  65.228  1.00  0.00     0.000 HD 
HETATM   17  C   UNL     1      -8.304  18.692  68.249  1.00  0.00    -0.324 A  
HETATM   18  O   UNL     1      -7.159  19.291  68.687  1.00  0.00    -0.292 OA 
HETATM   19  C   UNL     1      -8.749  17.563  68.935  1.00  0.00    -0.135 A  
HETATM   20  H   UNL     1      -6.680  18.953  69.434  1.00  0.00     0.000 HD 
ENDBRANCH  10  11
ENDBRANCH   6   9
TORSDOF 2
ENDMDL
MODEL       59
REMARK 921   NORMALIZED FREE ENERGY PREDICTED BY IDOCK:   -5.41 KCAL/MOL
REMARK 922        TOTAL FREE ENERGY PREDICTED BY IDOCK:   -6.37 KCAL/MOL
REMARK 923 INTER-LIGAND FREE ENERGY PREDICTED BY IDOCK:   -6.05 KCAL/MOL
REMARK 924 INTRA-LIGAND FREE ENERGY PREDICTED BY IDOCK:   -0.31 KCAL/MOL
REMARK 927      BINDING AFFINITY PREDICTED BY RF-SCORE:    0.00 PKD
ROOT
HETATM    1  O   UNL     1     -11.287  16.747  63.970  1.00  0.00    -1.471 OA 
HETATM    2  H   UNL     1     -11.974  16.884  63.328  1.00  0.00     0.000 HD 
HETATM    3  C   UNL     1     -11.154  15.557  64.625  1.00  0.00    -0.359 A  
HETATM    4  C   UNL     1     -10.149  15.356  65.564  1.00  0.00    -0.405 A  
HETATM    5  C   UNL     1     -10.033  14.109  66.187  1.00  0.00    -0.328 A  
HETATM    6  C   UNL     1     -10.920  13.065  65.883  1.00  0.00    -0.292 A  
HETATM    7  C   UNL     1     -12.047  14.541  64.313  1.00  0.00    -0.448 A  
HETATM    8  C   UNL     1     -11.928  13.295  64.936  1.00  0.00    -0.417 A  
ENDROOT
BRANCH   6   9
HETATM    9  C   UNL     1     -10.695  11.745  66.494  1.00  0.00    -0.304 C  
HETATM   10  C   UNL     1     -10.123  10.700  65.874  1.00  0.00    -0.321 C  
BRANCH  10  11
HETATM   11  C   UNL     1      -9.852   9.399  66.512  1.00  0.00    -0.325 A  
HETATM   12  C   UNL     1     -10.735   8.800  67.424  1.00  0.00    -0.216 A  
HETATM   13  C   UNL     1     -10.423   7.562  67.986  1.00  0.00    -0.197 A  
HETATM   14  C   UNL     1      -9.254   6.891  67.650  1.00  0.00    -0.119 A  
HETATM   15  O   UNL     1     -11.256   6.960  68.885  1.00  0.00    -0.474 OA 
HETATM   16  H   UNL     1     -11.044   6.117  69.267  1.00  0.00     0.000 HD 
HETATM   17  C   UNL     1      -8.390   7.475  66.732  1.00  0.00    -0.126 A  
HETATM   18  O   UNL     1      -7.231   6.860  66.359  1.00  0.00    -0.072 OA 
HETATM   19  C   UNL     1      -8.681   8.713  66.162  1.00  0.00    -0.180 A  
HETATM   20  H   UNL     1      -6.640   7.260  65.732  1.00  0.00     0.000 HD 
ENDBRANCH  10  11
ENDBRANCH   6   9
TORSDOF 2
ENDMDL
MODEL       60
REMARK 921   NORMALIZED FREE ENERGY PREDICTED BY IDOCK:   -5.38 KCAL/MOL
REMARK 922        TOTAL FREE ENERGY PREDICTED BY IDOCK:   -6.33 KCAL/MOL
REMARK 923 INTER-LIGAND FREE ENERGY PREDICTED BY IDOCK:   -6.01 KCAL/MOL
REMARK 924 INTRA-LIGAND FREE ENERGY PREDICTED BY IDOCK:   -0.32 KCAL/MOL
REMARK 927      BINDING AFFINITY PREDICTED BY RF-SCORE:    0.00 PKD
ROOT
HETATM    1  O   UNL     1     -11.423   5.346  73.506  1.00  0.00    -0.473 OA 
HETATM    2  H   UNL     1     -10.794   5.206  74.204  1.00  0.00     0.000 HD 
HETATM    3  C   UNL     1     -11.407   6.482  72.751  1.00  0.00    -0.185 A  
HETATM    4  C   UNL     1     -12.327   6.686  71.729  1.00  0.00    -0.385 A  
HETATM    5  C   UNL     1     -12.251   7.852  70.961  1.00  0.00    -0.214 A  
HETATM    6  C   UNL     1     -11.267   8.820  71.214  1.00  0.00    -0.352 A  
HETATM    7  C   UNL     1     -10.428   7.428  73.024  1.00  0.00    -0.373 A  
HETATM    8  C   UNL     1     -10.354   8.593  72.253  1.00  0.00    -0.376 A  
ENDROOT
BRANCH   6   9
HETATM    9  C   UNL     1     -11.170   9.983  70.316  1.00  0.00    -0.379 C  
HETATM   10  C   UNL     1     -12.127  10.912  70.159  1.00  0.00    -0.431 C  
BRANCH  10  11
HETATM   11  C   UNL     1     -11.998  12.102  69.299  1.00  0.00    -0.318 A  
HETATM   12  C   UNL     1     -12.046  13.412  69.799  1.00  0.00    -0.374 A  
HETATM   13  C   UNL     1     -11.908  14.496  68.931  1.00  0.00    -0.324 A  
HETATM   14  C   UNL     1     -11.705  14.308  67.570  1.00  0.00    -0.415 A  
HETATM   15  O   UNL     1     -11.963  15.782  69.387  1.00  0.00    -0.370 OA 
HETATM   16  H   UNL     1     -11.868  16.519  68.796  1.00  0.00     0.000 HD 
HETATM   17  C   UNL     1     -11.637  13.011  67.078  1.00  0.00    -0.360 A  
HETATM   18  O   UNL     1     -11.434  12.766  65.751  1.00  0.00    -0.316 OA 
HETATM   19  C   UNL     1     -11.776  11.915  67.927  1.00  0.00    -0.368 A  
HETATM   20  H   UNL     1     -11.387  11.879  65.415  1.00  0.00     0.000 HD 
ENDBRANCH  10  11
ENDBRANCH   6   9
TORSDOF 2
ENDMDL
MODEL       61
REMARK 921   NORMALIZED FREE ENERGY PREDICTED BY IDOCK:   -5.37 KCAL/MOL
REMARK 922        TOTAL FREE ENERGY PREDICTED BY IDOCK:   -6.32 KCAL/MOL
REMARK 923 INTER-LIGAND FREE ENERGY PREDICTED BY IDOCK:   -6.00 KCAL/MOL
REMARK 924 INTRA-LIGAND FREE ENERGY PREDICTED BY IDOCK:   -0.33 KCAL/MOL
REMARK 927      BINDING AFFINITY PREDICTED BY RF-SCORE:    0.00 PKD
ROOT
HETATM    1  O   UNL     1     -13.720  13.208  72.987  1.00  0.00    -0.596 OA 
HETATM    2  H   UNL     1     -14.059  12.601  73.634  1.00  0.00     0.000 HD 
HETATM    3  C   UNL     1     -13.091  12.768  71.859  1.00  0.00    -0.371 A  
HETATM    4  C   UNL     1     -12.596  13.657  70.912  1.00  0.00    -0.421 A  
HETATM    5  C   UNL     1     -11.987  13.158  69.756  1.00  0.00    -0.382 A  
HETATM    6  C   UNL     1     -11.863  11.777  69.545  1.00  0.00    -0.402 A  
HETATM    7  C   UNL     1     -12.975  11.397  71.674  1.00  0.00    -0.523 A  
HETATM    8  C   UNL     1     -12.367  10.901  70.517  1.00  0.00    -0.463 A  
ENDROOT
BRANCH   6   9
HETATM    9  C   UNL     1     -11.302  11.303  68.268  1.00  0.00    -0.359 C  
HETATM   10  C   UNL     1     -10.243  11.848  67.647  1.00  0.00    -0.215 C  
BRANCH  10  11
HETATM   11  C   UNL     1      -9.656  11.333  66.397  1.00  0.00    -0.223 A  
HETATM   12  C   UNL     1      -8.362  10.793  66.330  1.00  0.00    -0.160 A  
HETATM   13  C   UNL     1      -7.869  10.313  65.116  1.00  0.00    -0.138 A  
HETATM   14  C   UNL     1      -8.641  10.342  63.962  1.00  0.00    -0.194 A  
HETATM   15  O   UNL     1      -6.609   9.794  65.017  1.00  0.00    -0.086 OA 
HETATM   16  H   UNL     1      -6.274   9.467  64.192  1.00  0.00     0.000 HD 
HETATM   17  C   UNL     1      -9.929  10.857  64.033  1.00  0.00    -0.344 A  
HETATM   18  O   UNL     1     -10.735  10.905  62.934  1.00  0.00    -0.779 OA 
HETATM   19  C   UNL     1     -10.439  11.345  65.235  1.00  0.00    -0.340 A  
HETATM   20  H   UNL     1     -11.615  11.257  62.983  1.00  0.00     0.000 HD 
ENDBRANCH  10  11
ENDBRANCH   6   9
TORSDOF 2
ENDMDL
MODEL       62
REMARK 921   NORMALIZED FREE ENERGY PREDICTED BY IDOCK:   -5.36 KCAL/MOL
REMARK 922        TOTAL FREE ENERGY PREDICTED BY IDOCK:   -6.31 KCAL/MOL
REMARK 923 INTER-LIGAND FREE ENERGY PREDICTED BY IDOCK:   -6.00 KCAL/MOL
REMARK 924 INTRA-LIGAND FREE ENERGY PREDICTED BY IDOCK:   -0.32 KCAL/MOL
REMARK 927      BINDING AFFINITY PREDICTED BY RF-SCORE:    0.00 PKD
ROOT
HETATM    1  O   UNL     1      -8.103   4.455  66.555  1.00  0.00    -0.102 OA 
HETATM    2  H   UNL     1      -7.252   4.346  66.146  1.00  0.00     0.000 HD 
HETATM    3  C   UNL     1      -8.719   5.671  66.602  1.00  0.00    -0.118 A  
HETATM    4  C   UNL     1      -9.963   5.830  67.200  1.00  0.00    -0.186 A  
HETATM    5  C   UNL     1     -10.570   7.091  67.197  1.00  0.00    -0.412 A  
HETATM    6  C   UNL     1      -9.936   8.194  66.606  1.00  0.00    -0.339 A  
HETATM    7  C   UNL     1      -8.070   6.750  66.017  1.00  0.00    -0.119 A  
HETATM    8  C   UNL     1      -8.679   8.009  66.014  1.00  0.00    -0.183 A  
ENDROOT
BRANCH   6   9
HETATM    9  C   UNL     1     -10.659   9.476  66.544  1.00  0.00    -0.133 C  
HETATM   10  C   UNL     1     -10.239  10.561  65.874  1.00  0.00    -0.311 C  
BRANCH  10  11
HETATM   11  C   UNL     1     -10.997  11.821  65.772  1.00  0.00    -0.353 A  
HETATM   12  C   UNL     1     -11.310  12.614  66.888  1.00  0.00    -0.373 A  
HETATM   13  C   UNL     1     -12.023  13.801  66.722  1.00  0.00    -0.426 A  
HETATM   14  C   UNL     1     -12.422  14.233  65.463  1.00  0.00    -0.434 A  
HETATM   15  O   UNL     1     -12.352  14.587  67.789  1.00  0.00    -0.619 OA 
HETATM   16  H   UNL     1     -12.837  15.395  67.676  1.00  0.00     0.000 HD 
HETATM   17  C   UNL     1     -12.095  13.459  64.357  1.00  0.00    -0.416 A  
HETATM   18  O   UNL     1     -12.455  13.835  63.096  1.00  0.00    -1.089 OA 
HETATM   19  C   UNL     1     -11.386  12.267  64.501  1.00  0.00    -0.385 A  
HETATM   20  H   UNL     1     -12.231  13.306  62.341  1.00  0.00     0.000 HD 
ENDBRANCH  10  11
ENDBRANCH   6   9
TORSDOF 2
ENDMDL
MODEL       63
REMARK 921   NORMALIZED FREE ENERGY PREDICTED BY IDOCK:   -5.35 KCAL/MOL
REMARK 922        TOTAL FREE ENERGY PREDICTED BY IDOCK:   -6.30 KCAL/MOL
REMARK 923 INTER-LIGAND FREE ENERGY PREDICTED BY IDOCK:   -5.99 KCAL/MOL
REMARK 924 INTRA-LIGAND FREE ENERGY PREDICTED BY IDOCK:   -0.31 KCAL/MOL
REMARK 927      BINDING AFFINITY PREDICTED BY RF-SCORE:    0.00 PKD
ROOT
HETATM    1  O   UNL     1     -12.524  13.971  63.027  1.00  0.00    -1.101 OA 
HETATM    2  H   UNL     1     -13.136  14.689  63.141  1.00  0.00     0.000 HD 
HETATM    3  C   UNL     1     -12.070  13.247  64.090  1.00  0.00    -0.432 A  
HETATM    4  C   UNL     1     -11.174  12.198  63.923  1.00  0.00    -0.485 A  
HETATM    5  C   UNL     1     -10.761  11.464  65.039  1.00  0.00    -0.340 A  
HETATM    6  C   UNL     1     -11.232  11.779  66.323  1.00  0.00    -0.370 A  
HETATM    7  C   UNL     1     -12.544  13.581  65.352  1.00  0.00    -0.531 A  
HETATM    8  C   UNL     1     -12.131  12.845  66.466  1.00  0.00    -0.375 A  
ENDROOT
BRANCH   6   9
HETATM    9  C   UNL     1     -10.842  10.916  67.451  1.00  0.00    -0.333 C  
HETATM   10  C   UNL     1      -9.785  11.130  68.251  1.00  0.00    -0.190 C  
BRANCH  10  11
HETATM   11  C   UNL     1      -9.435  10.290  69.411  1.00  0.00    -0.225 A  
HETATM   12  C   UNL     1     -10.393   9.796  70.309  1.00  0.00    -0.348 A  
HETATM   13  C   UNL     1      -9.997   8.998  71.383  1.00  0.00    -0.318 A  
HETATM   14  C   UNL     1      -8.663   8.663  71.579  1.00  0.00    -0.266 A  
HETATM   15  O   UNL     1     -10.905   8.512  72.280  1.00  0.00    -0.330 OA 
HETATM   16  H   UNL     1     -10.635   7.969  73.010  1.00  0.00     0.000 HD 
HETATM   17  C   UNL     1      -7.717   9.136  70.678  1.00  0.00    -0.138 A  
HETATM   18  O   UNL     1      -6.394   8.836  70.816  1.00  0.00    -0.037 OA 
HETATM   19  C   UNL     1      -8.092   9.938  69.601  1.00  0.00    -0.171 A  
HETATM   20  H   UNL     1      -5.747   9.159  70.201  1.00  0.00     0.000 HD 
ENDBRANCH  10  11
ENDBRANCH   6   9
TORSDOF 2
ENDMDL
MODEL       64
REMARK 921   NORMALIZED FREE ENERGY PREDICTED BY IDOCK:   -5.35 KCAL/MOL
REMARK 922        TOTAL FREE ENERGY PREDICTED BY IDOCK:   -6.30 KCAL/MOL
REMARK 923 INTER-LIGAND FREE ENERGY PREDICTED BY IDOCK:   -5.99 KCAL/MOL
REMARK 924 INTRA-LIGAND FREE ENERGY PREDICTED BY IDOCK:   -0.31 KCAL/MOL
REMARK 927      BINDING AFFINITY PREDICTED BY RF-SCORE:    0.00 PKD
ROOT
HETATM    1  O   UNL     1     -10.718   5.637  73.717  1.00  0.00    -0.273 OA 
HETATM    2  H   UNL     1     -11.425   5.005  73.775  1.00  0.00     0.000 HD 
HETATM    3  C   UNL     1     -10.803   6.727  72.901  1.00  0.00    -0.272 A  
HETATM    4  C   UNL     1      -9.769   7.652  72.817  1.00  0.00    -0.261 A  
HETATM    5  C   UNL     1      -9.915   8.770  71.990  1.00  0.00    -0.391 A  
HETATM    6  C   UNL     1     -11.086   8.965  71.241  1.00  0.00    -0.367 A  
HETATM    7  C   UNL     1     -11.968   6.896  72.165  1.00  0.00    -0.302 A  
HETATM    8  C   UNL     1     -12.112   8.016  71.340  1.00  0.00    -0.332 A  
ENDROOT
BRANCH   6   9
HETATM    9  C   UNL     1     -11.229  10.207  70.462  1.00  0.00    -0.411 C  
HETATM   10  C   UNL     1     -11.231  10.274  69.120  1.00  0.00    -0.268 C  
BRANCH  10  11
HETATM   11  C   UNL     1     -11.431  11.515  68.350  1.00  0.00    -0.364 A  
HETATM   12  C   UNL     1     -11.743  12.743  68.952  1.00  0.00    -0.370 A  
HETATM   13  C   UNL     1     -11.909  13.884  68.166  1.00  0.00    -0.372 A  
HETATM   14  C   UNL     1     -11.757  13.837  66.786  1.00  0.00    -0.420 A  
HETATM   15  O   UNL     1     -12.226  15.090  68.723  1.00  0.00    -0.569 OA 
HETATM   16  H   UNL     1     -12.339  15.866  68.187  1.00  0.00     0.000 HD 
HETATM   17  C   UNL     1     -11.427  12.625  66.192  1.00  0.00    -0.365 A  
HETATM   18  O   UNL     1     -11.258  12.520  64.843  1.00  0.00    -0.290 OA 
HETATM   19  C   UNL     1     -11.260  11.473  66.959  1.00  0.00    -0.365 A  
HETATM   20  H   UNL     1     -11.034  11.691  64.437  1.00  0.00     0.000 HD 
ENDBRANCH  10  11
ENDBRANCH   6   9
TORSDOF 2
ENDMDL
MODEL       65
REMARK 921   NORMALIZED FREE ENERGY PREDICTED BY IDOCK:   -5.31 KCAL/MOL
REMARK 922        TOTAL FREE ENERGY PREDICTED BY IDOCK:   -6.26 KCAL/MOL
REMARK 923 INTER-LIGAND FREE ENERGY PREDICTED BY IDOCK:   -5.93 KCAL/MOL
REMARK 924 INTRA-LIGAND FREE ENERGY PREDICTED BY IDOCK:   -0.33 KCAL/MOL
REMARK 927      BINDING AFFINITY PREDICTED BY RF-SCORE:    0.00 PKD
ROOT
HETATM    1  O   UNL     1     -12.786   9.888  70.578  1.00  0.00    -0.536 OA 
HETATM    2  H   UNL     1     -12.798   9.109  70.036  1.00  0.00     0.000 HD 
HETATM    3  C   UNL     1     -12.368  11.090  70.088  1.00  0.00    -0.311 A  
HETATM    4  C   UNL     1     -12.350  12.231  70.882  1.00  0.00    -0.363 A  
HETATM    5  C   UNL     1     -11.942  13.447  70.326  1.00  0.00    -0.378 A  
HETATM    6  C   UNL     1     -11.544  13.529  68.983  1.00  0.00    -0.356 A  
HETATM    7  C   UNL     1     -11.972  11.146  68.758  1.00  0.00    -0.337 A  
HETATM    8  C   UNL     1     -11.566  12.364  68.204  1.00  0.00    -0.395 A  
ENDROOT
BRANCH   6   9
HETATM    9  C   UNL     1     -11.217  14.851  68.421  1.00  0.00    -0.304 C  
HETATM   10  C   UNL     1     -10.141  15.581  68.755  1.00  0.00    -0.211 C  
BRANCH  10  11
HETATM   11  C   UNL     1      -9.793  16.877  68.146  1.00  0.00    -0.264 A  
HETATM   12  C   UNL     1      -8.758  17.693  68.629  1.00  0.00    -0.266 A  
HETATM   13  C   UNL     1      -8.474  18.905  68.001  1.00  0.00    -0.295 A  
HETATM   14  C   UNL     1      -9.188  19.324  66.885  1.00  0.00    -0.359 A  
HETATM   15  O   UNL     1      -7.482  19.726  68.455  1.00  0.00    -0.326 OA 
HETATM   16  H   UNL     1      -7.288  20.551  68.027  1.00  0.00     0.000 HD 
HETATM   17  C   UNL     1     -10.199  18.507  66.394  1.00  0.00    -0.420 A  
HETATM   18  O   UNL     1     -10.929  18.863  65.299  1.00  0.00    -0.521 OA 
HETATM   19  C   UNL     1     -10.501  17.294  67.010  1.00  0.00    -0.287 A  
HETATM   20  H   UNL     1     -11.620  18.304  64.964  1.00  0.00     0.000 HD 
ENDBRANCH  10  11
ENDBRANCH   6   9
TORSDOF 2
ENDMDL
MODEL       66
REMARK 921   NORMALIZED FREE ENERGY PREDICTED BY IDOCK:   -5.31 KCAL/MOL
REMARK 922        TOTAL FREE ENERGY PREDICTED BY IDOCK:   -6.25 KCAL/MOL
REMARK 923 INTER-LIGAND FREE ENERGY PREDICTED BY IDOCK:   -5.92 KCAL/MOL
REMARK 924 INTRA-LIGAND FREE ENERGY PREDICTED BY IDOCK:   -0.33 KCAL/MOL
REMARK 927      BINDING AFFINITY PREDICTED BY RF-SCORE:    0.00 PKD
ROOT
HETATM    1  O   UNL     1     -12.777  10.399  69.339  1.00  0.00    -0.658 OA 
HETATM    2  H   UNL     1     -12.770   9.694  68.702  1.00  0.00     0.000 HD 
HETATM    3  C   UNL     1     -12.065  11.545  69.139  1.00  0.00    -0.263 A  
HETATM    4  C   UNL     1     -12.076  12.577  70.070  1.00  0.00    -0.337 A  
HETATM    5  C   UNL     1     -11.355  13.746  69.808  1.00  0.00    -0.200 A  
HETATM    6  C   UNL     1     -10.615  13.886  68.623  1.00  0.00    -0.265 A  
HETATM    7  C   UNL     1     -11.335  11.659  67.963  1.00  0.00    -0.366 A  
HETATM    8  C   UNL     1     -10.616  12.829  67.702  1.00  0.00    -0.230 A  
ENDROOT
BRANCH   6   9
HETATM    9  C   UNL     1      -9.952  15.172  68.351  1.00  0.00    -0.222 C  
HETATM   10  C   UNL     1     -10.586  16.300  67.990  1.00  0.00    -0.308 C  
BRANCH  10  11
HETATM   11  C   UNL     1      -9.919  17.596  67.773  1.00  0.00    -0.315 A  
HETATM   12  C   UNL     1     -10.277  18.474  66.738  1.00  0.00    -0.423 A  
HETATM   13  C   UNL     1      -9.612  19.691  66.594  1.00  0.00    -0.380 A  
HETATM   14  C   UNL     1      -8.600  20.068  67.468  1.00  0.00    -0.401 A  
HETATM   15  O   UNL     1      -9.930  20.560  65.589  1.00  0.00    -0.573 OA 
HETATM   16  H   UNL     1      -9.477  21.388  65.491  1.00  0.00     0.000 HD 
HETATM   17  C   UNL     1      -8.259  19.208  68.505  1.00  0.00    -0.364 A  
HETATM   18  O   UNL     1      -7.278  19.528  69.397  1.00  0.00    -0.344 OA 
HETATM   19  C   UNL     1      -8.909  17.986  68.665  1.00  0.00    -0.272 A  
HETATM   20  H   UNL     1      -7.045  18.940  70.105  1.00  0.00     0.000 HD 
ENDBRANCH  10  11
ENDBRANCH   6   9
TORSDOF 2
ENDMDL
MODEL       67
REMARK 921   NORMALIZED FREE ENERGY PREDICTED BY IDOCK:   -5.31 KCAL/MOL
REMARK 922        TOTAL FREE ENERGY PREDICTED BY IDOCK:   -6.25 KCAL/MOL
REMARK 923 INTER-LIGAND FREE ENERGY PREDICTED BY IDOCK:   -5.94 KCAL/MOL
REMARK 924 INTRA-LIGAND FREE ENERGY PREDICTED BY IDOCK:   -0.31 KCAL/MOL
REMARK 927      BINDING AFFINITY PREDICTED BY RF-SCORE:    0.00 PKD
ROOT
HETATM    1  O   UNL     1      -9.497  21.169  67.085  1.00  0.00    -0.681 OA 
HETATM    2  H   UNL     1     -10.059  21.685  67.651  1.00  0.00     0.000 HD 
HETATM    3  C   UNL     1      -9.460  19.808  67.169  1.00  0.00    -0.355 A  
HETATM    4  C   UNL     1      -8.638  19.053  66.341  1.00  0.00    -0.320 A  
HETATM    5  C   UNL     1      -8.657  17.658  66.442  1.00  0.00    -0.269 A  
HETATM    6  C   UNL     1      -9.487  17.014  67.373  1.00  0.00    -0.242 A  
HETATM    7  C   UNL     1     -10.284  19.193  68.102  1.00  0.00    -0.489 A  
HETATM    8  C   UNL     1     -10.303  17.798  68.200  1.00  0.00    -0.393 A  
ENDROOT
BRANCH   6   9
HETATM    9  C   UNL     1      -9.541  15.543  67.374  1.00  0.00    -0.213 C  
HETATM   10  C   UNL     1     -10.606  14.815  66.999  1.00  0.00    -0.290 C  
BRANCH  10  11
HETATM   11  C   UNL     1     -10.631  13.341  66.951  1.00  0.00    -0.264 A  
HETATM   12  C   UNL     1      -9.864  12.596  66.043  1.00  0.00    -0.260 A  
HETATM   13  C   UNL     1      -9.927  11.202  66.056  1.00  0.00    -0.236 A  
HETATM   14  C   UNL     1     -10.728  10.525  66.967  1.00  0.00    -0.310 A  
HETATM   15  O   UNL     1      -9.202  10.450  65.177  1.00  0.00    -0.178 OA 
HETATM   16  H   UNL     1      -9.244   9.502  65.186  1.00  0.00     0.000 HD 
HETATM   17  C   UNL     1     -11.472  11.263  67.880  1.00  0.00    -0.288 A  
HETATM   18  O   UNL     1     -12.271  10.652  68.801  1.00  0.00    -0.790 OA 
HETATM   19  C   UNL     1     -11.426  12.656  67.881  1.00  0.00    -0.360 A  
HETATM   20  H   UNL     1     -12.779  11.157  69.425  1.00  0.00     0.000 HD 
ENDBRANCH  10  11
ENDBRANCH   6   9
TORSDOF 2
ENDMDL
MODEL       68
REMARK 921   NORMALIZED FREE ENERGY PREDICTED BY IDOCK:   -5.31 KCAL/MOL
REMARK 922        TOTAL FREE ENERGY PREDICTED BY IDOCK:   -6.25 KCAL/MOL
REMARK 923 INTER-LIGAND FREE ENERGY PREDICTED BY IDOCK:   -5.90 KCAL/MOL
REMARK 924 INTRA-LIGAND FREE ENERGY PREDICTED BY IDOCK:   -0.35 KCAL/MOL
REMARK 927      BINDING AFFINITY PREDICTED BY RF-SCORE:    0.00 PKD
ROOT
HETATM    1  O   UNL     1      -8.289   7.524  64.577  1.00  0.00    -0.327 OA 
HETATM    2  H   UNL     1      -8.157   6.590  64.692  1.00  0.00     0.000 HD 
HETATM    3  C   UNL     1      -9.020   8.254  65.468  1.00  0.00    -0.064 A  
HETATM    4  C   UNL     1      -9.213   9.620  65.301  1.00  0.00    -0.295 A  
HETATM    5  C   UNL     1      -9.944  10.332  66.257  1.00  0.00    -0.295 A  
HETATM    6  C   UNL     1     -10.492   9.684  67.375  1.00  0.00    -0.319 A  
HETATM    7  C   UNL     1      -9.558   7.591  66.563  1.00  0.00    -0.239 A  
HETATM    8  C   UNL     1     -10.287   8.305  67.518  1.00  0.00    -0.333 A  
ENDROOT
BRANCH   6   9
HETATM    9  C   UNL     1     -11.170  10.495  68.401  1.00  0.00    -0.339 C  
HETATM   10  C   UNL     1     -11.062  11.828  68.519  1.00  0.00    -0.288 C  
BRANCH  10  11
HETATM   11  C   UNL     1     -11.788  12.636  69.516  1.00  0.00    -0.376 A  
HETATM   12  C   UNL     1     -11.978  14.020  69.382  1.00  0.00    -0.390 A  
HETATM   13  C   UNL     1     -12.684  14.724  70.357  1.00  0.00    -0.316 A  
HETATM   14  C   UNL     1     -13.224  14.081  71.463  1.00  0.00    -0.431 A  
HETATM   15  O   UNL     1     -12.874  16.073  70.260  1.00  0.00    -0.622 OA 
HETATM   16  H   UNL     1     -13.355  16.553  70.924  1.00  0.00     0.000 HD 
HETATM   17  C   UNL     1     -13.054  12.707  71.585  1.00  0.00    -0.323 A  
HETATM   18  O   UNL     1     -13.567  12.021  72.647  1.00  0.00    -0.545 OA 
HETATM   19  C   UNL     1     -12.349  11.985  70.624  1.00  0.00    -0.394 A  
HETATM   20  H   UNL     1     -13.450  11.082  72.730  1.00  0.00     0.000 HD 
ENDBRANCH  10  11
ENDBRANCH   6   9
TORSDOF 2
ENDMDL
MODEL       69
REMARK 921   NORMALIZED FREE ENERGY PREDICTED BY IDOCK:   -5.28 KCAL/MOL
REMARK 922        TOTAL FREE ENERGY PREDICTED BY IDOCK:   -6.22 KCAL/MOL
REMARK 923 INTER-LIGAND FREE ENERGY PREDICTED BY IDOCK:   -5.92 KCAL/MOL
REMARK 924 INTRA-LIGAND FREE ENERGY PREDICTED BY IDOCK:   -0.30 KCAL/MOL
REMARK 927      BINDING AFFINITY PREDICTED BY RF-SCORE:    0.00 PKD
ROOT
HETATM    1  O   UNL     1      -8.968   7.705  73.260  1.00  0.00    -0.160 OA 
HETATM    2  H   UNL     1      -9.650   7.592  73.912  1.00  0.00     0.000 HD 
HETATM    3  C   UNL     1      -9.189   8.413  72.115  1.00  0.00    -0.243 A  
HETATM    4  C   UNL     1      -8.192   8.578  71.161  1.00  0.00    -0.172 A  
HETATM    5  C   UNL     1      -8.455   9.338  70.017  1.00  0.00    -0.185 A  
HETATM    6  C   UNL     1      -9.713   9.928  69.818  1.00  0.00    -0.266 A  
HETATM    7  C   UNL     1     -10.443   8.982  71.936  1.00  0.00    -0.373 A  
HETATM    8  C   UNL     1     -10.703   9.743  70.792  1.00  0.00    -0.393 A  
ENDROOT
BRANCH   6   9
HETATM    9  C   UNL     1      -9.909  10.798  68.646  1.00  0.00    -0.187 C  
HETATM   10  C   UNL     1     -10.656  10.486  67.575  1.00  0.00    -0.306 C  
BRANCH  10  11
HETATM   11  C   UNL     1     -10.890  11.386  66.432  1.00  0.00    -0.323 A  
HETATM   12  C   UNL     1     -11.905  12.356  66.421  1.00  0.00    -0.421 A  
HETATM   13  C   UNL     1     -12.067  13.184  65.310  1.00  0.00    -0.429 A  
HETATM   14  C   UNL     1     -11.229  13.082  64.207  1.00  0.00    -0.411 A  
HETATM   15  O   UNL     1     -13.053  14.127  65.266  1.00  0.00    -0.763 OA 
HETATM   16  H   UNL     1     -13.163  14.691  64.509  1.00  0.00     0.000 HD 
HETATM   17  C   UNL     1     -10.212  12.137  64.226  1.00  0.00    -0.324 A  
HETATM   18  O   UNL     1      -9.354  11.996  63.174  1.00  0.00    -0.664 OA 
HETATM   19  C   UNL     1     -10.035  11.297  65.324  1.00  0.00    -0.301 A  
HETATM   20  H   UNL     1      -8.659  11.349  63.187  1.00  0.00     0.000 HD 
ENDBRANCH  10  11
ENDBRANCH   6   9
TORSDOF 2
ENDMDL
MODEL       70
REMARK 921   NORMALIZED FREE ENERGY PREDICTED BY IDOCK:   -5.28 KCAL/MOL
REMARK 922        TOTAL FREE ENERGY PREDICTED BY IDOCK:   -6.22 KCAL/MOL
REMARK 923 INTER-LIGAND FREE ENERGY PREDICTED BY IDOCK:   -5.89 KCAL/MOL
REMARK 924 INTRA-LIGAND FREE ENERGY PREDICTED BY IDOCK:   -0.32 KCAL/MOL
REMARK 927      BINDING AFFINITY PREDICTED BY RF-SCORE:    0.00 PKD
ROOT
HETATM    1  O   UNL     1      -8.652   6.293  66.247  1.00  0.00    -0.127 OA 
HETATM    2  H   UNL     1      -9.022   5.734  66.920  1.00  0.00     0.000 HD 
HETATM    3  C   UNL     1      -9.058   7.586  66.093  1.00  0.00    -0.137 A  
HETATM    4  C   UNL     1      -8.516   8.403  65.108  1.00  0.00    -0.179 A  
HETATM    5  C   UNL     1      -8.941   9.731  65.008  1.00  0.00    -0.247 A  
HETATM    6  C   UNL     1      -9.911  10.246  65.882  1.00  0.00    -0.298 A  
HETATM    7  C   UNL     1     -10.023   8.071  66.965  1.00  0.00    -0.324 A  
HETATM    8  C   UNL     1     -10.445   9.400  66.865  1.00  0.00    -0.281 A  
ENDROOT
BRANCH   6   9
HETATM    9  C   UNL     1     -10.253  11.676  65.798  1.00  0.00    -0.281 C  
HETATM   10  C   UNL     1      -9.533  12.669  66.344  1.00  0.00    -0.231 C  
BRANCH  10  11
HETATM   11  C   UNL     1      -9.855  14.102  66.207  1.00  0.00    -0.321 A  
HETATM   12  C   UNL     1     -10.522  14.629  65.091  1.00  0.00    -0.440 A  
HETATM   13  C   UNL     1     -10.804  15.994  65.027  1.00  0.00    -0.404 A  
HETATM   14  C   UNL     1     -10.452  16.852  66.061  1.00  0.00    -0.297 A  
HETATM   15  O   UNL     1     -11.441  16.538  63.949  1.00  0.00    -1.608 OA 
HETATM   16  H   UNL     1     -11.633  17.467  63.906  1.00  0.00     0.000 HD 
HETATM   17  C   UNL     1      -9.810  16.326  67.175  1.00  0.00    -0.243 A  
HETATM   18  O   UNL     1      -9.445  17.120  68.224  1.00  0.00    -0.258 OA 
HETATM   19  C   UNL     1      -9.515  14.967  67.257  1.00  0.00    -0.216 A  
HETATM   20  H   UNL     1      -9.006  16.760  68.985  1.00  0.00     0.000 HD 
ENDBRANCH  10  11
ENDBRANCH   6   9
TORSDOF 2
ENDMDL
MODEL       71
REMARK 921   NORMALIZED FREE ENERGY PREDICTED BY IDOCK:   -5.25 KCAL/MOL
REMARK 922        TOTAL FREE ENERGY PREDICTED BY IDOCK:   -6.18 KCAL/MOL
REMARK 923 INTER-LIGAND FREE ENERGY PREDICTED BY IDOCK:   -5.85 KCAL/MOL
REMARK 924 INTRA-LIGAND FREE ENERGY PREDICTED BY IDOCK:   -0.33 KCAL/MOL
REMARK 927      BINDING AFFINITY PREDICTED BY RF-SCORE:    0.00 PKD
ROOT
HETATM    1  O   UNL     1      -9.797   6.294  67.348  1.00  0.00    -0.121 OA 
HETATM    2  H   UNL     1     -10.040   5.803  68.124  1.00  0.00     0.000 HD 
HETATM    3  C   UNL     1     -10.021   7.637  67.257  1.00  0.00    -0.208 A  
HETATM    4  C   UNL     1      -9.665   8.356  66.122  1.00  0.00    -0.223 A  
HETATM    5  C   UNL     1      -9.886   9.736  66.088  1.00  0.00    -0.329 A  
HETATM    6  C   UNL     1     -10.468  10.401  67.178  1.00  0.00    -0.311 A  
HETATM    7  C   UNL     1     -10.603   8.272  68.346  1.00  0.00    -0.148 A  
HETATM    8  C   UNL     1     -10.822   9.653  68.309  1.00  0.00    -0.230 A  
ENDROOT
BRANCH   6   9
HETATM    9  C   UNL     1     -10.590  11.868  67.130  1.00  0.00    -0.264 C  
HETATM   10  C   UNL     1     -10.019  12.655  66.203  1.00  0.00    -0.269 C  
BRANCH  10  11
HETATM   11  C   UNL     1     -10.193  14.117  66.131  1.00  0.00    -0.313 A  
HETATM   12  C   UNL     1      -9.762  14.985  67.146  1.00  0.00    -0.228 A  
HETATM   13  C   UNL     1      -9.949  16.361  67.012  1.00  0.00    -0.261 A  
HETATM   14  C   UNL     1     -10.543  16.902  65.879  1.00  0.00    -0.239 A  
HETATM   15  O   UNL     1      -9.551  17.230  67.988  1.00  0.00    -0.260 OA 
HETATM   16  H   UNL     1      -9.678  18.167  67.897  1.00  0.00     0.000 HD 
HETATM   17  C   UNL     1     -10.951  16.044  64.865  1.00  0.00    -0.384 A  
HETATM   18  O   UNL     1     -11.534  16.517  63.727  1.00  0.00    -1.615 OA 
HETATM   19  C   UNL     1     -10.777  14.666  64.981  1.00  0.00    -0.448 A  
HETATM   20  H   UNL     1     -11.813  15.930  63.035  1.00  0.00     0.000 HD 
ENDBRANCH  10  11
ENDBRANCH   6   9
TORSDOF 2
ENDMDL
MODEL       72
REMARK 921   NORMALIZED FREE ENERGY PREDICTED BY IDOCK:   -5.23 KCAL/MOL
REMARK 922        TOTAL FREE ENERGY PREDICTED BY IDOCK:   -6.16 KCAL/MOL
REMARK 923 INTER-LIGAND FREE ENERGY PREDICTED BY IDOCK:   -5.82 KCAL/MOL
REMARK 924 INTRA-LIGAND FREE ENERGY PREDICTED BY IDOCK:   -0.34 KCAL/MOL
REMARK 927      BINDING AFFINITY PREDICTED BY RF-SCORE:    0.00 PKD
ROOT
HETATM    1  O   UNL     1      -9.438   6.734  70.336  1.00  0.00    -0.165 OA 
HETATM    2  H   UNL     1      -9.249   6.869  71.256  1.00  0.00     0.000 HD 
HETATM    3  C   UNL     1      -9.851   7.759  69.536  1.00  0.00    -0.179 A  
HETATM    4  C   UNL     1     -10.129   7.561  68.189  1.00  0.00    -0.215 A  
HETATM    5  C   UNL     1     -10.519   8.649  67.402  1.00  0.00    -0.351 A  
HETATM    6  C   UNL     1     -10.641   9.933  67.955  1.00  0.00    -0.288 A  
HETATM    7  C   UNL     1      -9.971   9.019  70.107  1.00  0.00    -0.216 A  
HETATM    8  C   UNL     1     -10.360  10.105  69.318  1.00  0.00    -0.242 A  
ENDROOT
BRANCH   6   9
HETATM    9  C   UNL     1     -10.960  11.061  67.064  1.00  0.00    -0.333 C  
HETATM   10  C   UNL     1     -10.602  12.336  67.283  1.00  0.00    -0.249 C  
BRANCH  10  11
HETATM   11  C   UNL     1     -10.879  13.449  66.357  1.00  0.00    -0.294 A  
HETATM   12  C   UNL     1     -10.387  14.748  66.557  1.00  0.00    -0.287 A  
HETATM   13  C   UNL     1     -10.678  15.754  65.637  1.00  0.00    -0.348 A  
HETATM   14  C   UNL     1     -11.441  15.497  64.504  1.00  0.00    -0.311 A  
HETATM   15  O   UNL     1     -10.223  17.030  65.811  1.00  0.00    -0.506 OA 
HETATM   16  H   UNL     1     -10.421  17.715  65.185  1.00  0.00     0.000 HD 
HETATM   17  C   UNL     1     -11.912  14.207  64.296  1.00  0.00    -0.435 A  
HETATM   18  O   UNL     1     -12.660  13.894  63.199  1.00  0.00    -1.057 OA 
HETATM   19  C   UNL     1     -11.634  13.188  65.205  1.00  0.00    -0.347 A  
HETATM   20  H   UNL     1     -12.982  13.012  63.056  1.00  0.00     0.000 HD 
ENDBRANCH  10  11
ENDBRANCH   6   9
TORSDOF 2
ENDMDL
MODEL       73
REMARK 921   NORMALIZED FREE ENERGY PREDICTED BY IDOCK:   -5.19 KCAL/MOL
REMARK 922        TOTAL FREE ENERGY PREDICTED BY IDOCK:   -6.12 KCAL/MOL
REMARK 923 INTER-LIGAND FREE ENERGY PREDICTED BY IDOCK:   -5.77 KCAL/MOL
REMARK 924 INTRA-LIGAND FREE ENERGY PREDICTED BY IDOCK:   -0.35 KCAL/MOL
REMARK 927      BINDING AFFINITY PREDICTED BY RF-SCORE:    0.00 PKD
ROOT
HETATM    1  O   UNL     1      -9.396  11.789  62.474  1.00  0.00    -0.459 OA 
HETATM    2  H   UNL     1      -9.598  12.624  62.070  1.00  0.00     0.000 HD 
HETATM    3  C   UNL     1      -9.781  11.505  63.752  1.00  0.00    -0.276 A  
HETATM    4  C   UNL     1      -9.485  10.283  64.343  1.00  0.00    -0.360 A  
HETATM    5  C   UNL     1      -9.927  10.026  65.645  1.00  0.00    -0.355 A  
HETATM    6  C   UNL     1     -10.657  10.986  66.362  1.00  0.00    -0.308 A  
HETATM    7  C   UNL     1     -10.496  12.473  64.444  1.00  0.00    -0.384 A  
HETATM    8  C   UNL     1     -10.938  12.213  65.745  1.00  0.00    -0.338 A  
ENDROOT
BRANCH   6   9
HETATM    9  C   UNL     1     -11.182  10.630  67.691  1.00  0.00    -0.361 C  
HETATM   10  C   UNL     1     -10.682   9.664  68.479  1.00  0.00    -0.239 C  
BRANCH  10  11
HETATM   11  C   UNL     1     -11.181   9.353  69.831  1.00  0.00    -0.180 A  
HETATM   12  C   UNL     1     -10.741   8.243  70.568  1.00  0.00    -0.238 A  
HETATM   13  C   UNL     1     -11.246   8.010  71.847  1.00  0.00    -0.280 A  
HETATM   14  C   UNL     1     -12.174   8.868  72.423  1.00  0.00    -0.365 A  
HETATM   15  O   UNL     1     -10.847   6.932  72.583  1.00  0.00    -0.231 OA 
HETATM   16  H   UNL     1     -11.191   6.773  73.454  1.00  0.00     0.000 HD 
HETATM   17  C   UNL     1     -12.595   9.979  71.701  1.00  0.00    -0.427 A  
HETATM   18  O   UNL     1     -13.499  10.859  72.218  1.00  0.00    -0.599 OA 
HETATM   19  C   UNL     1     -12.105  10.227  70.420  1.00  0.00    -0.373 A  
HETATM   20  H   UNL     1     -13.786  11.618  71.724  1.00  0.00     0.000 HD 
ENDBRANCH  10  11
ENDBRANCH   6   9
TORSDOF 2
ENDMDL
MODEL       74
REMARK 921   NORMALIZED FREE ENERGY PREDICTED BY IDOCK:   -5.19 KCAL/MOL
REMARK 922        TOTAL FREE ENERGY PREDICTED BY IDOCK:   -6.12 KCAL/MOL
REMARK 923 INTER-LIGAND FREE ENERGY PREDICTED BY IDOCK:   -5.78 KCAL/MOL
REMARK 924 INTRA-LIGAND FREE ENERGY PREDICTED BY IDOCK:   -0.34 KCAL/MOL
REMARK 927      BINDING AFFINITY PREDICTED BY RF-SCORE:    0.00 PKD
ROOT
HETATM    1  O   UNL     1      -8.312   9.530  63.053  1.00  0.00    -0.150 OA 
HETATM    2  H   UNL     1      -7.655   8.850  62.961  1.00  0.00     0.000 HD 
HETATM    3  C   UNL     1      -8.972   9.728  64.230  1.00  0.00    -0.237 A  
HETATM    4  C   UNL     1      -9.933  10.723  64.364  1.00  0.00    -0.400 A  
HETATM    5  C   UNL     1     -10.560  10.909  65.600  1.00  0.00    -0.233 A  
HETATM    6  C   UNL     1     -10.238  10.101  66.701  1.00  0.00    -0.287 A  
HETATM    7  C   UNL     1      -8.641   8.912  65.304  1.00  0.00    -0.209 A  
HETATM    8  C   UNL     1      -9.269   9.101  66.539  1.00  0.00    -0.221 A  
ENDROOT
BRANCH   6   9
HETATM    9  C   UNL     1     -10.856  10.400  68.004  1.00  0.00    -0.319 C  
HETATM   10  C   UNL     1     -11.359  11.594  68.357  1.00  0.00    -0.339 C  
BRANCH  10  11
HETATM   11  C   UNL     1     -12.025  11.868  69.644  1.00  0.00    -0.365 A  
HETATM   12  C   UNL     1     -12.497  10.852  70.489  1.00  0.00    -0.438 A  
HETATM   13  C   UNL     1     -13.111  11.179  71.698  1.00  0.00    -0.424 A  
HETATM   14  C   UNL     1     -13.254  12.501  72.099  1.00  0.00    -0.508 A  
HETATM   15  O   UNL     1     -13.591  10.213  72.535  1.00  0.00    -0.627 OA 
HETATM   16  H   UNL     1     -14.008  10.436  73.358  1.00  0.00     0.000 HD 
HETATM   17  C   UNL     1     -12.769  13.507  71.272  1.00  0.00    -0.348 A  
HETATM   18  O   UNL     1     -12.876  14.822  71.617  1.00  0.00    -0.301 OA 
HETATM   19  C   UNL     1     -12.156  13.201  70.058  1.00  0.00    -0.375 A  
HETATM   20  H   UNL     1     -12.544  15.509  71.051  1.00  0.00     0.000 HD 
ENDBRANCH  10  11
ENDBRANCH   6   9
TORSDOF 2
ENDMDL
MODEL       75
REMARK 921   NORMALIZED FREE ENERGY PREDICTED BY IDOCK:   -5.15 KCAL/MOL
REMARK 922        TOTAL FREE ENERGY PREDICTED BY IDOCK:   -6.08 KCAL/MOL
REMARK 923 INTER-LIGAND FREE ENERGY PREDICTED BY IDOCK:   -5.76 KCAL/MOL
REMARK 924 INTRA-LIGAND FREE ENERGY PREDICTED BY IDOCK:   -0.31 KCAL/MOL
REMARK 927      BINDING AFFINITY PREDICTED BY RF-SCORE:    0.00 PKD
ROOT
HETATM    1  O   UNL     1      -8.455   4.265  67.392  1.00  0.00    -0.099 OA 
HETATM    2  H   UNL     1      -7.625   4.061  66.977  1.00  0.00     0.000 HD 
HETATM    3  C   UNL     1      -9.034   5.493  67.260  1.00  0.00    -0.111 A  
HETATM    4  C   UNL     1     -10.248   5.791  67.866  1.00  0.00    -0.231 A  
HETATM    5  C   UNL     1     -10.819   7.053  67.676  1.00  0.00    -0.312 A  
HETATM    6  C   UNL     1     -10.178   8.023  66.890  1.00  0.00    -0.385 A  
HETATM    7  C   UNL     1      -8.379   6.439  66.482  1.00  0.00    -0.115 A  
HETATM    8  C   UNL     1      -8.951   7.700  66.293  1.00  0.00    -0.203 A  
ENDROOT
BRANCH   6   9
HETATM    9  C   UNL     1     -10.866   9.302  66.642  1.00  0.00     0.078 C  
HETATM   10  C   UNL     1     -10.286  10.397  66.125  1.00  0.00    -0.288 C  
BRANCH  10  11
HETATM   11  C   UNL     1     -10.997  11.654  65.830  1.00  0.00    -0.334 A  
HETATM   12  C   UNL     1     -11.339  12.048  64.528  1.00  0.00    -0.393 A  
HETATM   13  C   UNL     1     -12.021  13.247  64.318  1.00  0.00    -0.421 A  
HETATM   14  C   UNL     1     -12.388  14.063  65.380  1.00  0.00    -0.495 A  
HETATM   15  O   UNL     1     -12.356  13.662  63.061  1.00  0.00    -1.041 OA 
HETATM   16  H   UNL     1     -12.821  14.478  62.918  1.00  0.00     0.000 HD 
HETATM   17  C   UNL     1     -12.067  13.663  66.671  1.00  0.00    -0.411 A  
HETATM   18  O   UNL     1     -12.408  14.421  67.753  1.00  0.00    -0.620 OA 
HETATM   19  C   UNL     1     -11.384  12.471  66.902  1.00  0.00    -0.383 A  
HETATM   20  H   UNL     1     -12.188  14.147  68.636  1.00  0.00     0.000 HD 
ENDBRANCH  10  11
ENDBRANCH   6   9
TORSDOF 2
ENDMDL
MODEL       76
REMARK 921   NORMALIZED FREE ENERGY PREDICTED BY IDOCK:   -5.14 KCAL/MOL
REMARK 922        TOTAL FREE ENERGY PREDICTED BY IDOCK:   -6.06 KCAL/MOL
REMARK 923 INTER-LIGAND FREE ENERGY PREDICTED BY IDOCK:   -5.73 KCAL/MOL
REMARK 924 INTRA-LIGAND FREE ENERGY PREDICTED BY IDOCK:   -0.33 KCAL/MOL
REMARK 927      BINDING AFFINITY PREDICTED BY RF-SCORE:    0.00 PKD
ROOT
HETATM    1  O   UNL     1      -6.834  21.021  66.351  1.00  0.00    -0.465 OA 
HETATM    2  H   UNL     1      -5.893  21.123  66.425  1.00  0.00     0.000 HD 
HETATM    3  C   UNL     1      -7.476  19.940  66.881  1.00  0.00    -0.251 A  
HETATM    4  C   UNL     1      -8.853  19.790  66.773  1.00  0.00    -0.410 A  
HETATM    5  C   UNL     1      -9.471  18.681  67.360  1.00  0.00    -0.315 A  
HETATM    6  C   UNL     1      -8.719  17.716  68.047  1.00  0.00    -0.253 A  
HETATM    7  C   UNL     1      -6.710  18.995  67.551  1.00  0.00    -0.214 A  
HETATM    8  C   UNL     1      -7.330  17.888  68.138  1.00  0.00    -0.241 A  
ENDROOT
BRANCH   6   9
HETATM    9  C   UNL     1      -9.427  16.620  68.728  1.00  0.00    -0.258 C  
HETATM   10  C   UNL     1     -10.549  16.764  69.451  1.00  0.00    -0.318 C  
BRANCH  10  11
HETATM   11  C   UNL     1     -11.280  15.651  70.084  1.00  0.00    -0.346 A  
HETATM   12  C   UNL     1     -11.422  14.392  69.480  1.00  0.00    -0.333 A  
HETATM   13  C   UNL     1     -12.119  13.378  70.137  1.00  0.00    -0.344 A  
HETATM   14  C   UNL     1     -12.670  13.581  71.396  1.00  0.00    -0.423 A  
HETATM   15  O   UNL     1     -12.283  12.147  69.570  1.00  0.00    -0.222 OA 
HETATM   16  H   UNL     1     -12.757  11.457  70.017  1.00  0.00     0.000 HD 
HETATM   17  C   UNL     1     -12.513  14.821  72.002  1.00  0.00    -0.336 A  
HETATM   18  O   UNL     1     -13.028  15.076  73.239  1.00  0.00    -0.477 OA 
HETATM   19  C   UNL     1     -11.823  15.848  71.361  1.00  0.00    -0.524 A  
HETATM   20  H   UNL     1     -12.920  15.924  73.653  1.00  0.00     0.000 HD 
ENDBRANCH  10  11
ENDBRANCH   6   9
TORSDOF 2
ENDMDL
MODEL       77
REMARK 921   NORMALIZED FREE ENERGY PREDICTED BY IDOCK:   -5.12 KCAL/MOL
REMARK 922        TOTAL FREE ENERGY PREDICTED BY IDOCK:   -6.04 KCAL/MOL
REMARK 923 INTER-LIGAND FREE ENERGY PREDICTED BY IDOCK:   -5.72 KCAL/MOL
REMARK 924 INTRA-LIGAND FREE ENERGY PREDICTED BY IDOCK:   -0.33 KCAL/MOL
REMARK 927      BINDING AFFINITY PREDICTED BY RF-SCORE:    0.00 PKD
ROOT
HETATM    1  O   UNL     1     -11.275  17.259  64.550  1.00  0.00    -1.083 OA 
HETATM    2  H   UNL     1     -11.932  17.494  63.905  1.00  0.00     0.000 HD 
HETATM    3  C   UNL     1     -11.103  15.967  64.953  1.00  0.00    -0.370 A  
HETATM    4  C   UNL     1     -10.141  15.624  65.896  1.00  0.00    -0.378 A  
HETATM    5  C   UNL     1      -9.981  14.282  66.255  1.00  0.00    -0.319 A  
HETATM    6  C   UNL     1     -10.782  13.282  65.684  1.00  0.00    -0.292 A  
HETATM    7  C   UNL     1     -11.912  14.996  64.379  1.00  0.00    -0.366 A  
HETATM    8  C   UNL     1     -11.749  13.655  64.739  1.00  0.00    -0.399 A  
ENDROOT
BRANCH   6   9
HETATM    9  C   UNL     1     -10.509  11.876  66.023  1.00  0.00    -0.282 C  
HETATM   10  C   UNL     1      -9.961  10.978  65.189  1.00  0.00    -0.333 C  
BRANCH  10  11
HETATM   11  C   UNL     1      -9.640   9.587  65.557  1.00  0.00    -0.349 A  
HETATM   12  C   UNL     1      -8.508   8.913  65.074  1.00  0.00    -0.194 A  
HETATM   13  C   UNL     1      -8.257   7.599  65.469  1.00  0.00    -0.135 A  
HETATM   14  C   UNL     1      -9.102   6.937  66.351  1.00  0.00    -0.185 A  
HETATM   15  O   UNL     1      -7.171   6.913  65.006  1.00  0.00    -0.068 OA 
HETATM   16  H   UNL     1      -7.000   6.018  65.276  1.00  0.00     0.000 HD 
HETATM   17  C   UNL     1     -10.212   7.611  66.845  1.00  0.00    -0.294 A  
HETATM   18  O   UNL     1     -11.073   7.015  67.719  1.00  0.00    -0.495 OA 
HETATM   19  C   UNL     1     -10.482   8.923  66.460  1.00  0.00    -0.175 A  
HETATM   20  H   UNL     1     -11.832   7.476  68.056  1.00  0.00     0.000 HD 
ENDBRANCH  10  11
ENDBRANCH   6   9
TORSDOF 2
ENDMDL
MODEL       78
REMARK 921   NORMALIZED FREE ENERGY PREDICTED BY IDOCK:   -5.12 KCAL/MOL
REMARK 922        TOTAL FREE ENERGY PREDICTED BY IDOCK:   -6.04 KCAL/MOL
REMARK 923 INTER-LIGAND FREE ENERGY PREDICTED BY IDOCK:   -5.71 KCAL/MOL
REMARK 924 INTRA-LIGAND FREE ENERGY PREDICTED BY IDOCK:   -0.34 KCAL/MOL
REMARK 927      BINDING AFFINITY PREDICTED BY RF-SCORE:    0.00 PKD
ROOT
HETATM    1  O   UNL     1      -9.314   9.017  62.718  1.00  0.00    -0.492 OA 
HETATM    2  H   UNL     1      -9.056   8.185  63.096  1.00  0.00     0.000 HD 
HETATM    3  C   UNL     1      -9.583  10.101  63.502  1.00  0.00    -0.191 A  
HETATM    4  C   UNL     1      -9.960  11.319  62.949  1.00  0.00    -0.282 A  
HETATM    5  C   UNL     1     -10.196  12.410  63.791  1.00  0.00    -0.404 A  
HETATM    6  C   UNL     1     -10.065  12.289  65.183  1.00  0.00    -0.284 A  
HETATM    7  C   UNL     1      -9.453   9.955  64.876  1.00  0.00    -0.355 A  
HETATM    8  C   UNL     1      -9.688  11.049  65.716  1.00  0.00    -0.268 A  
ENDROOT
BRANCH   6   9
HETATM    9  C   UNL     1     -10.229  13.492  66.017  1.00  0.00    -0.308 C  
HETATM   10  C   UNL     1     -10.132  14.754  65.570  1.00  0.00    -0.409 C  
BRANCH  10  11
HETATM   11  C   UNL     1     -10.353  15.951  66.402  1.00  0.00    -0.313 A  
HETATM   12  C   UNL     1     -10.616  15.883  67.779  1.00  0.00    -0.302 A  
HETATM   13  C   UNL     1     -10.807  17.055  68.511  1.00  0.00    -0.310 A  
HETATM   14  C   UNL     1     -10.727  18.304  67.907  1.00  0.00    -0.335 A  
HETATM   15  O   UNL     1     -11.076  17.021  69.849  1.00  0.00    -0.368 OA 
HETATM   16  H   UNL     1     -11.205  17.819  70.348  1.00  0.00     0.000 HD 
HETATM   17  C   UNL     1     -10.447  18.371  66.548  1.00  0.00    -0.381 A  
HETATM   18  O   UNL     1     -10.351  19.569  65.903  1.00  0.00    -0.470 OA 
HETATM   19  C   UNL     1     -10.257  17.212  65.798  1.00  0.00    -0.234 A  
HETATM   20  H   UNL     1     -10.160  19.615  64.974  1.00  0.00     0.000 HD 
ENDBRANCH  10  11
ENDBRANCH   6   9
TORSDOF 2
ENDMDL
MODEL       79
REMARK 921   NORMALIZED FREE ENERGY PREDICTED BY IDOCK:   -5.11 KCAL/MOL
REMARK 922        TOTAL FREE ENERGY PREDICTED BY IDOCK:   -6.03 KCAL/MOL
REMARK 923 INTER-LIGAND FREE ENERGY PREDICTED BY IDOCK:   -5.70 KCAL/MOL
REMARK 924 INTRA-LIGAND FREE ENERGY PREDICTED BY IDOCK:   -0.33 KCAL/MOL
REMARK 927      BINDING AFFINITY PREDICTED BY RF-SCORE:    0.00 PKD
ROOT
HETATM    1  O   UNL     1     -10.208   9.954  64.507  1.00  0.00    -0.378 OA 
HETATM    2  H   UNL     1     -10.021   9.242  65.107  1.00  0.00     0.000 HD 
HETATM    3  C   UNL     1     -10.209  11.254  64.923  1.00  0.00    -0.286 A  
HETATM    4  C   UNL     1     -10.483  12.295  64.045  1.00  0.00    -0.427 A  
HETATM    5  C   UNL     1     -10.441  13.613  64.510  1.00  0.00    -0.411 A  
HETATM    6  C   UNL     1     -10.135  13.896  65.850  1.00  0.00    -0.331 A  
HETATM    7  C   UNL     1      -9.910  11.508  66.255  1.00  0.00    -0.245 A  
HETATM    8  C   UNL     1      -9.868  12.827  66.717  1.00  0.00    -0.242 A  
ENDROOT
BRANCH   6   9
HETATM    9  C   UNL     1     -10.009  15.303  66.266  1.00  0.00    -0.304 C  
HETATM   10  C   UNL     1      -8.906  15.848  66.804  1.00  0.00    -0.294 C  
BRANCH  10  11
HETATM   11  C   UNL     1      -8.772  17.270  67.166  1.00  0.00    -0.231 A  
HETATM   12  C   UNL     1      -7.976  17.713  68.233  1.00  0.00    -0.272 A  
HETATM   13  C   UNL     1      -7.885  19.076  68.517  1.00  0.00    -0.340 A  
HETATM   14  C   UNL     1      -8.559  20.019  67.751  1.00  0.00    -0.347 A  
HETATM   15  O   UNL     1      -7.128  19.536  69.557  1.00  0.00    -0.323 OA 
HETATM   16  H   UNL     1      -7.066  20.463  69.750  1.00  0.00     0.000 HD 
HETATM   17  C   UNL     1      -9.331  19.582  66.682  1.00  0.00    -0.358 A  
HETATM   18  O   UNL     1     -10.010  20.462  65.891  1.00  0.00    -0.620 OA 
HETATM   19  C   UNL     1      -9.438  18.225  66.383  1.00  0.00    -0.290 A  
HETATM   20  H   UNL     1     -10.537  20.163  65.161  1.00  0.00     0.000 HD 
ENDBRANCH  10  11
ENDBRANCH   6   9
TORSDOF 2
ENDMDL
MODEL       80
REMARK 921   NORMALIZED FREE ENERGY PREDICTED BY IDOCK:   -5.08 KCAL/MOL
REMARK 922        TOTAL FREE ENERGY PREDICTED BY IDOCK:   -5.99 KCAL/MOL
REMARK 923 INTER-LIGAND FREE ENERGY PREDICTED BY IDOCK:   -5.67 KCAL/MOL
REMARK 924 INTRA-LIGAND FREE ENERGY PREDICTED BY IDOCK:   -0.32 KCAL/MOL
REMARK 927      BINDING AFFINITY PREDICTED BY RF-SCORE:    0.00 PKD
ROOT
HETATM    1  O   UNL     1      -6.773  21.374  66.002  1.00  0.00    -0.529 OA 
HETATM    2  H   UNL     1      -5.922  21.480  65.593  1.00  0.00     0.000 HD 
HETATM    3  C   UNL     1      -7.323  20.140  66.193  1.00  0.00    -0.284 A  
HETATM    4  C   UNL     1      -8.568  19.986  66.791  1.00  0.00    -0.396 A  
HETATM    5  C   UNL     1      -9.077  18.700  66.995  1.00  0.00    -0.295 A  
HETATM    6  C   UNL     1      -8.351  17.566  66.597  1.00  0.00    -0.291 A  
HETATM    7  C   UNL     1      -6.590  19.034  65.786  1.00  0.00    -0.289 A  
HETATM    8  C   UNL     1      -7.100  17.748  65.992  1.00  0.00    -0.335 A  
ENDROOT
BRANCH   6   9
HETATM    9  C   UNL     1      -8.887  16.233  66.922  1.00  0.00    -0.242 C  
HETATM   10  C   UNL     1     -10.191  15.944  67.061  1.00  0.00    -0.283 C  
BRANCH  10  11
HETATM   11  C   UNL     1     -10.719  14.595  67.331  1.00  0.00    -0.280 A  
HETATM   12  C   UNL     1     -10.626  13.978  68.588  1.00  0.00    -0.263 A  
HETATM   13  C   UNL     1     -11.156  12.702  68.780  1.00  0.00    -0.263 A  
HETATM   14  C   UNL     1     -11.795  12.024  67.750  1.00  0.00    -0.308 A  
HETATM   15  O   UNL     1     -11.070  12.072  69.989  1.00  0.00    -0.472 OA 
HETATM   16  H   UNL     1     -11.431  11.203  70.119  1.00  0.00     0.000 HD 
HETATM   17  C   UNL     1     -11.905  12.642  66.511  1.00  0.00    -0.396 A  
HETATM   18  O   UNL     1     -12.526  12.027  65.464  1.00  0.00    -0.409 OA 
HETATM   19  C   UNL     1     -11.379  13.915  66.297  1.00  0.00    -0.329 A  
HETATM   20  H   UNL     1     -12.601  12.450  64.617  1.00  0.00     0.000 HD 
ENDBRANCH  10  11
ENDBRANCH   6   9
TORSDOF 2
ENDMDL
MODEL       81
REMARK 921   NORMALIZED FREE ENERGY PREDICTED BY IDOCK:   -5.07 KCAL/MOL
REMARK 922        TOTAL FREE ENERGY PREDICTED BY IDOCK:   -5.99 KCAL/MOL
REMARK 923 INTER-LIGAND FREE ENERGY PREDICTED BY IDOCK:   -5.66 KCAL/MOL
REMARK 924 INTRA-LIGAND FREE ENERGY PREDICTED BY IDOCK:   -0.33 KCAL/MOL
REMARK 927      BINDING AFFINITY PREDICTED BY RF-SCORE:    0.00 PKD
ROOT
HETATM    1  O   UNL     1     -11.067   9.484  67.516  1.00  0.00    -0.450 OA 
HETATM    2  H   UNL     1     -10.384   8.852  67.325  1.00  0.00     0.000 HD 
HETATM    3  C   UNL     1     -10.776  10.795  67.757  1.00  0.00    -0.251 A  
HETATM    4  C   UNL     1     -11.775  11.720  68.035  1.00  0.00    -0.363 A  
HETATM    5  C   UNL     1     -11.431  13.059  68.245  1.00  0.00    -0.347 A  
HETATM    6  C   UNL     1     -10.093  13.478  68.185  1.00  0.00    -0.250 A  
HETATM    7  C   UNL     1      -9.445  11.185  67.699  1.00  0.00    -0.173 A  
HETATM    8  C   UNL     1      -9.103  12.525  67.907  1.00  0.00    -0.199 A  
ENDROOT
BRANCH   6   9
HETATM    9  C   UNL     1      -9.794  14.914  68.317  1.00  0.00    -0.218 C  
HETATM   10  C   UNL     1     -10.050  15.839  67.378  1.00  0.00    -0.246 C  
BRANCH  10  11
HETATM   11  C   UNL     1      -9.797  17.282  67.542  1.00  0.00    -0.275 A  
HETATM   12  C   UNL     1      -9.227  18.075  66.534  1.00  0.00    -0.286 A  
HETATM   13  C   UNL     1      -9.023  19.438  66.750  1.00  0.00    -0.331 A  
HETATM   14  C   UNL     1      -9.388  20.041  67.947  1.00  0.00    -0.438 A  
HETATM   15  O   UNL     1      -8.460  20.232  65.792  1.00  0.00    -0.536 OA 
HETATM   16  H   UNL     1      -8.321  21.160  65.939  1.00  0.00     0.000 HD 
HETATM   17  C   UNL     1      -9.970  19.260  68.938  1.00  0.00    -0.427 A  
HETATM   18  O   UNL     1     -10.354  19.798  70.131  1.00  0.00    -0.505 OA 
HETATM   19  C   UNL     1     -10.179  17.896  68.743  1.00  0.00    -0.362 A  
HETATM   20  H   UNL     1     -10.751  19.264  70.808  1.00  0.00     0.000 HD 
ENDBRANCH  10  11
ENDBRANCH   6   9
TORSDOF 2
ENDMDL
MODEL       82
REMARK 921   NORMALIZED FREE ENERGY PREDICTED BY IDOCK:   -5.03 KCAL/MOL
REMARK 922        TOTAL FREE ENERGY PREDICTED BY IDOCK:   -5.94 KCAL/MOL
REMARK 923 INTER-LIGAND FREE ENERGY PREDICTED BY IDOCK:   -5.63 KCAL/MOL
REMARK 924 INTRA-LIGAND FREE ENERGY PREDICTED BY IDOCK:   -0.31 KCAL/MOL
REMARK 927      BINDING AFFINITY PREDICTED BY RF-SCORE:    0.00 PKD
ROOT
HETATM    1  O   UNL     1     -12.444  14.264  63.235  1.00  0.00    -1.133 OA 
HETATM    2  H   UNL     1     -12.224  14.208  62.313  1.00  0.00     0.000 HD 
HETATM    3  C   UNL     1     -11.958  13.365  64.140  1.00  0.00    -0.450 A  
HETATM    4  C   UNL     1     -12.281  13.448  65.489  1.00  0.00    -0.499 A  
HETATM    5  C   UNL     1     -11.733  12.523  66.383  1.00  0.00    -0.458 A  
HETATM    6  C   UNL     1     -10.870  11.511  65.935  1.00  0.00    -0.316 A  
HETATM    7  C   UNL     1     -11.111  12.369  63.672  1.00  0.00    -0.535 A  
HETATM    8  C   UNL     1     -10.563  11.447  64.569  1.00  0.00    -0.390 A  
ENDROOT
BRANCH   6   9
HETATM    9  C   UNL     1     -10.244  10.623  66.929  1.00  0.00    -0.272 C  
HETATM   10  C   UNL     1     -10.447   9.298  67.010  1.00  0.00    -0.303 C  
BRANCH  10  11
HETATM   11  C   UNL     1      -9.772   8.410  67.974  1.00  0.00    -0.184 A  
HETATM   12  C   UNL     1      -8.419   8.548  68.319  1.00  0.00    -0.135 A  
HETATM   13  C   UNL     1      -7.844   7.679  69.247  1.00  0.00    -0.121 A  
HETATM   14  C   UNL     1      -8.590   6.678  69.856  1.00  0.00    -0.140 A  
HETATM   15  O   UNL     1      -6.527   7.781  69.593  1.00  0.00    -0.031 OA 
HETATM   16  H   UNL     1      -6.135   7.190  70.224  1.00  0.00     0.000 HD 
HETATM   17  C   UNL     1      -9.934   6.555  69.530  1.00  0.00    -0.159 A  
HETATM   18  O   UNL     1     -10.717   5.595  70.101  1.00  0.00    -0.296 OA 
HETATM   19  C   UNL     1     -10.527   7.410  68.603  1.00  0.00    -0.211 A  
HETATM   20  H   UNL     1     -11.636   5.511  69.877  1.00  0.00     0.000 HD 
ENDBRANCH  10  11
ENDBRANCH   6   9
TORSDOF 2
ENDMDL
MODEL       83
REMARK 921   NORMALIZED FREE ENERGY PREDICTED BY IDOCK:   -5.02 KCAL/MOL
REMARK 922        TOTAL FREE ENERGY PREDICTED BY IDOCK:   -5.93 KCAL/MOL
REMARK 923 INTER-LIGAND FREE ENERGY PREDICTED BY IDOCK:   -5.59 KCAL/MOL
REMARK 924 INTRA-LIGAND FREE ENERGY PREDICTED BY IDOCK:   -0.34 KCAL/MOL
REMARK 927      BINDING AFFINITY PREDICTED BY RF-SCORE:    0.00 PKD
ROOT
HETATM    1  O   UNL     1     -10.976  17.303  68.110  1.00  0.00    -0.347 OA 
HETATM    2  H   UNL     1     -10.776  17.636  67.243  1.00  0.00     0.000 HD 
HETATM    3  C   UNL     1     -11.137  15.969  68.341  1.00  0.00    -0.351 A  
HETATM    4  C   UNL     1     -11.429  15.483  69.610  1.00  0.00    -0.337 A  
HETATM    5  C   UNL     1     -11.554  14.103  69.804  1.00  0.00    -0.351 A  
HETATM    6  C   UNL     1     -11.398  13.208  68.735  1.00  0.00    -0.333 A  
HETATM    7  C   UNL     1     -10.984  15.102  67.267  1.00  0.00    -0.327 A  
HETATM    8  C   UNL     1     -11.108  13.723  67.464  1.00  0.00    -0.295 A  
ENDROOT
BRANCH   6   9
HETATM    9  C   UNL     1     -11.444  11.762  69.011  1.00  0.00    -0.358 C  
HETATM   10  C   UNL     1     -11.461  11.215  70.237  1.00  0.00    -0.329 C  
BRANCH  10  11
HETATM   11  C   UNL     1     -11.563   9.768  70.502  1.00  0.00    -0.365 A  
HETATM   12  C   UNL     1     -12.589   9.206  71.276  1.00  0.00    -0.351 A  
HETATM   13  C   UNL     1     -12.634   7.827  71.481  1.00  0.00    -0.333 A  
HETATM   14  C   UNL     1     -11.684   6.984  70.918  1.00  0.00    -0.387 A  
HETATM   15  O   UNL     1     -13.613   7.253  72.239  1.00  0.00    -0.508 OA 
HETATM   16  H   UNL     1     -13.643   6.314  72.378  1.00  0.00     0.000 HD 
HETATM   17  C   UNL     1     -10.679   7.538  70.135  1.00  0.00    -0.239 A  
HETATM   18  O   UNL     1      -9.723   6.759  69.552  1.00  0.00    -0.150 OA 
HETATM   19  C   UNL     1     -10.615   8.914  69.921  1.00  0.00    -0.229 A  
HETATM   20  H   UNL     1      -9.037   7.139  69.017  1.00  0.00     0.000 HD 
ENDBRANCH  10  11
ENDBRANCH   6   9
TORSDOF 2
ENDMDL
MODEL       84
REMARK 921   NORMALIZED FREE ENERGY PREDICTED BY IDOCK:   -5.01 KCAL/MOL
REMARK 922        TOTAL FREE ENERGY PREDICTED BY IDOCK:   -5.91 KCAL/MOL
REMARK 923 INTER-LIGAND FREE ENERGY PREDICTED BY IDOCK:   -5.56 KCAL/MOL
REMARK 924 INTRA-LIGAND FREE ENERGY PREDICTED BY IDOCK:   -0.35 KCAL/MOL
REMARK 927      BINDING AFFINITY PREDICTED BY RF-SCORE:    0.00 PKD
ROOT
HETATM    1  O   UNL     1      -7.499   4.984  67.748  1.00  0.00    -0.077 OA 
HETATM    2  H   UNL     1      -7.423   4.628  68.625  1.00  0.00     0.000 HD 
HETATM    3  C   UNL     1      -8.177   6.142  67.505  1.00  0.00    -0.109 A  
HETATM    4  C   UNL     1      -8.288   6.662  66.221  1.00  0.00    -0.125 A  
HETATM    5  C   UNL     1      -8.967   7.869  66.026  1.00  0.00    -0.195 A  
HETATM    6  C   UNL     1      -9.543   8.555  67.106  1.00  0.00    -0.232 A  
HETATM    7  C   UNL     1      -8.744   6.800  68.588  1.00  0.00    -0.125 A  
HETATM    8  C   UNL     1      -9.422   8.007  68.391  1.00  0.00    -0.148 A  
ENDROOT
BRANCH   6   9
HETATM    9  C   UNL     1     -10.162   9.868  66.862  1.00  0.00    -0.302 C  
HETATM   10  C   UNL     1     -10.405  10.387  65.647  1.00  0.00    -0.260 C  
BRANCH  10  11
HETATM   11  C   UNL     1     -11.075  11.679  65.413  1.00  0.00    -0.299 A  
HETATM   12  C   UNL     1     -11.435  12.130  64.134  1.00  0.00    -0.460 A  
HETATM   13  C   UNL     1     -12.077  13.359  63.982  1.00  0.00    -0.449 A  
HETATM   14  C   UNL     1     -12.386  14.151  65.080  1.00  0.00    -0.460 A  
HETATM   15  O   UNL     1     -12.428  13.829  62.749  1.00  0.00    -0.879 OA 
HETATM   16  H   UNL     1     -12.865  14.666  62.646  1.00  0.00     0.000 HD 
HETATM   17  C   UNL     1     -12.048  13.696  66.348  1.00  0.00    -0.433 A  
HETATM   18  O   UNL     1     -12.332  14.429  67.464  1.00  0.00    -0.621 OA 
HETATM   19  C   UNL     1     -11.403  12.473  66.521  1.00  0.00    -0.387 A  
HETATM   20  H   UNL     1     -12.100  14.117  68.330  1.00  0.00     0.000 HD 
ENDBRANCH  10  11
ENDBRANCH   6   9
TORSDOF 2
ENDMDL
MODEL       85
REMARK 921   NORMALIZED FREE ENERGY PREDICTED BY IDOCK:   -4.95 KCAL/MOL
REMARK 922        TOTAL FREE ENERGY PREDICTED BY IDOCK:   -5.85 KCAL/MOL
REMARK 923 INTER-LIGAND FREE ENERGY PREDICTED BY IDOCK:   -5.53 KCAL/MOL
REMARK 924 INTRA-LIGAND FREE ENERGY PREDICTED BY IDOCK:   -0.32 KCAL/MOL
REMARK 927      BINDING AFFINITY PREDICTED BY RF-SCORE:    0.00 PKD
ROOT
HETATM    1  O   UNL     1     -11.842  10.138  67.938  1.00  0.00    -0.567 OA 
HETATM    2  H   UNL     1     -11.946   9.433  67.311  1.00  0.00     0.000 HD 
HETATM    3  C   UNL     1     -11.313  11.342  67.574  1.00  0.00    -0.292 A  
HETATM    4  C   UNL     1     -11.161  12.374  68.492  1.00  0.00    -0.321 A  
HETATM    5  C   UNL     1     -10.644  13.601  68.065  1.00  0.00    -0.256 A  
HETATM    6  C   UNL     1     -10.271  13.800  66.727  1.00  0.00    -0.268 A  
HETATM    7  C   UNL     1     -10.945  11.513  66.246  1.00  0.00    -0.328 A  
HETATM    8  C   UNL     1     -10.430  12.742  65.821  1.00  0.00    -0.294 A  
ENDROOT
BRANCH   6   9
HETATM    9  C   UNL     1      -9.823  15.139  66.308  1.00  0.00    -0.317 C  
HETATM   10  C   UNL     1      -9.273  16.054  67.124  1.00  0.00    -0.221 C  
BRANCH  10  11
HETATM   11  C   UNL     1      -8.778  17.370  66.684  1.00  0.00    -0.286 A  
HETATM   12  C   UNL     1      -9.551  18.539  66.758  1.00  0.00    -0.329 A  
HETATM   13  C   UNL     1      -9.019  19.756  66.333  1.00  0.00    -0.379 A  
HETATM   14  C   UNL     1      -7.721  19.845  65.846  1.00  0.00    -0.327 A  
HETATM   15  O   UNL     1      -9.751  20.908  66.382  1.00  0.00    -0.552 OA 
HETATM   16  H   UNL     1      -9.389  21.736  66.093  1.00  0.00     0.000 HD 
HETATM   17  C   UNL     1      -6.948  18.692  65.791  1.00  0.00    -0.255 A  
HETATM   18  O   UNL     1      -5.666  18.719  65.328  1.00  0.00    -0.182 OA 
HETATM   19  C   UNL     1      -7.462  17.465  66.207  1.00  0.00    -0.354 A  
HETATM   20  H   UNL     1      -5.138  17.930  65.290  1.00  0.00     0.000 HD 
ENDBRANCH  10  11
ENDBRANCH   6   9
TORSDOF 2
ENDMDL
MODEL       86
REMARK 921   NORMALIZED FREE ENERGY PREDICTED BY IDOCK:   -4.93 KCAL/MOL
REMARK 922        TOTAL FREE ENERGY PREDICTED BY IDOCK:   -5.82 KCAL/MOL
REMARK 923 INTER-LIGAND FREE ENERGY PREDICTED BY IDOCK:   -5.50 KCAL/MOL
REMARK 924 INTRA-LIGAND FREE ENERGY PREDICTED BY IDOCK:   -0.33 KCAL/MOL
REMARK 927      BINDING AFFINITY PREDICTED BY RF-SCORE:    0.00 PKD
ROOT
HETATM    1  O   UNL     1      -9.850   4.432  69.697  1.00  0.00    -0.210 OA 
HETATM    2  H   UNL     1      -9.671   4.307  70.621  1.00  0.00     0.000 HD 
HETATM    3  C   UNL     1     -10.019   5.677  69.166  1.00  0.00    -0.183 A  
HETATM    4  C   UNL     1     -10.280   5.859  67.813  1.00  0.00    -0.223 A  
HETATM    5  C   UNL     1     -10.416   7.156  67.309  1.00  0.00    -0.372 A  
HETATM    6  C   UNL     1     -10.300   8.273  68.151  1.00  0.00    -0.253 A  
HETATM    7  C   UNL     1      -9.907   6.766  70.019  1.00  0.00    -0.179 A  
HETATM    8  C   UNL     1     -10.041   8.063  69.513  1.00  0.00    -0.196 A  
ENDROOT
BRANCH   6   9
HETATM    9  C   UNL     1     -10.354   9.618  67.555  1.00  0.00    -0.297 C  
HETATM   10  C   UNL     1     -11.199  10.591  67.933  1.00  0.00    -0.358 C  
BRANCH  10  11
HETATM   11  C   UNL     1     -11.208  11.952  67.367  1.00  0.00    -0.366 A  
HETATM   12  C   UNL     1     -11.726  13.060  68.055  1.00  0.00    -0.397 A  
HETATM   13  C   UNL     1     -11.695  14.324  67.465  1.00  0.00    -0.384 A  
HETATM   14  C   UNL     1     -11.144  14.519  66.205  1.00  0.00    -0.332 A  
HETATM   15  O   UNL     1     -12.202  15.419  68.105  1.00  0.00    -0.461 OA 
HETATM   16  H   UNL     1     -12.181  16.279  67.704  1.00  0.00     0.000 HD 
HETATM   17  C   UNL     1     -10.613  13.426  65.532  1.00  0.00    -0.290 A  
HETATM   18  O   UNL     1     -10.053  13.557  64.295  1.00  0.00    -0.705 OA 
HETATM   19  C   UNL     1     -10.637  12.154  66.102  1.00  0.00    -0.290 A  
HETATM   20  H   UNL     1      -9.691  12.810  63.836  1.00  0.00     0.000 HD 
ENDBRANCH  10  11
ENDBRANCH   6   9
TORSDOF 2
ENDMDL
MODEL       87
REMARK 921   NORMALIZED FREE ENERGY PREDICTED BY IDOCK:   -4.92 KCAL/MOL
REMARK 922        TOTAL FREE ENERGY PREDICTED BY IDOCK:   -5.81 KCAL/MOL
REMARK 923 INTER-LIGAND FREE ENERGY PREDICTED BY IDOCK:   -5.50 KCAL/MOL
REMARK 924 INTRA-LIGAND FREE ENERGY PREDICTED BY IDOCK:   -0.31 KCAL/MOL
REMARK 927      BINDING AFFINITY PREDICTED BY RF-SCORE:    0.00 PKD
ROOT
HETATM    1  O   UNL     1      -8.349  17.313  65.787  1.00  0.00    -0.535 OA 
HETATM    2  H   UNL     1      -7.408  17.308  65.656  1.00  0.00     0.000 HD 
HETATM    3  C   UNL     1      -8.977  16.318  66.479  1.00  0.00    -0.278 A  
HETATM    4  C   UNL     1     -10.353  16.326  66.670  1.00  0.00    -0.302 A  
HETATM    5  C   UNL     1     -10.948  15.301  67.413  1.00  0.00    -0.321 A  
HETATM    6  C   UNL     1     -10.176  14.264  67.958  1.00  0.00    -0.226 A  
HETATM    7  C   UNL     1      -8.193  15.300  67.004  1.00  0.00    -0.267 A  
HETATM    8  C   UNL     1      -8.790  14.277  67.747  1.00  0.00    -0.185 A  
ENDROOT
BRANCH   6   9
HETATM    9  C   UNL     1     -10.837  13.263  68.813  1.00  0.00    -0.273 C  
HETATM   10  C   UNL     1     -10.550  11.951  68.818  1.00  0.00    -0.234 C  
BRANCH  10  11
HETATM   11  C   UNL     1     -11.180  10.966  69.717  1.00  0.00    -0.351 A  
HETATM   12  C   UNL     1     -12.171  11.310  70.649  1.00  0.00    -0.489 A  
HETATM   13  C   UNL     1     -12.733  10.327  71.464  1.00  0.00    -0.452 A  
HETATM   14  C   UNL     1     -12.343   8.998  71.364  1.00  0.00    -0.380 A  
HETATM   15  O   UNL     1     -13.690  10.633  72.389  1.00  0.00    -0.507 OA 
HETATM   16  H   UNL     1     -14.073   9.964  72.943  1.00  0.00     0.000 HD 
HETATM   17  C   UNL     1     -11.376   8.654  70.427  1.00  0.00    -0.187 A  
HETATM   18  O   UNL     1     -10.958   7.364  70.280  1.00  0.00    -0.248 OA 
HETATM   19  C   UNL     1     -10.800   9.621  69.606  1.00  0.00    -0.266 A  
HETATM   20  H   UNL     1     -10.298   7.130  69.640  1.00  0.00     0.000 HD 
ENDBRANCH  10  11
ENDBRANCH   6   9
TORSDOF 2
ENDMDL
MODEL       88
REMARK 921   NORMALIZED FREE ENERGY PREDICTED BY IDOCK:   -4.88 KCAL/MOL
REMARK 922        TOTAL FREE ENERGY PREDICTED BY IDOCK:   -5.78 KCAL/MOL
REMARK 923 INTER-LIGAND FREE ENERGY PREDICTED BY IDOCK:   -5.46 KCAL/MOL
REMARK 924 INTRA-LIGAND FREE ENERGY PREDICTED BY IDOCK:   -0.31 KCAL/MOL
REMARK 927      BINDING AFFINITY PREDICTED BY RF-SCORE:    0.00 PKD
ROOT
HETATM    1  O   UNL     1     -10.829  16.463  67.149  1.00  0.00    -0.279 OA 
HETATM    2  H   UNL     1     -10.350  16.949  67.809  1.00  0.00     0.000 HD 
HETATM    3  C   UNL     1     -10.897  15.101  67.178  1.00  0.00    -0.320 A  
HETATM    4  C   UNL     1     -11.597  14.389  66.211  1.00  0.00    -0.377 A  
HETATM    5  C   UNL     1     -11.665  12.996  66.300  1.00  0.00    -0.440 A  
HETATM    6  C   UNL     1     -11.030  12.308  67.345  1.00  0.00    -0.298 A  
HETATM    7  C   UNL     1     -10.256  14.442  68.218  1.00  0.00    -0.241 A  
HETATM    8  C   UNL     1     -10.326  13.048  68.305  1.00  0.00    -0.256 A  
ENDROOT
BRANCH   6   9
HETATM    9  C   UNL     1     -11.213  10.850  67.448  1.00  0.00    -0.345 C  
HETATM   10  C   UNL     1     -10.294   9.994  67.922  1.00  0.00    -0.249 C  
BRANCH  10  11
HETATM   11  C   UNL     1     -10.508   8.543  68.072  1.00  0.00    -0.249 A  
HETATM   12  C   UNL     1     -10.715   7.687  66.980  1.00  0.00    -0.340 A  
HETATM   13  C   UNL     1     -10.902   6.320  67.189  1.00  0.00    -0.381 A  
HETATM   14  C   UNL     1     -10.872   5.777  68.467  1.00  0.00    -0.257 A  
HETATM   15  O   UNL     1     -11.118   5.465  66.147  1.00  0.00    -0.748 OA 
HETATM   16  H   UNL     1     -11.245   4.535  66.290  1.00  0.00     0.000 HD 
HETATM   17  C   UNL     1     -10.647   6.621  69.547  1.00  0.00    -0.241 A  
HETATM   18  O   UNL     1     -10.601   6.142  70.824  1.00  0.00    -0.218 OA 
HETATM   19  C   UNL     1     -10.461   7.989  69.359  1.00  0.00    -0.223 A  
HETATM   20  H   UNL     1     -10.447   6.720  71.562  1.00  0.00     0.000 HD 
ENDBRANCH  10  11
ENDBRANCH   6   9
TORSDOF 2
ENDMDL
MODEL       89
REMARK 921   NORMALIZED FREE ENERGY PREDICTED BY IDOCK:   -4.87 KCAL/MOL
REMARK 922        TOTAL FREE ENERGY PREDICTED BY IDOCK:   -5.76 KCAL/MOL
REMARK 923 INTER-LIGAND FREE ENERGY PREDICTED BY IDOCK:   -5.42 KCAL/MOL
REMARK 924 INTRA-LIGAND FREE ENERGY PREDICTED BY IDOCK:   -0.33 KCAL/MOL
REMARK 927      BINDING AFFINITY PREDICTED BY RF-SCORE:    0.00 PKD
ROOT
HETATM    1  O   UNL     1      -8.074   6.600  66.002  1.00  0.00    -0.110 OA 
HETATM    2  H   UNL     1      -8.067   6.121  66.822  1.00  0.00     0.000 HD 
HETATM    3  C   UNL     1      -8.609   7.851  65.912  1.00  0.00    -0.153 A  
HETATM    4  C   UNL     1      -8.618   8.552  64.712  1.00  0.00    -0.106 A  
HETATM    5  C   UNL     1      -9.150   9.845  64.677  1.00  0.00    -0.288 A  
HETATM    6  C   UNL     1      -9.680  10.438  65.832  1.00  0.00    -0.272 A  
HETATM    7  C   UNL     1      -9.134   8.416  67.067  1.00  0.00    -0.171 A  
HETATM    8  C   UNL     1      -9.663   9.709  67.029  1.00  0.00    -0.232 A  
ENDROOT
BRANCH   6   9
HETATM    9  C   UNL     1     -10.139  11.836  65.763  1.00  0.00    -0.270 C  
HETATM   10  C   UNL     1      -9.659  12.838  66.518  1.00  0.00    -0.257 C  
BRANCH  10  11
HETATM   11  C   UNL     1     -10.087  14.244  66.402  1.00  0.00    -0.295 A  
HETATM   12  C   UNL     1      -9.975  15.164  67.456  1.00  0.00    -0.225 A  
HETATM   13  C   UNL     1     -10.390  16.484  67.278  1.00  0.00    -0.296 A  
HETATM   14  C   UNL     1     -10.903  16.920  66.063  1.00  0.00    -0.005 A  
HETATM   15  O   UNL     1     -10.305  17.397  68.289  1.00  0.00    -0.332 OA 
HETATM   16  H   UNL     1     -10.587  18.296  68.168  1.00  0.00     0.000 HD 
HETATM   17  C   UNL     1     -10.995  16.016  65.013  1.00  0.00    -0.380 A  
HETATM   18  O   UNL     1     -11.485  16.389  63.796  1.00  0.00    -1.590 OA 
HETATM   19  C   UNL     1     -10.589  14.692  65.172  1.00  0.00    -0.441 A  
HETATM   20  H   UNL     1     -11.547  15.770  63.079  1.00  0.00     0.000 HD 
ENDBRANCH  10  11
ENDBRANCH   6   9
TORSDOF 2
ENDMDL
MODEL       90
REMARK 921   NORMALIZED FREE ENERGY PREDICTED BY IDOCK:   -4.87 KCAL/MOL
REMARK 922        TOTAL FREE ENERGY PREDICTED BY IDOCK:   -5.76 KCAL/MOL
REMARK 923 INTER-LIGAND FREE ENERGY PREDICTED BY IDOCK:   -5.44 KCAL/MOL
REMARK 924 INTRA-LIGAND FREE ENERGY PREDICTED BY IDOCK:   -0.31 KCAL/MOL
REMARK 927      BINDING AFFINITY PREDICTED BY RF-SCORE:    0.00 PKD
ROOT
HETATM    1  O   UNL     1     -12.575  14.549  63.414  1.00  0.00    -1.028 OA 
HETATM    2  H   UNL     1     -12.429  14.533  62.475  1.00  0.00     0.000 HD 
HETATM    3  C   UNL     1     -12.087  13.568  64.227  1.00  0.00    -0.431 A  
HETATM    4  C   UNL     1     -12.302  13.592  65.600  1.00  0.00    -0.518 A  
HETATM    5  C   UNL     1     -11.755  12.582  66.397  1.00  0.00    -0.458 A  
HETATM    6  C   UNL     1     -11.002  11.543  65.829  1.00  0.00    -0.305 A  
HETATM    7  C   UNL     1     -11.351  12.547  63.642  1.00  0.00    -0.555 A  
HETATM    8  C   UNL     1     -10.804  11.539  64.441  1.00  0.00    -0.405 A  
ENDROOT
BRANCH   6   9
HETATM    9  C   UNL     1     -10.368  10.558  66.721  1.00  0.00    -0.301 C  
HETATM   10  C   UNL     1     -10.273   9.243  66.468  1.00  0.00    -0.316 C  
BRANCH  10  11
HETATM   11  C   UNL     1      -9.588   8.274  67.343  1.00  0.00    -0.205 A  
HETATM   12  C   UNL     1     -10.180   7.737  68.496  1.00  0.00    -0.227 A  
HETATM   13  C   UNL     1      -9.479   6.817  69.276  1.00  0.00    -0.142 A  
HETATM   14  C   UNL     1      -8.201   6.401  68.927  1.00  0.00    -0.118 A  
HETATM   15  O   UNL     1     -10.025   6.287  70.410  1.00  0.00    -0.174 OA 
HETATM   16  H   UNL     1      -9.548   5.660  70.941  1.00  0.00     0.000 HD 
HETATM   17  C   UNL     1      -7.622   6.918  67.774  1.00  0.00    -0.107 A  
HETATM   18  O   UNL     1      -6.372   6.542  67.379  1.00  0.00    -0.034 OA 
HETATM   19  C   UNL     1      -8.304   7.841  66.983  1.00  0.00    -0.117 A  
HETATM   20  H   UNL     1      -5.977   6.895  66.591  1.00  0.00     0.000 HD 
ENDBRANCH  10  11
ENDBRANCH   6   9
TORSDOF 2
ENDMDL
MODEL       91
REMARK 921   NORMALIZED FREE ENERGY PREDICTED BY IDOCK:   -4.86 KCAL/MOL
REMARK 922        TOTAL FREE ENERGY PREDICTED BY IDOCK:   -5.75 KCAL/MOL
REMARK 923 INTER-LIGAND FREE ENERGY PREDICTED BY IDOCK:   -5.42 KCAL/MOL
REMARK 924 INTRA-LIGAND FREE ENERGY PREDICTED BY IDOCK:   -0.32 KCAL/MOL
REMARK 927      BINDING AFFINITY PREDICTED BY RF-SCORE:    0.00 PKD
ROOT
HETATM    1  O   UNL     1     -13.280  11.602  62.974  1.00  0.00    -0.696 OA 
HETATM    2  H   UNL     1     -14.206  11.765  63.109  1.00  0.00     0.000 HD 
HETATM    3  C   UNL     1     -12.333  12.155  63.786  1.00  0.00    -0.532 A  
HETATM    4  C   UNL     1     -10.979  11.915  63.587  1.00  0.00    -0.511 A  
HETATM    5  C   UNL     1     -10.047  12.479  64.464  1.00  0.00    -0.273 A  
HETATM    6  C   UNL     1     -10.461  13.288  65.534  1.00  0.00    -0.295 A  
HETATM    7  C   UNL     1     -12.766  12.957  64.833  1.00  0.00    -0.474 A  
HETATM    8  C   UNL     1     -11.832  13.518  65.710  1.00  0.00    -0.403 A  
ENDROOT
BRANCH   6   9
HETATM    9  C   UNL     1      -9.448  13.778  66.484  1.00  0.00    -0.282 C  
HETATM   10  C   UNL     1      -9.303  15.059  66.857  1.00  0.00    -0.258 C  
BRANCH  10  11
HETATM   11  C   UNL     1      -8.322  15.531  67.851  1.00  0.00    -0.148 A  
HETATM   12  C   UNL     1      -7.908  16.869  67.938  1.00  0.00    -0.180 A  
HETATM   13  C   UNL     1      -6.982  17.251  68.909  1.00  0.00    -0.233 A  
HETATM   14  C   UNL     1      -6.465  16.333  69.813  1.00  0.00    -0.158 A  
HETATM   15  O   UNL     1      -6.551  18.543  69.010  1.00  0.00    -0.248 OA 
HETATM   16  H   UNL     1      -5.921  18.803  69.671  1.00  0.00     0.000 HD 
HETATM   17  C   UNL     1      -6.890  15.012  69.741  1.00  0.00    -0.181 A  
HETATM   18  O   UNL     1      -6.421  14.068  70.606  1.00  0.00    -0.405 OA 
HETATM   19  C   UNL     1      -7.811  14.609  68.776  1.00  0.00    -0.146 A  
HETATM   20  H   UNL     1      -6.712  13.165  70.556  1.00  0.00     0.000 HD 
ENDBRANCH  10  11
ENDBRANCH   6   9
TORSDOF 2
ENDMDL
MODEL       92
REMARK 921   NORMALIZED FREE ENERGY PREDICTED BY IDOCK:   -4.85 KCAL/MOL
REMARK 922        TOTAL FREE ENERGY PREDICTED BY IDOCK:   -5.74 KCAL/MOL
REMARK 923 INTER-LIGAND FREE ENERGY PREDICTED BY IDOCK:   -5.41 KCAL/MOL
REMARK 924 INTRA-LIGAND FREE ENERGY PREDICTED BY IDOCK:   -0.33 KCAL/MOL
REMARK 927      BINDING AFFINITY PREDICTED BY RF-SCORE:    0.00 PKD
ROOT
HETATM    1  O   UNL     1      -6.719  10.400  63.892  1.00  0.00    -0.280 OA 
HETATM    2  H   UNL     1      -6.916  10.150  62.997  1.00  0.00     0.000 HD 
HETATM    3  C   UNL     1      -7.681  10.404  64.859  1.00  0.00    -0.084 A  
HETATM    4  C   UNL     1      -7.392  10.770  66.168  1.00  0.00    -0.127 A  
HETATM    5  C   UNL     1      -8.405  10.728  67.131  1.00  0.00    -0.126 A  
HETATM    6  C   UNL     1      -9.707  10.330  66.792  1.00  0.00    -0.231 A  
HETATM    7  C   UNL     1      -8.964  10.012  64.498  1.00  0.00    -0.261 A  
HETATM    8  C   UNL     1      -9.974   9.970  65.464  1.00  0.00    -0.367 A  
ENDROOT
BRANCH   6   9
HETATM    9  C   UNL     1     -10.713  10.210  67.861  1.00  0.00    -0.317 C  
HETATM   10  C   UNL     1     -10.433   9.980  69.154  1.00  0.00    -0.238 C  
BRANCH  10  11
HETATM   11  C   UNL     1     -11.443   9.916  70.226  1.00  0.00    -0.349 A  
HETATM   12  C   UNL     1     -12.075  11.056  70.745  1.00  0.00    -0.467 A  
HETATM   13  C   UNL     1     -13.031  10.926  71.753  1.00  0.00    -0.451 A  
HETATM   14  C   UNL     1     -13.388   9.680  72.252  1.00  0.00    -0.498 A  
HETATM   15  O   UNL     1     -13.653  12.018  72.286  1.00  0.00    -0.550 OA 
HETATM   16  H   UNL     1     -14.304  11.930  72.972  1.00  0.00     0.000 HD 
HETATM   17  C   UNL     1     -12.776   8.550  71.724  1.00  0.00    -0.349 A  
HETATM   18  O   UNL     1     -13.092   7.300  72.170  1.00  0.00    -0.511 OA 
HETATM   19  C   UNL     1     -11.817   8.658  70.719  1.00  0.00    -0.197 A  
HETATM   20  H   UNL     1     -12.673   6.527  71.809  1.00  0.00     0.000 HD 
ENDBRANCH  10  11
ENDBRANCH   6   9
TORSDOF 2
ENDMDL
MODEL       93
REMARK 921   NORMALIZED FREE ENERGY PREDICTED BY IDOCK:   -4.84 KCAL/MOL
REMARK 922        TOTAL FREE ENERGY PREDICTED BY IDOCK:   -5.73 KCAL/MOL
REMARK 923 INTER-LIGAND FREE ENERGY PREDICTED BY IDOCK:   -5.40 KCAL/MOL
REMARK 924 INTRA-LIGAND FREE ENERGY PREDICTED BY IDOCK:   -0.33 KCAL/MOL
REMARK 927      BINDING AFFINITY PREDICTED BY RF-SCORE:    0.00 PKD
ROOT
HETATM    1  O   UNL     1     -12.575  14.549  63.414  1.00  0.00    -1.028 OA 
HETATM    2  H   UNL     1     -12.429  14.533  62.475  1.00  0.00     0.000 HD 
HETATM    3  C   UNL     1     -12.087  13.568  64.227  1.00  0.00    -0.431 A  
HETATM    4  C   UNL     1     -12.302  13.592  65.600  1.00  0.00    -0.518 A  
HETATM    5  C   UNL     1     -11.755  12.582  66.397  1.00  0.00    -0.458 A  
HETATM    6  C   UNL     1     -11.002  11.543  65.829  1.00  0.00    -0.305 A  
HETATM    7  C   UNL     1     -11.351  12.547  63.642  1.00  0.00    -0.555 A  
HETATM    8  C   UNL     1     -10.804  11.539  64.441  1.00  0.00    -0.405 A  
ENDROOT
BRANCH   6   9
HETATM    9  C   UNL     1     -10.368  10.558  66.721  1.00  0.00    -0.301 C  
HETATM   10  C   UNL     1     -10.273   9.243  66.468  1.00  0.00    -0.316 C  
BRANCH  10  11
HETATM   11  C   UNL     1      -9.588   8.274  67.343  1.00  0.00    -0.205 A  
HETATM   12  C   UNL     1      -9.027   7.080  66.865  1.00  0.00    -0.135 A  
HETATM   13  C   UNL     1      -8.382   6.211  67.745  1.00  0.00    -0.116 A  
HETATM   14  C   UNL     1      -8.267   6.507  69.097  1.00  0.00    -0.116 A  
HETATM   15  O   UNL     1      -7.838   5.036  67.311  1.00  0.00    -0.094 OA 
HETATM   16  H   UNL     1      -7.399   4.444  67.910  1.00  0.00     0.000 HD 
HETATM   17  C   UNL     1      -8.805   7.699  69.567  1.00  0.00    -0.139 A  
HETATM   18  O   UNL     1      -8.717   8.046  70.883  1.00  0.00    -0.131 OA 
HETATM   19  C   UNL     1      -9.456   8.580  68.705  1.00  0.00    -0.144 A  
HETATM   20  H   UNL     1      -9.085   8.860  71.204  1.00  0.00     0.000 HD 
ENDBRANCH  10  11
ENDBRANCH   6   9
TORSDOF 2
ENDMDL
MODEL       94
REMARK 921   NORMALIZED FREE ENERGY PREDICTED BY IDOCK:   -4.83 KCAL/MOL
REMARK 922        TOTAL FREE ENERGY PREDICTED BY IDOCK:   -5.71 KCAL/MOL
REMARK 923 INTER-LIGAND FREE ENERGY PREDICTED BY IDOCK:   -5.39 KCAL/MOL
REMARK 924 INTRA-LIGAND FREE ENERGY PREDICTED BY IDOCK:   -0.33 KCAL/MOL
REMARK 927      BINDING AFFINITY PREDICTED BY RF-SCORE:    0.00 PKD
ROOT
HETATM    1  O   UNL     1      -7.279  20.957  65.011  1.00  0.00    -0.507 OA 
HETATM    2  H   UNL     1      -7.691  21.589  64.435  1.00  0.00     0.000 HD 
HETATM    3  C   UNL     1      -8.019  20.124  65.798  1.00  0.00    -0.097 A  
HETATM    4  C   UNL     1      -7.415  19.199  66.642  1.00  0.00    -0.246 A  
HETATM    5  C   UNL     1      -8.216  18.344  67.406  1.00  0.00    -0.248 A  
HETATM    6  C   UNL     1      -9.616  18.414  67.338  1.00  0.00    -0.292 A  
HETATM    7  C   UNL     1      -9.401  20.215  65.719  1.00  0.00    -0.069 A  
HETATM    8  C   UNL     1     -10.200  19.359  66.483  1.00  0.00    -0.544 A  
ENDROOT
BRANCH   6   9
HETATM    9  C   UNL     1     -10.411  17.428  68.089  1.00  0.00    -0.389 C  
HETATM   10  C   UNL     1     -10.108  16.972  69.316  1.00  0.00    -0.208 C  
BRANCH  10  11
HETATM   11  C   UNL     1     -10.941  16.026  70.081  1.00  0.00    -0.369 A  
HETATM   12  C   UNL     1     -11.679  16.405  71.212  1.00  0.00    -0.249 A  
HETATM   13  C   UNL     1     -12.456  15.462  71.886  1.00  0.00    -0.377 A  
HETATM   14  C   UNL     1     -12.529  14.145  71.452  1.00  0.00    -0.438 A  
HETATM   15  O   UNL     1     -13.175  15.798  72.997  1.00  0.00    -0.484 OA 
HETATM   16  H   UNL     1     -13.704  15.156  73.456  1.00  0.00     0.000 HD 
HETATM   17  C   UNL     1     -11.814  13.775  70.320  1.00  0.00    -0.272 A  
HETATM   18  O   UNL     1     -11.853  12.497  69.843  1.00  0.00    -0.341 OA 
HETATM   19  C   UNL     1     -11.030  14.700  69.634  1.00  0.00    -0.255 A  
HETATM   20  H   UNL     1     -11.364  12.245  69.069  1.00  0.00     0.000 HD 
ENDBRANCH  10  11
ENDBRANCH   6   9
TORSDOF 2
ENDMDL
MODEL       95
REMARK 921   NORMALIZED FREE ENERGY PREDICTED BY IDOCK:   -4.71 KCAL/MOL
REMARK 922        TOTAL FREE ENERGY PREDICTED BY IDOCK:   -5.58 KCAL/MOL
REMARK 923 INTER-LIGAND FREE ENERGY PREDICTED BY IDOCK:   -5.27 KCAL/MOL
REMARK 924 INTRA-LIGAND FREE ENERGY PREDICTED BY IDOCK:   -0.32 KCAL/MOL
REMARK 927      BINDING AFFINITY PREDICTED BY RF-SCORE:    0.00 PKD
ROOT
HETATM    1  O   UNL     1     -11.707  16.273  68.627  1.00  0.00    -0.314 OA 
HETATM    2  H   UNL     1     -11.502  16.732  67.822  1.00  0.00     0.000 HD 
HETATM    3  C   UNL     1     -11.643  14.912  68.706  1.00  0.00    -0.323 A  
HETATM    4  C   UNL     1     -11.944  14.240  69.884  1.00  0.00    -0.397 A  
HETATM    5  C   UNL     1     -11.834  12.846  69.926  1.00  0.00    -0.373 A  
HETATM    6  C   UNL     1     -11.432  12.120  68.794  1.00  0.00    -0.359 A  
HETATM    7  C   UNL     1     -11.250  14.215  67.572  1.00  0.00    -0.323 A  
HETATM    8  C   UNL     1     -11.139  12.822  67.617  1.00  0.00    -0.294 A  
ENDROOT
BRANCH   6   9
HETATM    9  C   UNL     1     -11.239  10.666  68.918  1.00  0.00    -0.333 C  
HETATM   10  C   UNL     1     -10.808   9.863  67.932  1.00  0.00    -0.312 C  
BRANCH  10  11
HETATM   11  C   UNL     1     -10.565   8.417  68.083  1.00  0.00    -0.175 A  
HETATM   12  C   UNL     1     -10.057   7.848  69.261  1.00  0.00    -0.197 A  
HETATM   13  C   UNL     1      -9.859   6.470  69.341  1.00  0.00    -0.146 A  
HETATM   14  C   UNL     1     -10.170   5.633  68.277  1.00  0.00    -0.239 A  
HETATM   15  O   UNL     1      -9.355   5.890  70.470  1.00  0.00    -0.159 OA 
HETATM   16  H   UNL     1      -9.220   4.951  70.525  1.00  0.00     0.000 HD 
HETATM   17  C   UNL     1     -10.691   6.194  67.118  1.00  0.00    -0.346 A  
HETATM   18  O   UNL     1     -11.021   5.421  66.043  1.00  0.00    -0.712 OA 
HETATM   19  C   UNL     1     -10.894   7.569  67.016  1.00  0.00    -0.264 A  
HETATM   20  H   UNL     1     -11.378   5.804  65.251  1.00  0.00     0.000 HD 
ENDBRANCH  10  11
ENDBRANCH   6   9
TORSDOF 2
ENDMDL
MODEL       96
REMARK 921   NORMALIZED FREE ENERGY PREDICTED BY IDOCK:   -4.68 KCAL/MOL
REMARK 922        TOTAL FREE ENERGY PREDICTED BY IDOCK:   -5.55 KCAL/MOL
REMARK 923 INTER-LIGAND FREE ENERGY PREDICTED BY IDOCK:   -5.23 KCAL/MOL
REMARK 924 INTRA-LIGAND FREE ENERGY PREDICTED BY IDOCK:   -0.32 KCAL/MOL
REMARK 927      BINDING AFFINITY PREDICTED BY RF-SCORE:    0.00 PKD
ROOT
HETATM    1  O   UNL     1      -8.962   8.872  62.333  1.00  0.00    -0.396 OA 
HETATM    2  H   UNL     1      -8.591   8.021  62.536  1.00  0.00     0.000 HD 
HETATM    3  C   UNL     1      -9.239   9.780  63.312  1.00  0.00    -0.181 A  
HETATM    4  C   UNL     1      -9.783  11.024  63.014  1.00  0.00    -0.381 A  
HETATM    5  C   UNL     1     -10.021  11.934  64.049  1.00  0.00    -0.318 A  
HETATM    6  C   UNL     1      -9.726  11.604  65.381  1.00  0.00    -0.255 A  
HETATM    7  C   UNL     1      -8.945   9.429  64.623  1.00  0.00    -0.233 A  
HETATM    8  C   UNL     1      -9.183  10.342  65.656  1.00  0.00    -0.225 A  
ENDROOT
BRANCH   6   9
HETATM    9  C   UNL     1      -9.904  12.632  66.421  1.00  0.00    -0.263 C  
HETATM   10  C   UNL     1     -11.080  12.963  66.978  1.00  0.00    -0.309 C  
BRANCH  10  11
HETATM   11  C   UNL     1     -11.240  13.954  68.058  1.00  0.00    -0.295 A  
HETATM   12  C   UNL     1     -11.725  13.622  69.332  1.00  0.00    -0.379 A  
HETATM   13  C   UNL     1     -11.843  14.607  70.312  1.00  0.00    -0.303 A  
HETATM   14  C   UNL     1     -11.473  15.922  70.061  1.00  0.00    -0.354 A  
HETATM   15  O   UNL     1     -12.323  14.316  71.557  1.00  0.00    -0.341 OA 
HETATM   16  H   UNL     1     -12.403  14.987  72.224  1.00  0.00     0.000 HD 
HETATM   17  C   UNL     1     -10.974  16.248  68.806  1.00  0.00    -0.343 A  
HETATM   18  O   UNL     1     -10.590  17.521  68.503  1.00  0.00    -0.357 OA 
HETATM   19  C   UNL     1     -10.852  15.279  67.811  1.00  0.00    -0.295 A  
HETATM   20  H   UNL     1     -10.249  17.743  67.645  1.00  0.00     0.000 HD 
ENDBRANCH  10  11
ENDBRANCH   6   9
TORSDOF 2
ENDMDL
MODEL       97
REMARK 921   NORMALIZED FREE ENERGY PREDICTED BY IDOCK:   -4.67 KCAL/MOL
REMARK 922        TOTAL FREE ENERGY PREDICTED BY IDOCK:   -5.53 KCAL/MOL
REMARK 923 INTER-LIGAND FREE ENERGY PREDICTED BY IDOCK:   -5.21 KCAL/MOL
REMARK 924 INTRA-LIGAND FREE ENERGY PREDICTED BY IDOCK:   -0.32 KCAL/MOL
REMARK 927      BINDING AFFINITY PREDICTED BY RF-SCORE:    0.00 PKD
ROOT
HETATM    1  O   UNL     1      -9.928   3.964  66.042  1.00  0.00    -0.360 OA 
HETATM    2  H   UNL     1      -9.230   3.538  65.558  1.00  0.00     0.000 HD 
HETATM    3  C   UNL     1      -9.882   5.297  66.331  1.00  0.00    -0.186 A  
HETATM    4  C   UNL     1     -10.903   5.921  67.038  1.00  0.00    -0.379 A  
HETATM    5  C   UNL     1     -10.826   7.295  67.283  1.00  0.00    -0.354 A  
HETATM    6  C   UNL     1      -9.731   8.049  66.833  1.00  0.00    -0.291 A  
HETATM    7  C   UNL     1      -8.785   6.020  65.881  1.00  0.00    -0.157 A  
HETATM    8  C   UNL     1      -8.712   7.395  66.126  1.00  0.00    -0.172 A  
ENDROOT
BRANCH   6   9
HETATM    9  C   UNL     1      -9.745   9.508  67.033  1.00  0.00    -0.229 C  
HETATM   10  C   UNL     1     -10.660  10.343  66.515  1.00  0.00    -0.220 C  
BRANCH  10  11
HETATM   11  C   UNL     1     -10.697  11.795  66.767  1.00  0.00    -0.289 A  
HETATM   12  C   UNL     1      -9.953  12.718  66.015  1.00  0.00    -0.277 A  
HETATM   13  C   UNL     1     -10.040  14.081  66.298  1.00  0.00    -0.300 A  
HETATM   14  C   UNL     1     -10.866  14.556  67.309  1.00  0.00    -0.297 A  
HETATM   15  O   UNL     1      -9.319  15.001  65.592  1.00  0.00    -0.463 OA 
HETATM   16  H   UNL     1      -9.379  15.928  65.785  1.00  0.00     0.000 HD 
HETATM   17  C   UNL     1     -11.618  13.645  68.040  1.00  0.00    -0.333 A  
HETATM   18  O   UNL     1     -12.451  14.053  69.040  1.00  0.00    -0.491 OA 
HETATM   19  C   UNL     1     -11.543  12.278  67.775  1.00  0.00    -0.416 A  
HETATM   20  H   UNL     1     -12.964  13.430  69.540  1.00  0.00     0.000 HD 
ENDBRANCH  10  11
ENDBRANCH   6   9
TORSDOF 2
ENDMDL
MODEL       98
REMARK 921   NORMALIZED FREE ENERGY PREDICTED BY IDOCK:   -4.65 KCAL/MOL
REMARK 922        TOTAL FREE ENERGY PREDICTED BY IDOCK:   -5.52 KCAL/MOL
REMARK 923 INTER-LIGAND FREE ENERGY PREDICTED BY IDOCK:   -5.16 KCAL/MOL
REMARK 924 INTRA-LIGAND FREE ENERGY PREDICTED BY IDOCK:   -0.36 KCAL/MOL
REMARK 927      BINDING AFFINITY PREDICTED BY RF-SCORE:    0.00 PKD
ROOT
HETATM    1  O   UNL     1      -9.003   8.740  62.585  1.00  0.00    -0.434 OA 
HETATM    2  H   UNL     1      -8.660   7.889  62.833  1.00  0.00     0.000 HD 
HETATM    3  C   UNL     1      -9.269   9.699  63.518  1.00  0.00    -0.098 A  
HETATM    4  C   UNL     1      -9.770  10.944  63.155  1.00  0.00    -0.396 A  
HETATM    5  C   UNL     1      -9.997  11.906  64.143  1.00  0.00    -0.288 A  
HETATM    6  C   UNL     1      -9.735  11.630  65.494  1.00  0.00    -0.259 A  
HETATM    7  C   UNL     1      -9.007   9.400  64.848  1.00  0.00    -0.256 A  
HETATM    8  C   UNL     1      -9.235  10.365  65.835  1.00  0.00    -0.205 A  
ENDROOT
BRANCH   6   9
HETATM    9  C   UNL     1      -9.900  12.708  66.483  1.00  0.00    -0.258 C  
HETATM   10  C   UNL     1      -9.969  14.016  66.186  1.00  0.00    -0.325 C  
BRANCH  10  11
HETATM   11  C   UNL     1     -10.190  15.084  67.179  1.00  0.00    -0.249 A  
HETATM   12  C   UNL     1     -10.409  16.423  66.821  1.00  0.00    -0.293 A  
HETATM   13  C   UNL     1     -10.621  17.383  67.810  1.00  0.00    -0.371 A  
HETATM   14  C   UNL     1     -10.635  17.041  69.156  1.00  0.00    -0.303 A  
HETATM   15  O   UNL     1     -10.825  18.696  67.493  1.00  0.00    -0.435 OA 
HETATM   16  H   UNL     1     -10.969  19.350  68.167  1.00  0.00     0.000 HD 
HETATM   17  C   UNL     1     -10.438  15.712  69.509  1.00  0.00    -0.270 A  
HETATM   18  O   UNL     1     -10.448  15.316  70.815  1.00  0.00    -0.490 OA 
HETATM   19  C   UNL     1     -10.222  14.738  68.537  1.00  0.00    -0.232 A  
HETATM   20  H   UNL     1     -10.313  14.408  71.056  1.00  0.00     0.000 HD 
ENDBRANCH  10  11
ENDBRANCH   6   9
TORSDOF 2
ENDMDL
MODEL       99
REMARK 921   NORMALIZED FREE ENERGY PREDICTED BY IDOCK:   -4.65 KCAL/MOL
REMARK 922        TOTAL FREE ENERGY PREDICTED BY IDOCK:   -5.52 KCAL/MOL
REMARK 923 INTER-LIGAND FREE ENERGY PREDICTED BY IDOCK:   -5.18 KCAL/MOL
REMARK 924 INTRA-LIGAND FREE ENERGY PREDICTED BY IDOCK:   -0.34 KCAL/MOL
REMARK 927      BINDING AFFINITY PREDICTED BY RF-SCORE:    0.00 PKD
ROOT
HETATM    1  O   UNL     1     -13.655  10.986  72.429  1.00  0.00    -0.541 OA 
HETATM    2  H   UNL     1     -14.526  10.962  72.807  1.00  0.00     0.000 HD 
HETATM    3  C   UNL     1     -13.077   9.869  71.902  1.00  0.00    -0.459 A  
HETATM    4  C   UNL     1     -11.802   9.905  71.348  1.00  0.00    -0.476 A  
HETATM    5  C   UNL     1     -11.263   8.741  70.792  1.00  0.00    -0.309 A  
HETATM    6  C   UNL     1     -11.987   7.539  70.793  1.00  0.00    -0.224 A  
HETATM    7  C   UNL     1     -13.809   8.690  71.920  1.00  0.00    -0.481 A  
HETATM    8  C   UNL     1     -13.268   7.528  71.361  1.00  0.00    -0.368 A  
ENDROOT
BRANCH   6   9
HETATM    9  C   UNL     1     -11.414   6.367  70.109  1.00  0.00    -0.484 C  
HETATM   10  C   UNL     1     -10.863   6.388  68.884  1.00  0.00    -0.382 C  
BRANCH  10  11
HETATM   11  C   UNL     1     -10.243   5.220  68.231  1.00  0.00    -0.200 A  
HETATM   12  C   UNL     1     -10.344   4.976  66.853  1.00  0.00    -0.267 A  
HETATM   13  C   UNL     1      -9.725   3.856  66.296  1.00  0.00    -0.160 A  
HETATM   14  C   UNL     1      -8.989   2.975  67.079  1.00  0.00    -0.176 A  
HETATM   15  O   UNL     1      -9.816   3.586  64.961  1.00  0.00    -0.243 OA 
HETATM   16  H   UNL     1      -9.394   2.824  64.582  1.00  0.00     0.000 HD 
HETATM   17  C   UNL     1      -8.872   3.229  68.440  1.00  0.00    -0.118 A  
HETATM   18  O   UNL     1      -8.158   2.402  69.256  1.00  0.00    -0.045 OA 
HETATM   19  C   UNL     1      -9.486   4.339  69.016  1.00  0.00    -0.242 A  
HETATM   20  H   UNL     1      -8.078   2.575  70.186  1.00  0.00     0.000 HD 
ENDBRANCH  10  11
ENDBRANCH   6   9
TORSDOF 2
ENDMDL
MODEL      100
REMARK 921   NORMALIZED FREE ENERGY PREDICTED BY IDOCK:   -4.65 KCAL/MOL
REMARK 922        TOTAL FREE ENERGY PREDICTED BY IDOCK:   -5.51 KCAL/MOL
REMARK 923 INTER-LIGAND FREE ENERGY PREDICTED BY IDOCK:   -5.18 KCAL/MOL
REMARK 924 INTRA-LIGAND FREE ENERGY PREDICTED BY IDOCK:   -0.33 KCAL/MOL
REMARK 927      BINDING AFFINITY PREDICTED BY RF-SCORE:    0.00 PKD
ROOT
HETATM    1  O   UNL     1     -10.148  13.023  63.755  1.00  0.00    -0.710 OA 
HETATM    2  H   UNL     1      -9.659  12.887  62.952  1.00  0.00     0.000 HD 
HETATM    3  C   UNL     1     -10.173  12.081  64.742  1.00  0.00    -0.279 A  
HETATM    4  C   UNL     1     -10.888  12.282  65.917  1.00  0.00    -0.306 A  
HETATM    5  C   UNL     1     -10.859  11.301  66.913  1.00  0.00    -0.333 A  
HETATM    6  C   UNL     1     -10.127  10.117  66.738  1.00  0.00    -0.277 A  
HETATM    7  C   UNL     1      -9.446  10.915  64.544  1.00  0.00    -0.284 A  
HETATM    8  C   UNL     1      -9.418   9.937  65.542  1.00  0.00    -0.313 A  
ENDROOT
BRANCH   6   9
HETATM    9  C   UNL     1     -10.050   9.160  67.855  1.00  0.00    -0.246 C  
HETATM   10  C   UNL     1     -10.955   9.061  68.843  1.00  0.00     0.019 C  
BRANCH  10  11
HETATM   11  C   UNL     1     -10.897   8.062  69.926  1.00  0.00    -0.217 A  
HETATM   12  C   UNL     1     -11.209   8.367  71.260  1.00  0.00    -0.309 A  
HETATM   13  C   UNL     1     -11.144   7.373  72.236  1.00  0.00    -0.266 A  
HETATM   14  C   UNL     1     -10.789   6.069  71.915  1.00  0.00    -0.304 A  
HETATM   15  O   UNL     1     -11.430   7.642  73.544  1.00  0.00    -0.597 OA 
HETATM   16  H   UNL     1     -11.385   6.965  74.208  1.00  0.00     0.000 HD 
HETATM   17  C   UNL     1     -10.500   5.762  70.591  1.00  0.00    -0.264 A  
HETATM   18  O   UNL     1     -10.152   4.498  70.215  1.00  0.00    -0.230 OA 
HETATM   19  C   UNL     1     -10.556   6.742  69.601  1.00  0.00    -0.267 A  
HETATM   20  H   UNL     1      -9.954   4.289  69.310  1.00  0.00     0.000 HD 
ENDBRANCH  10  11
ENDBRANCH   6   9
TORSDOF 2
ENDMDL
MODEL      101
REMARK 921   NORMALIZED FREE ENERGY PREDICTED BY IDOCK:   -4.61 KCAL/MOL
REMARK 922        TOTAL FREE ENERGY PREDICTED BY IDOCK:   -5.48 KCAL/MOL
REMARK 923 INTER-LIGAND FREE ENERGY PREDICTED BY IDOCK:   -5.14 KCAL/MOL
REMARK 924 INTRA-LIGAND FREE ENERGY PREDICTED BY IDOCK:   -0.33 KCAL/MOL
REMARK 927      BINDING AFFINITY PREDICTED BY RF-SCORE:    0.00 PKD
ROOT
HETATM    1  O   UNL     1      -9.036   4.669  71.288  1.00  0.00    -0.122 OA 
HETATM    2  H   UNL     1      -9.561   3.899  71.471  1.00  0.00     0.000 HD 
HETATM    3  C   UNL     1      -9.384   5.553  70.309  1.00  0.00    -0.154 A  
HETATM    4  C   UNL     1      -8.615   6.679  70.042  1.00  0.00    -0.140 A  
HETATM    5  C   UNL     1      -9.029   7.573  69.050  1.00  0.00    -0.131 A  
HETATM    6  C   UNL     1     -10.204   7.343  68.317  1.00  0.00    -0.213 A  
HETATM    7  C   UNL     1     -10.546   5.301  69.593  1.00  0.00    -0.261 A  
HETATM    8  C   UNL     1     -10.959   6.197  68.602  1.00  0.00    -0.415 A  
ENDROOT
BRANCH   6   9
HETATM    9  C   UNL     1     -10.647   8.363  67.351  1.00  0.00    -0.313 C  
HETATM   10  C   UNL     1     -10.169   9.617  67.287  1.00  0.00    -0.292 C  
BRANCH  10  11
HETATM   11  C   UNL     1     -10.580  10.613  66.281  1.00  0.00    -0.229 A  
HETATM   12  C   UNL     1     -11.468  11.661  66.565  1.00  0.00    -0.260 A  
HETATM   13  C   UNL     1     -11.809  12.577  65.569  1.00  0.00    -0.439 A  
HETATM   14  C   UNL     1     -11.273  12.484  64.291  1.00  0.00    -0.407 A  
HETATM   15  O   UNL     1     -12.679  13.600  65.813  1.00  0.00    -0.471 OA 
HETATM   16  H   UNL     1     -12.911  14.223  65.135  1.00  0.00     0.000 HD 
HETATM   17  C   UNL     1     -10.378  11.458  64.015  1.00  0.00    -0.362 A  
HETATM   18  O   UNL     1      -9.816  11.321  62.780  1.00  0.00    -0.545 OA 
HETATM   19  C   UNL     1     -10.027  10.531  64.994  1.00  0.00    -0.388 A  
HETATM   20  H   UNL     1      -9.204  10.619  62.591  1.00  0.00     0.000 HD 
ENDBRANCH  10  11
ENDBRANCH   6   9
TORSDOF 2
ENDMDL
MODEL      102
REMARK 921   NORMALIZED FREE ENERGY PREDICTED BY IDOCK:   -4.61 KCAL/MOL
REMARK 922        TOTAL FREE ENERGY PREDICTED BY IDOCK:   -5.47 KCAL/MOL
REMARK 923 INTER-LIGAND FREE ENERGY PREDICTED BY IDOCK:   -5.15 KCAL/MOL
REMARK 924 INTRA-LIGAND FREE ENERGY PREDICTED BY IDOCK:   -0.32 KCAL/MOL
REMARK 927      BINDING AFFINITY PREDICTED BY RF-SCORE:    0.00 PKD
ROOT
HETATM    1  O   UNL     1     -10.546  12.217  63.993  1.00  0.00    -0.321 OA 
HETATM    2  H   UNL     1     -10.008  11.821  63.317  1.00  0.00     0.000 HD 
HETATM    3  C   UNL     1     -10.707  11.624  65.211  1.00  0.00    -0.291 A  
HETATM    4  C   UNL     1     -11.493  12.203  66.200  1.00  0.00    -0.429 A  
HETATM    5  C   UNL     1     -11.604  11.574  67.444  1.00  0.00    -0.307 A  
HETATM    6  C   UNL     1     -10.939  10.366  67.703  1.00  0.00    -0.374 A  
HETATM    7  C   UNL     1     -10.045  10.426  65.442  1.00  0.00    -0.354 A  
HETATM    8  C   UNL     1     -10.156   9.800  66.688  1.00  0.00    -0.303 A  
ENDROOT
BRANCH   6   9
HETATM    9  C   UNL     1     -11.010   9.795  69.059  1.00  0.00    -0.193 C  
HETATM   10  C   UNL     1     -10.807   8.502  69.358  1.00  0.00    -0.103 C  
BRANCH  10  11
HETATM   11  C   UNL     1     -10.825   7.952  70.726  1.00  0.00    -0.238 A  
HETATM   12  C   UNL     1     -11.710   6.939  71.127  1.00  0.00    -0.381 A  
HETATM   13  C   UNL     1     -11.669   6.455  72.435  1.00  0.00    -0.245 A  
HETATM   14  C   UNL     1     -10.754   6.946  73.357  1.00  0.00    -0.352 A  
HETATM   15  O   UNL     1     -12.525   5.478  72.857  1.00  0.00    -0.500 OA 
HETATM   16  H   UNL     1     -12.497   5.149  73.748  1.00  0.00     0.000 HD 
HETATM   17  C   UNL     1      -9.865   7.935  72.955  1.00  0.00    -0.282 A  
HETATM   18  O   UNL     1      -8.941   8.450  73.815  1.00  0.00    -0.182 OA 
HETATM   19  C   UNL     1      -9.891   8.434  71.654  1.00  0.00    -0.290 A  
HETATM   20  H   UNL     1      -8.333   9.126  73.539  1.00  0.00     0.000 HD 
ENDBRANCH  10  11
ENDBRANCH   6   9
TORSDOF 2
ENDMDL
MODEL      103
REMARK 921   NORMALIZED FREE ENERGY PREDICTED BY IDOCK:   -4.50 KCAL/MOL
REMARK 922        TOTAL FREE ENERGY PREDICTED BY IDOCK:   -5.35 KCAL/MOL
REMARK 923 INTER-LIGAND FREE ENERGY PREDICTED BY IDOCK:   -5.03 KCAL/MOL
REMARK 924 INTRA-LIGAND FREE ENERGY PREDICTED BY IDOCK:   -0.32 KCAL/MOL
REMARK 927      BINDING AFFINITY PREDICTED BY RF-SCORE:    0.00 PKD
ROOT
HETATM    1  O   UNL     1     -10.860  16.414  67.255  1.00  0.00    -0.291 OA 
HETATM    2  H   UNL     1     -10.195  16.886  67.742  1.00  0.00     0.000 HD 
HETATM    3  C   UNL     1     -10.897  15.050  67.240  1.00  0.00    -0.310 A  
HETATM    4  C   UNL     1     -11.869  14.359  66.527  1.00  0.00    -0.406 A  
HETATM    5  C   UNL     1     -11.885  12.961  66.567  1.00  0.00    -0.473 A  
HETATM    6  C   UNL     1     -10.930  12.250  67.309  1.00  0.00    -0.301 A  
HETATM    7  C   UNL     1      -9.938  14.368  67.976  1.00  0.00    -0.225 A  
HETATM    8  C   UNL     1      -9.957  12.970  68.016  1.00  0.00    -0.233 A  
ENDROOT
BRANCH   6   9
HETATM    9  C   UNL     1     -11.050  10.785  67.397  1.00  0.00    -0.363 C  
HETATM   10  C   UNL     1     -10.039   9.949  67.688  1.00  0.00    -0.241 C  
BRANCH  10  11
HETATM   11  C   UNL     1     -10.182   8.489  67.827  1.00  0.00    -0.283 A  
HETATM   12  C   UNL     1     -10.648   7.877  69.001  1.00  0.00    -0.177 A  
HETATM   13  C   UNL     1     -10.768   6.489  69.065  1.00  0.00    -0.278 A  
HETATM   14  C   UNL     1     -10.449   5.687  67.976  1.00  0.00    -0.264 A  
HETATM   15  O   UNL     1     -11.207   5.865  70.197  1.00  0.00    -0.353 OA 
HETATM   16  H   UNL     1     -11.289   4.920  70.240  1.00  0.00     0.000 HD 
HETATM   17  C   UNL     1     -10.006   6.294  66.807  1.00  0.00    -0.170 A  
HETATM   18  O   UNL     1      -9.684   5.558  65.705  1.00  0.00    -0.352 OA 
HETATM   19  C   UNL     1      -9.876   7.679  66.724  1.00  0.00    -0.307 A  
HETATM   20  H   UNL     1      -9.382   5.973  64.906  1.00  0.00     0.000 HD 
ENDBRANCH  10  11
ENDBRANCH   6   9
TORSDOF 2
ENDMDL
MODEL      104
REMARK 921   NORMALIZED FREE ENERGY PREDICTED BY IDOCK:   -4.49 KCAL/MOL
REMARK 922        TOTAL FREE ENERGY PREDICTED BY IDOCK:   -5.34 KCAL/MOL
REMARK 923 INTER-LIGAND FREE ENERGY PREDICTED BY IDOCK:   -5.00 KCAL/MOL
REMARK 924 INTRA-LIGAND FREE ENERGY PREDICTED BY IDOCK:   -0.33 KCAL/MOL
REMARK 927      BINDING AFFINITY PREDICTED BY RF-SCORE:    0.00 PKD
ROOT
HETATM    1  O   UNL     1      -8.848   2.116  71.532  1.00  0.00    -0.065 OA 
HETATM    2  H   UNL     1      -8.818   1.685  72.378  1.00  0.00     0.000 HD 
HETATM    3  C   UNL     1      -9.508   3.297  71.357  1.00  0.00    -0.151 A  
HETATM    4  C   UNL     1      -9.551   3.927  70.119  1.00  0.00    -0.267 A  
HETATM    5  C   UNL     1     -10.213   5.152  69.996  1.00  0.00    -0.354 A  
HETATM    6  C   UNL     1     -10.840   5.748  71.101  1.00  0.00    -0.316 A  
HETATM    7  C   UNL     1     -10.125   3.864  72.463  1.00  0.00    -0.232 A  
HETATM    8  C   UNL     1     -10.786   5.090  72.338  1.00  0.00    -0.262 A  
ENDROOT
BRANCH   6   9
HETATM    9  C   UNL     1     -11.439   7.083  70.940  1.00  0.00    -0.349 C  
HETATM   10  C   UNL     1     -10.771   8.183  70.558  1.00  0.00    -0.233 C  
BRANCH  10  11
HETATM   11  C   UNL     1     -11.392   9.503  70.347  1.00  0.00    -0.318 A  
HETATM   12  C   UNL     1     -11.374  10.165  69.109  1.00  0.00    -0.198 A  
HETATM   13  C   UNL     1     -11.990  11.409  68.974  1.00  0.00    -0.320 A  
HETATM   14  C   UNL     1     -12.640  12.011  70.043  1.00  0.00     0.060 A  
HETATM   15  O   UNL     1     -11.978  12.082  67.786  1.00  0.00    -0.538 OA 
HETATM   16  H   UNL     1     -12.397  12.929  67.694  1.00  0.00     0.000 HD 
HETATM   17  C   UNL     1     -12.675  11.348  71.263  1.00  0.00    -0.393 A  
HETATM   18  O   UNL     1     -13.305  11.888  72.346  1.00  0.00    -0.594 OA 
HETATM   19  C   UNL     1     -12.064  10.105  71.420  1.00  0.00    -0.475 A  
HETATM   20  H   UNL     1     -13.328  11.434  73.180  1.00  0.00     0.000 HD 
ENDBRANCH  10  11
ENDBRANCH   6   9
TORSDOF 2
ENDMDL
MODEL      105
REMARK 921   NORMALIZED FREE ENERGY PREDICTED BY IDOCK:   -4.49 KCAL/MOL
REMARK 922        TOTAL FREE ENERGY PREDICTED BY IDOCK:   -5.33 KCAL/MOL
REMARK 923 INTER-LIGAND FREE ENERGY PREDICTED BY IDOCK:   -5.01 KCAL/MOL
REMARK 924 INTRA-LIGAND FREE ENERGY PREDICTED BY IDOCK:   -0.32 KCAL/MOL
REMARK 927      BINDING AFFINITY PREDICTED BY RF-SCORE:    0.00 PKD
ROOT
HETATM    1  O   UNL     1     -10.982  14.199  64.323  1.00  0.00    -0.592 OA 
HETATM    2  H   UNL     1     -10.822  14.456  63.423  1.00  0.00     0.000 HD 
HETATM    3  C   UNL     1     -10.778  12.917  64.743  1.00  0.00    -0.333 A  
HETATM    4  C   UNL     1     -11.012  12.541  66.060  1.00  0.00    -0.318 A  
HETATM    5  C   UNL     1     -10.759  11.222  66.452  1.00  0.00    -0.320 A  
HETATM    6  C   UNL     1     -10.281  10.276  65.533  1.00  0.00    -0.308 A  
HETATM    7  C   UNL     1     -10.311  11.997  63.815  1.00  0.00    -0.457 A  
HETATM    8  C   UNL     1     -10.057  10.680  64.209  1.00  0.00    -0.411 A  
ENDROOT
BRANCH   6   9
HETATM    9  C   UNL     1      -9.939   8.928  66.018  1.00  0.00    -0.199 C  
HETATM   10  C   UNL     1     -10.646   8.238  66.928  1.00  0.00    -0.302 C  
BRANCH  10  11
HETATM   11  C   UNL     1     -10.325   6.868  67.365  1.00  0.00    -0.297 A  
HETATM   12  C   UNL     1     -10.306   5.773  66.488  1.00  0.00    -0.265 A  
HETATM   13  C   UNL     1      -9.985   4.502  66.965  1.00  0.00    -0.179 A  
HETATM   14  C   UNL     1      -9.665   4.292  68.300  1.00  0.00    -0.162 A  
HETATM   15  O   UNL     1      -9.970   3.416  66.137  1.00  0.00    -0.410 OA 
HETATM   16  H   UNL     1      -9.751   2.551  66.462  1.00  0.00     0.000 HD 
HETATM   17  C   UNL     1      -9.665   5.379  69.165  1.00  0.00    -0.159 A  
HETATM   18  O   UNL     1      -9.353   5.235  70.485  1.00  0.00    -0.147 OA 
HETATM   19  C   UNL     1      -9.986   6.657  68.709  1.00  0.00    -0.150 A  
HETATM   20  H   UNL     1      -9.353   5.979  71.076  1.00  0.00     0.000 HD 
ENDBRANCH  10  11
ENDBRANCH   6   9
TORSDOF 2
ENDMDL
MODEL      106
REMARK 921   NORMALIZED FREE ENERGY PREDICTED BY IDOCK:   -4.48 KCAL/MOL
REMARK 922        TOTAL FREE ENERGY PREDICTED BY IDOCK:   -5.32 KCAL/MOL
REMARK 923 INTER-LIGAND FREE ENERGY PREDICTED BY IDOCK:   -4.99 KCAL/MOL
REMARK 924 INTRA-LIGAND FREE ENERGY PREDICTED BY IDOCK:   -0.33 KCAL/MOL
REMARK 927      BINDING AFFINITY PREDICTED BY RF-SCORE:    0.00 PKD
ROOT
HETATM    1  O   UNL     1      -6.700  21.381  65.946  1.00  0.00    -0.493 OA 
HETATM    2  H   UNL     1      -5.794  21.575  65.738  1.00  0.00     0.000 HD 
HETATM    3  C   UNL     1      -7.154  20.097  66.016  1.00  0.00    -0.287 A  
HETATM    4  C   UNL     1      -8.480  19.813  66.319  1.00  0.00    -0.390 A  
HETATM    5  C   UNL     1      -8.893  18.479  66.411  1.00  0.00    -0.267 A  
HETATM    6  C   UNL     1      -7.989  17.429  66.193  1.00  0.00    -0.275 A  
HETATM    7  C   UNL     1      -6.243  19.073  65.790  1.00  0.00    -0.259 A  
HETATM    8  C   UNL     1      -6.658  17.741  65.884  1.00  0.00    -0.271 A  
ENDROOT
BRANCH   6   9
HETATM    9  C   UNL     1      -8.450  16.045  66.396  1.00  0.00    -0.363 C  
HETATM   10  C   UNL     1      -9.691  15.698  66.772  1.00  0.00    -0.255 C  
BRANCH  10  11
HETATM   11  C   UNL     1     -10.158  14.307  66.919  1.00  0.00    -0.264 A  
HETATM   12  C   UNL     1     -11.128  13.736  66.081  1.00  0.00    -0.296 A  
HETATM   13  C   UNL     1     -11.518  12.410  66.269  1.00  0.00    -0.371 A  
HETATM   14  C   UNL     1     -10.954  11.626  67.266  1.00  0.00    -0.318 A  
HETATM   15  O   UNL     1     -12.469  11.831  65.477  1.00  0.00    -0.077 OA 
HETATM   16  H   UNL     1     -12.734  10.928  65.604  1.00  0.00     0.000 HD 
HETATM   17  C   UNL     1      -9.979  12.185  68.083  1.00  0.00    -0.201 A  
HETATM   18  O   UNL     1      -9.384  11.461  69.075  1.00  0.00    -0.388 OA 
HETATM   19  C   UNL     1      -9.577  13.509  67.915  1.00  0.00    -0.218 A  
HETATM   20  H   UNL     1      -8.718  11.844  69.633  1.00  0.00     0.000 HD 
ENDBRANCH  10  11
ENDBRANCH   6   9
TORSDOF 2
ENDMDL
MODEL      107
REMARK 921   NORMALIZED FREE ENERGY PREDICTED BY IDOCK:   -4.42 KCAL/MOL
REMARK 922        TOTAL FREE ENERGY PREDICTED BY IDOCK:   -5.26 KCAL/MOL
REMARK 923 INTER-LIGAND FREE ENERGY PREDICTED BY IDOCK:   -4.94 KCAL/MOL
REMARK 924 INTRA-LIGAND FREE ENERGY PREDICTED BY IDOCK:   -0.32 KCAL/MOL
REMARK 927      BINDING AFFINITY PREDICTED BY RF-SCORE:    0.00 PKD
ROOT
HETATM    1  O   UNL     1     -10.039  12.912  63.975  1.00  0.00    -0.577 OA 
HETATM    2  H   UNL     1     -10.286  13.789  64.244  1.00  0.00     0.000 HD 
HETATM    3  C   UNL     1      -9.999  11.879  64.865  1.00  0.00    -0.241 A  
HETATM    4  C   UNL     1      -9.637  10.596  64.471  1.00  0.00    -0.341 A  
HETATM    5  C   UNL     1      -9.641   9.563  65.412  1.00  0.00    -0.342 A  
HETATM    6  C   UNL     1      -9.997   9.805  66.748  1.00  0.00    -0.278 A  
HETATM    7  C   UNL     1     -10.349  12.144  66.182  1.00  0.00    -0.264 A  
HETATM    8  C   UNL     1     -10.354  11.108  67.122  1.00  0.00    -0.249 A  
ENDROOT
BRANCH   6   9
HETATM    9  C   UNL     1     -10.079   8.665  67.677  1.00  0.00    -0.271 C  
HETATM   10  C   UNL     1     -10.258   8.769  69.004  1.00  0.00    -0.218 C  
BRANCH  10  11
HETATM   11  C   UNL     1     -10.394   7.619  69.917  1.00  0.00    -0.225 A  
HETATM   12  C   UNL     1      -9.963   6.326  69.584  1.00  0.00    -0.201 A  
HETATM   13  C   UNL     1     -10.112   5.284  70.498  1.00  0.00    -0.245 A  
HETATM   14  C   UNL     1     -10.669   5.499  71.752  1.00  0.00    -0.289 A  
HETATM   15  O   UNL     1      -9.713   4.013  70.197  1.00  0.00    -0.196 OA 
HETATM   16  H   UNL     1      -9.814   3.303  70.820  1.00  0.00     0.000 HD 
HETATM   17  C   UNL     1     -11.078   6.783  72.090  1.00  0.00    -0.250 A  
HETATM   18  O   UNL     1     -11.626   7.055  73.309  1.00  0.00    -0.492 OA 
HETATM   19  C   UNL     1     -10.941   7.838  71.190  1.00  0.00    -0.259 A  
HETATM   20  H   UNL     1     -11.905   7.933  73.540  1.00  0.00     0.000 HD 
ENDBRANCH  10  11
ENDBRANCH   6   9
TORSDOF 2
ENDMDL
MODEL      108
REMARK 921   NORMALIZED FREE ENERGY PREDICTED BY IDOCK:   -4.41 KCAL/MOL
REMARK 922        TOTAL FREE ENERGY PREDICTED BY IDOCK:   -5.24 KCAL/MOL
REMARK 923 INTER-LIGAND FREE ENERGY PREDICTED BY IDOCK:   -4.93 KCAL/MOL
REMARK 924 INTRA-LIGAND FREE ENERGY PREDICTED BY IDOCK:   -0.31 KCAL/MOL
REMARK 927      BINDING AFFINITY PREDICTED BY RF-SCORE:    0.00 PKD
ROOT
HETATM    1  O   UNL     1     -13.604  10.992  72.453  1.00  0.00    -0.541 OA 
HETATM    2  H   UNL     1     -14.282  10.696  73.049  1.00  0.00     0.000 HD 
HETATM    3  C   UNL     1     -12.835  10.108  71.755  1.00  0.00    -0.452 A  
HETATM    4  C   UNL     1     -11.843  10.541  70.883  1.00  0.00    -0.455 A  
HETATM    5  C   UNL     1     -11.101   9.598  70.165  1.00  0.00    -0.314 A  
HETATM    6  C   UNL     1     -11.340   8.223  70.319  1.00  0.00    -0.129 A  
HETATM    7  C   UNL     1     -13.085   8.753  71.928  1.00  0.00    -0.420 A  
HETATM    8  C   UNL     1     -12.343   7.812  71.208  1.00  0.00    -0.314 A  
ENDROOT
BRANCH   6   9
HETATM    9  C   UNL     1     -10.599   7.276  69.469  1.00  0.00    -0.244 C  
HETATM   10  C   UNL     1     -11.074   6.095  69.042  1.00  0.00    -0.437 C  
BRANCH  10  11
HETATM   11  C   UNL     1     -10.345   5.180  68.146  1.00  0.00    -0.140 A  
HETATM   12  C   UNL     1      -9.565   4.113  68.618  1.00  0.00    -0.199 A  
HETATM   13  C   UNL     1      -8.907   3.277  67.716  1.00  0.00    -0.131 A  
HETATM   14  C   UNL     1      -9.019   3.466  66.344  1.00  0.00    -0.153 A  
HETATM   15  O   UNL     1      -8.131   2.239  68.146  1.00  0.00    -0.058 OA 
HETATM   16  H   UNL     1      -7.684   1.669  67.531  1.00  0.00     0.000 HD 
HETATM   17  C   UNL     1      -9.807   4.510  65.876  1.00  0.00    -0.226 A  
HETATM   18  O   UNL     1      -9.959   4.741  64.540  1.00  0.00    -0.373 OA 
HETATM   19  C   UNL     1     -10.470   5.359  66.761  1.00  0.00    -0.347 A  
HETATM   20  H   UNL     1     -10.498   5.454  64.221  1.00  0.00     0.000 HD 
ENDBRANCH  10  11
ENDBRANCH   6   9
TORSDOF 2
ENDMDL
MODEL      109
REMARK 921   NORMALIZED FREE ENERGY PREDICTED BY IDOCK:   -4.41 KCAL/MOL
REMARK 922        TOTAL FREE ENERGY PREDICTED BY IDOCK:   -5.24 KCAL/MOL
REMARK 923 INTER-LIGAND FREE ENERGY PREDICTED BY IDOCK:   -4.91 KCAL/MOL
REMARK 924 INTRA-LIGAND FREE ENERGY PREDICTED BY IDOCK:   -0.33 KCAL/MOL
REMARK 927      BINDING AFFINITY PREDICTED BY RF-SCORE:    0.00 PKD
ROOT
HETATM    1  O   UNL     1      -8.317   8.665  63.526  1.00  0.00    -0.247 OA 
HETATM    2  H   UNL     1      -8.462   8.659  62.588  1.00  0.00     0.000 HD 
HETATM    3  C   UNL     1      -8.797   9.669  64.315  1.00  0.00    -0.228 A  
HETATM    4  C   UNL     1      -8.584   9.678  65.688  1.00  0.00    -0.149 A  
HETATM    5  C   UNL     1      -9.123  10.712  66.459  1.00  0.00    -0.179 A  
HETATM    6  C   UNL     1      -9.867  11.743  65.864  1.00  0.00    -0.265 A  
HETATM    7  C   UNL     1      -9.525  10.681  63.703  1.00  0.00    -0.337 A  
HETATM    8  C   UNL     1     -10.064  11.714  64.477  1.00  0.00    -0.321 A  
ENDROOT
BRANCH   6   9
HETATM    9  C   UNL     1     -10.494  12.755  66.731  1.00  0.00    -0.253 C  
HETATM   10  C   UNL     1     -10.462  12.740  68.074  1.00  0.00    -0.233 C  
BRANCH  10  11
HETATM   11  C   UNL     1     -11.046  13.788  68.931  1.00  0.00    -0.300 A  
HETATM   12  C   UNL     1     -10.715  15.146  68.807  1.00  0.00    -0.239 A  
HETATM   13  C   UNL     1     -11.311  16.089  69.644  1.00  0.00    -0.332 A  
HETATM   14  C   UNL     1     -12.247  15.714  70.600  1.00  0.00    -0.446 A  
HETATM   15  O   UNL     1     -11.001  17.415  69.555  1.00  0.00    -0.268 OA 
HETATM   16  H   UNL     1     -11.407  18.057  70.125  1.00  0.00     0.000 HD 
HETATM   17  C   UNL     1     -12.590  14.373  70.710  1.00  0.00    -0.357 A  
HETATM   18  O   UNL     1     -13.507  13.947  71.626  1.00  0.00    -0.349 OA 
HETATM   19  C   UNL     1     -12.003  13.414  69.885  1.00  0.00    -0.408 A  
HETATM   20  H   UNL     1     -13.740  13.030  71.701  1.00  0.00     0.000 HD 
ENDBRANCH  10  11
ENDBRANCH   6   9
TORSDOF 2
ENDMDL
MODEL      110
REMARK 921   NORMALIZED FREE ENERGY PREDICTED BY IDOCK:   -4.40 KCAL/MOL
REMARK 922        TOTAL FREE ENERGY PREDICTED BY IDOCK:   -5.24 KCAL/MOL
REMARK 923 INTER-LIGAND FREE ENERGY PREDICTED BY IDOCK:   -4.91 KCAL/MOL
REMARK 924 INTRA-LIGAND FREE ENERGY PREDICTED BY IDOCK:   -0.33 KCAL/MOL
REMARK 927      BINDING AFFINITY PREDICTED BY RF-SCORE:    0.00 PKD
ROOT
HETATM    1  O   UNL     1      -5.527  11.109  64.995  1.00  0.00    -0.475 OA 
HETATM    2  H   UNL     1      -4.704  11.553  65.162  1.00  0.00     0.000 HD 
HETATM    3  C   UNL     1      -6.389  10.804  66.008  1.00  0.00    -0.126 A  
HETATM    4  C   UNL     1      -7.593  10.154  65.764  1.00  0.00    -0.134 A  
HETATM    5  C   UNL     1      -8.459   9.891  66.830  1.00  0.00    -0.125 A  
HETATM    6  C   UNL     1      -8.125  10.267  68.140  1.00  0.00    -0.110 A  
HETATM    7  C   UNL     1      -6.034  11.180  67.296  1.00  0.00    -0.064 A  
HETATM    8  C   UNL     1      -6.902  10.917  68.360  1.00  0.00    -0.068 A  
ENDROOT
BRANCH   6   9
HETATM    9  C   UNL     1      -9.112  10.054  69.211  1.00  0.00    -0.208 C  
HETATM   10  C   UNL     1     -10.355  10.563  69.220  1.00  0.00    -0.248 C  
BRANCH  10  11
HETATM   11  C   UNL     1     -11.355  10.299  70.271  1.00  0.00    -0.398 A  
HETATM   12  C   UNL     1     -11.595   9.017  70.788  1.00  0.00    -0.313 A  
HETATM   13  C   UNL     1     -12.549   8.836  71.790  1.00  0.00    -0.356 A  
HETATM   14  C   UNL     1     -13.266   9.909  72.305  1.00  0.00    -0.434 A  
HETATM   15  O   UNL     1     -12.813   7.599  72.304  1.00  0.00    -0.494 OA 
HETATM   16  H   UNL     1     -13.463   7.476  72.986  1.00  0.00     0.000 HD 
HETATM   17  C   UNL     1     -13.014  11.181  71.806  1.00  0.00    -0.421 A  
HETATM   18  O   UNL     1     -13.683  12.272  72.278  1.00  0.00    -0.500 OA 
HETATM   19  C   UNL     1     -12.067  11.382  70.804  1.00  0.00    -0.433 A  
HETATM   20  H   UNL     1     -13.510  13.142  71.937  1.00  0.00     0.000 HD 
ENDBRANCH  10  11
ENDBRANCH   6   9
TORSDOF 2
ENDMDL
MODEL      111
REMARK 921   NORMALIZED FREE ENERGY PREDICTED BY IDOCK:   -4.40 KCAL/MOL
REMARK 922        TOTAL FREE ENERGY PREDICTED BY IDOCK:   -5.23 KCAL/MOL
REMARK 923 INTER-LIGAND FREE ENERGY PREDICTED BY IDOCK:   -4.92 KCAL/MOL
REMARK 924 INTRA-LIGAND FREE ENERGY PREDICTED BY IDOCK:   -0.32 KCAL/MOL
REMARK 927      BINDING AFFINITY PREDICTED BY RF-SCORE:    0.00 PKD
ROOT
HETATM    1  O   UNL     1      -8.977  20.657  67.257  1.00  0.00    -0.463 OA 
HETATM    2  H   UNL     1      -9.558  21.316  67.616  1.00  0.00     0.000 HD 
HETATM    3  C   UNL     1      -9.092  19.342  67.602  1.00  0.00    -0.303 A  
HETATM    4  C   UNL     1      -8.241  18.377  67.077  1.00  0.00    -0.253 A  
HETATM    5  C   UNL     1      -8.418  17.038  67.436  1.00  0.00    -0.208 A  
HETATM    6  C   UNL     1      -9.436  16.658  68.324  1.00  0.00    -0.230 A  
HETATM    7  C   UNL     1     -10.103  18.991  68.488  1.00  0.00    -0.467 A  
HETATM    8  C   UNL     1     -10.278  17.650  68.844  1.00  0.00    -0.354 A  
ENDROOT
BRANCH   6   9
HETATM    9  C   UNL     1      -9.641  15.224  68.595  1.00  0.00    -0.206 C  
HETATM   10  C   UNL     1     -10.704  14.512  68.187  1.00  0.00    -0.240 C  
BRANCH  10  11
HETATM   11  C   UNL     1     -10.873  13.065  68.416  1.00  0.00    -0.280 A  
HETATM   12  C   UNL     1     -11.704  12.545  69.419  1.00  0.00    -0.383 A  
HETATM   13  C   UNL     1     -11.827  11.164  69.576  1.00  0.00    -0.353 A  
HETATM   14  C   UNL     1     -11.151  10.281  68.745  1.00  0.00    -0.276 A  
HETATM   15  O   UNL     1     -12.619  10.629  70.551  1.00  0.00    -0.332 OA 
HETATM   16  H   UNL     1     -12.703   9.689  70.658  1.00  0.00     0.000 HD 
HETATM   17  C   UNL     1     -10.344  10.796  67.739  1.00  0.00    -0.193 A  
HETATM   18  O   UNL     1      -9.661   9.976  66.889  1.00  0.00    -0.164 OA 
HETATM   19  C   UNL     1     -10.204  12.172  67.567  1.00  0.00    -0.209 A  
HETATM   20  H   UNL     1      -9.109  10.329  66.201  1.00  0.00     0.000 HD 
ENDBRANCH  10  11
ENDBRANCH   6   9
TORSDOF 2
ENDMDL
MODEL      112
REMARK 921   NORMALIZED FREE ENERGY PREDICTED BY IDOCK:   -4.40 KCAL/MOL
REMARK 922        TOTAL FREE ENERGY PREDICTED BY IDOCK:   -5.23 KCAL/MOL
REMARK 923 INTER-LIGAND FREE ENERGY PREDICTED BY IDOCK:   -4.91 KCAL/MOL
REMARK 924 INTRA-LIGAND FREE ENERGY PREDICTED BY IDOCK:   -0.32 KCAL/MOL
REMARK 927      BINDING AFFINITY PREDICTED BY RF-SCORE:    0.00 PKD
ROOT
HETATM    1  O   UNL     1      -9.610   3.269  72.685  1.00  0.00    -0.111 OA 
HETATM    2  H   UNL     1      -9.811   3.465  73.593  1.00  0.00     0.000 HD 
HETATM    3  C   UNL     1      -9.891   4.155  71.687  1.00  0.00    -0.184 A  
HETATM    4  C   UNL     1      -9.598   3.868  70.359  1.00  0.00    -0.266 A  
HETATM    5  C   UNL     1      -9.876   4.820  69.374  1.00  0.00    -0.282 A  
HETATM    6  C   UNL     1     -10.453   6.055  69.707  1.00  0.00    -0.320 A  
HETATM    7  C   UNL     1     -10.469   5.367  72.040  1.00  0.00    -0.278 A  
HETATM    8  C   UNL     1     -10.744   6.319  71.053  1.00  0.00    -0.313 A  
ENDROOT
BRANCH   6   9
HETATM    9  C   UNL     1     -10.637   7.060  68.646  1.00  0.00    -0.238 C  
HETATM   10  C   UNL     1     -10.096   8.289  68.654  1.00  0.00    -0.212 C  
BRANCH  10  11
HETATM   11  C   UNL     1     -10.241   9.268  67.561  1.00  0.00    -0.300 A  
HETATM   12  C   UNL     1      -9.730   9.052  66.272  1.00  0.00    -0.345 A  
HETATM   13  C   UNL     1      -9.910  10.015  65.279  1.00  0.00    -0.318 A  
HETATM   14  C   UNL     1     -10.604  11.191  65.533  1.00  0.00    -0.289 A  
HETATM   15  O   UNL     1      -9.414   9.838  64.019  1.00  0.00    -0.390 OA 
HETATM   16  H   UNL     1      -9.536  10.493  63.344  1.00  0.00     0.000 HD 
HETATM   17  C   UNL     1     -11.127  11.397  66.803  1.00  0.00    -0.281 A  
HETATM   18  O   UNL     1     -11.822  12.530  67.109  1.00  0.00    -0.417 OA 
HETATM   19  C   UNL     1     -10.956  10.448  67.810  1.00  0.00    -0.369 A  
HETATM   20  H   UNL     1     -12.180  12.670  67.978  1.00  0.00     0.000 HD 
ENDBRANCH  10  11
ENDBRANCH   6   9
TORSDOF 2
ENDMDL
MODEL      113
REMARK 921   NORMALIZED FREE ENERGY PREDICTED BY IDOCK:   -4.39 KCAL/MOL
REMARK 922        TOTAL FREE ENERGY PREDICTED BY IDOCK:   -5.23 KCAL/MOL
REMARK 923 INTER-LIGAND FREE ENERGY PREDICTED BY IDOCK:   -4.91 KCAL/MOL
REMARK 924 INTRA-LIGAND FREE ENERGY PREDICTED BY IDOCK:   -0.32 KCAL/MOL
REMARK 927      BINDING AFFINITY PREDICTED BY RF-SCORE:    0.00 PKD
ROOT
HETATM    1  O   UNL     1     -11.086  17.461  68.052  1.00  0.00    -0.259 OA 
HETATM    2  H   UNL     1     -10.851  17.866  67.225  1.00  0.00     0.000 HD 
HETATM    3  C   UNL     1     -11.205  16.107  68.172  1.00  0.00    -0.311 A  
HETATM    4  C   UNL     1     -11.548  15.514  69.381  1.00  0.00    -0.366 A  
HETATM    5  C   UNL     1     -11.627  14.120  69.463  1.00  0.00    -0.349 A  
HETATM    6  C   UNL     1     -11.372  13.316  68.342  1.00  0.00    -0.326 A  
HETATM    7  C   UNL     1     -10.954  15.332  67.047  1.00  0.00    -0.324 A  
HETATM    8  C   UNL     1     -11.032  13.939  67.133  1.00  0.00    -0.298 A  
ENDROOT
BRANCH   6   9
HETATM    9  C   UNL     1     -11.373  11.853  68.505  1.00  0.00    -0.329 C  
HETATM   10  C   UNL     1     -10.491  11.016  67.933  1.00  0.00    -0.223 C  
BRANCH  10  11
HETATM   11  C   UNL     1     -10.468   9.558  68.148  1.00  0.00    -0.268 A  
HETATM   12  C   UNL     1     -10.784   8.635  67.140  1.00  0.00    -0.199 A  
HETATM   13  C   UNL     1     -10.733   7.266  67.406  1.00  0.00    -0.288 A  
HETATM   14  C   UNL     1     -10.358   6.788  68.655  1.00  0.00    -0.202 A  
HETATM   15  O   UNL     1     -11.047   6.345  66.448  1.00  0.00    -0.613 OA 
HETATM   16  H   UNL     1     -11.013   5.413  66.630  1.00  0.00     0.000 HD 
HETATM   17  C   UNL     1     -10.025   7.702  69.647  1.00  0.00    -0.185 A  
HETATM   18  O   UNL     1      -9.644   7.291  70.890  1.00  0.00    -0.170 OA 
HETATM   19  C   UNL     1     -10.073   9.073  69.403  1.00  0.00    -0.198 A  
HETATM   20  H   UNL     1      -9.416   7.915  71.568  1.00  0.00     0.000 HD 
ENDBRANCH  10  11
ENDBRANCH   6   9
TORSDOF 2
ENDMDL
MODEL      114
REMARK 921   NORMALIZED FREE ENERGY PREDICTED BY IDOCK:   -4.39 KCAL/MOL
REMARK 922        TOTAL FREE ENERGY PREDICTED BY IDOCK:   -5.22 KCAL/MOL
REMARK 923 INTER-LIGAND FREE ENERGY PREDICTED BY IDOCK:   -4.89 KCAL/MOL
REMARK 924 INTRA-LIGAND FREE ENERGY PREDICTED BY IDOCK:   -0.33 KCAL/MOL
REMARK 927      BINDING AFFINITY PREDICTED BY RF-SCORE:    0.00 PKD
ROOT
HETATM    1  O   UNL     1     -10.576   4.715  73.780  1.00  0.00    -0.209 OA 
HETATM    2  H   UNL     1     -10.252   4.690  74.672  1.00  0.00     0.000 HD 
HETATM    3  C   UNL     1     -10.563   5.867  73.049  1.00  0.00    -0.243 A  
HETATM    4  C   UNL     1     -11.037   5.902  71.743  1.00  0.00    -0.324 A  
HETATM    5  C   UNL     1     -10.975   7.100  71.024  1.00  0.00    -0.277 A  
HETATM    6  C   UNL     1     -10.449   8.264  71.604  1.00  0.00    -0.303 A  
HETATM    7  C   UNL     1     -10.045   7.008  73.647  1.00  0.00    -0.376 A  
HETATM    8  C   UNL     1      -9.983   8.203  72.925  1.00  0.00    -0.336 A  
ENDROOT
BRANCH   6   9
HETATM    9  C   UNL     1     -10.317   9.472  70.773  1.00  0.00    -0.377 C  
HETATM   10  C   UNL     1     -10.429   9.499  69.435  1.00  0.00    -0.231 C  
BRANCH  10  11
HETATM   11  C   UNL     1     -10.350  10.723  68.618  1.00  0.00    -0.208 A  
HETATM   12  C   UNL     1      -9.281  11.627  68.702  1.00  0.00    -0.112 A  
HETATM   13  C   UNL     1      -9.262  12.763  67.892  1.00  0.00    -0.205 A  
HETATM   14  C   UNL     1     -10.280  13.017  66.983  1.00  0.00    -0.245 A  
HETATM   15  O   UNL     1      -8.241  13.667  67.961  1.00  0.00    -0.139 OA 
HETATM   16  H   UNL     1      -8.228  14.440  67.409  1.00  0.00     0.000 HD 
HETATM   17  C   UNL     1     -11.329  12.111  66.885  1.00  0.00    -0.343 A  
HETATM   18  O   UNL     1     -12.354  12.305  66.005  1.00  0.00    -0.609 OA 
HETATM   19  C   UNL     1     -11.369  10.972  67.687  1.00  0.00    -0.355 A  
HETATM   20  H   UNL     1     -13.071  11.686  65.939  1.00  0.00     0.000 HD 
ENDBRANCH  10  11
ENDBRANCH   6   9
TORSDOF 2
ENDMDL
MODEL      115
REMARK 921   NORMALIZED FREE ENERGY PREDICTED BY IDOCK:   -4.38 KCAL/MOL
REMARK 922        TOTAL FREE ENERGY PREDICTED BY IDOCK:   -5.21 KCAL/MOL
REMARK 923 INTER-LIGAND FREE ENERGY PREDICTED BY IDOCK:   -4.89 KCAL/MOL
REMARK 924 INTRA-LIGAND FREE ENERGY PREDICTED BY IDOCK:   -0.32 KCAL/MOL
REMARK 927      BINDING AFFINITY PREDICTED BY RF-SCORE:    0.00 PKD
ROOT
HETATM    1  O   UNL     1      -9.684   4.689  70.687  1.00  0.00    -0.174 OA 
HETATM    2  H   UNL     1      -9.538   4.841  71.613  1.00  0.00     0.000 HD 
HETATM    3  C   UNL     1     -10.047   5.701  69.847  1.00  0.00    -0.222 A  
HETATM    4  C   UNL     1     -10.260   5.478  68.493  1.00  0.00    -0.250 A  
HETATM    5  C   UNL     1     -10.600   6.553  67.665  1.00  0.00    -0.332 A  
HETATM    6  C   UNL     1     -10.736   7.849  68.186  1.00  0.00    -0.101 A  
HETATM    7  C   UNL     1     -10.181   6.973  70.387  1.00  0.00    -0.209 A  
HETATM    8  C   UNL     1     -10.519   8.047  69.557  1.00  0.00    -0.226 A  
ENDROOT
BRANCH   6   9
HETATM    9  C   UNL     1     -10.999   8.961  67.258  1.00  0.00     0.093 C  
HETATM   10  C   UNL     1     -10.434  10.177  67.338  1.00  0.00    -0.310 C  
BRANCH  10  11
HETATM   11  C   UNL     1     -10.663  11.266  66.371  1.00  0.00    -0.320 A  
HETATM   12  C   UNL     1      -9.974  11.360  65.152  1.00  0.00    -0.310 A  
HETATM   13  C   UNL     1     -10.245  12.412  64.277  1.00  0.00    -0.332 A  
HETATM   14  C   UNL     1     -11.203  13.371  64.577  1.00  0.00    -0.393 A  
HETATM   15  O   UNL     1      -9.582  12.537  63.090  1.00  0.00    -0.482 OA 
HETATM   16  H   UNL     1      -9.766  13.252  62.494  1.00  0.00     0.000 HD 
HETATM   17  C   UNL     1     -11.900  13.267  65.774  1.00  0.00    -0.387 A  
HETATM   18  O   UNL     1     -12.857  14.176  66.120  1.00  0.00    -0.502 OA 
HETATM   19  C   UNL     1     -11.642  12.226  66.664  1.00  0.00    -0.438 A  
HETATM   20  H   UNL     1     -13.333  14.104  66.938  1.00  0.00     0.000 HD 
ENDBRANCH  10  11
ENDBRANCH   6   9
TORSDOF 2
ENDMDL
MODEL      116
REMARK 921   NORMALIZED FREE ENERGY PREDICTED BY IDOCK:   -4.36 KCAL/MOL
REMARK 922        TOTAL FREE ENERGY PREDICTED BY IDOCK:   -5.19 KCAL/MOL
REMARK 923 INTER-LIGAND FREE ENERGY PREDICTED BY IDOCK:   -4.86 KCAL/MOL
REMARK 924 INTRA-LIGAND FREE ENERGY PREDICTED BY IDOCK:   -0.33 KCAL/MOL
REMARK 927      BINDING AFFINITY PREDICTED BY RF-SCORE:    0.00 PKD
ROOT
HETATM    1  O   UNL     1      -5.732   7.119  69.335  1.00  0.00    -0.015 OA 
HETATM    2  H   UNL     1      -4.836   7.412  69.454  1.00  0.00     0.000 HD 
HETATM    3  C   UNL     1      -6.639   7.869  68.645  1.00  0.00    -0.057 A  
HETATM    4  C   UNL     1      -7.950   7.441  68.471  1.00  0.00    -0.124 A  
HETATM    5  C   UNL     1      -8.836   8.229  67.729  1.00  0.00    -0.137 A  
HETATM    6  C   UNL     1      -8.421   9.446  67.167  1.00  0.00    -0.128 A  
HETATM    7  C   UNL     1      -6.208   9.072  68.103  1.00  0.00    -0.054 A  
HETATM    8  C   UNL     1      -7.095   9.857  67.361  1.00  0.00    -0.085 A  
ENDROOT
BRANCH   6   9
HETATM    9  C   UNL     1      -9.364  10.189  66.314  1.00  0.00    -0.214 C  
HETATM   10  C   UNL     1      -9.518  11.523  66.323  1.00  0.00    -0.235 C  
BRANCH  10  11
HETATM   11  C   UNL     1     -10.425  12.262  65.427  1.00  0.00    -0.302 A  
HETATM   12  C   UNL     1     -10.474  13.664  65.380  1.00  0.00    -0.333 A  
HETATM   13  C   UNL     1     -11.350  14.302  64.501  1.00  0.00    -0.334 A  
HETATM   14  C   UNL     1     -12.173  13.577  63.649  1.00  0.00    -0.438 A  
HETATM   15  O   UNL     1     -11.428  15.664  64.442  1.00  0.00    -0.673 OA 
HETATM   16  H   UNL     1     -12.024  16.098  63.843  1.00  0.00     0.000 HD 
HETATM   17  C   UNL     1     -12.110  12.189  63.682  1.00  0.00    -0.551 A  
HETATM   18  O   UNL     1     -12.890  11.425  62.864  1.00  0.00    -0.881 OA 
HETATM   19  C   UNL     1     -11.245  11.532  64.555  1.00  0.00    -0.301 A  
HETATM   20  H   UNL     1     -12.846  10.476  62.887  1.00  0.00     0.000 HD 
ENDBRANCH  10  11
ENDBRANCH   6   9
TORSDOF 2
ENDMDL
MODEL      117
REMARK 921   NORMALIZED FREE ENERGY PREDICTED BY IDOCK:   -4.30 KCAL/MOL
REMARK 922        TOTAL FREE ENERGY PREDICTED BY IDOCK:   -5.13 KCAL/MOL
REMARK 923 INTER-LIGAND FREE ENERGY PREDICTED BY IDOCK:   -4.80 KCAL/MOL
REMARK 924 INTRA-LIGAND FREE ENERGY PREDICTED BY IDOCK:   -0.33 KCAL/MOL
REMARK 927      BINDING AFFINITY PREDICTED BY RF-SCORE:    0.00 PKD
ROOT
HETATM    1  O   UNL     1     -10.805   8.092  68.437  1.00  0.00    -0.421 OA 
HETATM    2  H   UNL     1     -10.426   7.387  67.925  1.00  0.00     0.000 HD 
HETATM    3  C   UNL     1     -10.477   9.395  68.205  1.00  0.00    -0.217 A  
HETATM    4  C   UNL     1     -11.032  10.426  68.954  1.00  0.00    -0.289 A  
HETATM    5  C   UNL     1     -10.689  11.749  68.659  1.00  0.00    -0.252 A  
HETATM    6  C   UNL     1      -9.788  12.048  67.625  1.00  0.00    -0.191 A  
HETATM    7  C   UNL     1      -9.578   9.666  67.182  1.00  0.00    -0.210 A  
HETATM    8  C   UNL     1      -9.238  10.990  66.888  1.00  0.00    -0.168 A  
ENDROOT
BRANCH   6   9
HETATM    9  C   UNL     1      -9.535  13.460  67.292  1.00  0.00    -0.234 C  
HETATM   10  C   UNL     1     -10.089  14.508  67.923  1.00  0.00    -0.227 C  
BRANCH  10  11
HETATM   11  C   UNL     1      -9.786  15.918  67.618  1.00  0.00    -0.233 A  
HETATM   12  C   UNL     1      -8.830  16.662  68.326  1.00  0.00    -0.214 A  
HETATM   13  C   UNL     1      -8.585  17.991  67.980  1.00  0.00    -0.264 A  
HETATM   14  C   UNL     1      -9.260  18.599  66.929  1.00  0.00    -0.305 A  
HETATM   15  O   UNL     1      -7.669  18.744  68.658  1.00  0.00    -0.311 OA 
HETATM   16  H   UNL     1      -7.502  19.649  68.423  1.00  0.00     0.000 HD 
HETATM   17  C   UNL     1     -10.192  17.856  66.216  1.00  0.00    -0.363 A  
HETATM   18  O   UNL     1     -10.880  18.398  65.170  1.00  0.00    -0.630 OA 
HETATM   19  C   UNL     1     -10.454  16.528  66.547  1.00  0.00    -0.270 A  
HETATM   20  H   UNL     1     -11.517  17.890  64.683  1.00  0.00     0.000 HD 
ENDBRANCH  10  11
ENDBRANCH   6   9
TORSDOF 2
ENDMDL
MODEL      118
REMARK 921   NORMALIZED FREE ENERGY PREDICTED BY IDOCK:   -4.30 KCAL/MOL
REMARK 922        TOTAL FREE ENERGY PREDICTED BY IDOCK:   -5.13 KCAL/MOL
REMARK 923 INTER-LIGAND FREE ENERGY PREDICTED BY IDOCK:   -4.82 KCAL/MOL
REMARK 924 INTRA-LIGAND FREE ENERGY PREDICTED BY IDOCK:   -0.31 KCAL/MOL
REMARK 927      BINDING AFFINITY PREDICTED BY RF-SCORE:    0.00 PKD
ROOT
HETATM    1  O   UNL     1     -11.828  14.888  65.628  1.00  0.00    -0.265 OA 
HETATM    2  H   UNL     1     -12.299  15.654  65.933  1.00  0.00     0.000 HD 
HETATM    3  C   UNL     1     -11.456  13.893  66.484  1.00  0.00    -0.348 A  
HETATM    4  C   UNL     1     -10.767  12.772  66.037  1.00  0.00    -0.295 A  
HETATM    5  C   UNL     1     -10.434  11.764  66.946  1.00  0.00    -0.256 A  
HETATM    6  C   UNL     1     -10.778  11.873  68.302  1.00  0.00    -0.253 A  
HETATM    7  C   UNL     1     -11.802  14.026  67.822  1.00  0.00    -0.419 A  
HETATM    8  C   UNL     1     -11.469  13.015  68.729  1.00  0.00    -0.340 A  
ENDROOT
BRANCH   6   9
HETATM    9  C   UNL     1     -10.490  10.741  69.199  1.00  0.00    -0.243 C  
HETATM   10  C   UNL     1     -11.392   9.827  69.594  1.00  0.00    -0.165 C  
BRANCH  10  11
HETATM   11  C   UNL     1     -11.080   8.667  70.448  1.00  0.00    -0.250 A  
HETATM   12  C   UNL     1     -10.884   8.771  71.833  1.00  0.00    -0.431 A  
HETATM   13  C   UNL     1     -10.601   7.631  72.586  1.00  0.00    -0.299 A  
HETATM   14  C   UNL     1     -10.524   6.377  71.994  1.00  0.00    -0.236 A  
HETATM   15  O   UNL     1     -10.393   7.703  73.934  1.00  0.00    -0.350 OA 
HETATM   16  H   UNL     1     -10.201   6.927  74.446  1.00  0.00     0.000 HD 
HETATM   17  C   UNL     1     -10.738   6.271  70.625  1.00  0.00    -0.264 A  
HETATM   18  O   UNL     1     -10.681   5.065  69.990  1.00  0.00    -0.170 OA 
HETATM   19  C   UNL     1     -11.018   7.398  69.855  1.00  0.00    -0.239 A  
HETATM   20  H   UNL     1     -10.827   4.992  69.055  1.00  0.00     0.000 HD 
ENDBRANCH  10  11
ENDBRANCH   6   9
TORSDOF 2
ENDMDL
MODEL      119
REMARK 921   NORMALIZED FREE ENERGY PREDICTED BY IDOCK:   -4.24 KCAL/MOL
REMARK 922        TOTAL FREE ENERGY PREDICTED BY IDOCK:   -5.06 KCAL/MOL
REMARK 923 INTER-LIGAND FREE ENERGY PREDICTED BY IDOCK:   -4.73 KCAL/MOL
REMARK 924 INTRA-LIGAND FREE ENERGY PREDICTED BY IDOCK:   -0.33 KCAL/MOL
REMARK 927      BINDING AFFINITY PREDICTED BY RF-SCORE:    0.00 PKD
ROOT
HETATM    1  O   UNL     1      -8.689   5.430  66.079  1.00  0.00    -0.128 OA 
HETATM    2  H   UNL     1      -9.096   4.691  66.516  1.00  0.00     0.000 HD 
HETATM    3  C   UNL     1      -9.158   6.700  66.243  1.00  0.00    -0.145 A  
HETATM    4  C   UNL     1      -8.562   7.781  65.604  1.00  0.00    -0.147 A  
HETATM    5  C   UNL     1      -9.059   9.069  65.828  1.00  0.00    -0.272 A  
HETATM    6  C   UNL     1     -10.152   9.282  66.681  1.00  0.00    -0.341 A  
HETATM    7  C   UNL     1     -10.245   6.886  67.087  1.00  0.00    -0.308 A  
HETATM    8  C   UNL     1     -10.738   8.175  67.310  1.00  0.00    -0.263 A  
ENDROOT
BRANCH   6   9
HETATM    9  C   UNL     1     -10.574  10.665  66.959  1.00  0.00    -0.317 C  
HETATM   10  C   UNL     1      -9.740  11.707  67.105  1.00  0.00    -0.195 C  
BRANCH  10  11
HETATM   11  C   UNL     1     -10.176  13.098  67.328  1.00  0.00    -0.243 A  
HETATM   12  C   UNL     1     -11.226  13.437  68.194  1.00  0.00    -0.304 A  
HETATM   13  C   UNL     1     -11.583  14.774  68.368  1.00  0.00    -0.324 A  
HETATM   14  C   UNL     1     -10.906  15.792  67.708  1.00  0.00    -0.316 A  
HETATM   15  O   UNL     1     -12.609  15.134  69.195  1.00  0.00    -0.579 OA 
HETATM   16  H   UNL     1     -12.851  16.044  69.313  1.00  0.00     0.000 HD 
HETATM   17  C   UNL     1      -9.853  15.458  66.866  1.00  0.00    -0.244 A  
HETATM   18  O   UNL     1      -9.149  16.416  66.197  1.00  0.00    -0.298 OA 
HETATM   19  C   UNL     1      -9.483  14.128  66.676  1.00  0.00    -0.303 A  
HETATM   20  H   UNL     1      -8.429  16.187  65.622  1.00  0.00     0.000 HD 
ENDBRANCH  10  11
ENDBRANCH   6   9
TORSDOF 2
ENDMDL
MODEL      120
REMARK 921   NORMALIZED FREE ENERGY PREDICTED BY IDOCK:   -4.22 KCAL/MOL
REMARK 922        TOTAL FREE ENERGY PREDICTED BY IDOCK:   -5.04 KCAL/MOL
REMARK 923 INTER-LIGAND FREE ENERGY PREDICTED BY IDOCK:   -4.71 KCAL/MOL
REMARK 924 INTRA-LIGAND FREE ENERGY PREDICTED BY IDOCK:   -0.32 KCAL/MOL
REMARK 927      BINDING AFFINITY PREDICTED BY RF-SCORE:    0.00 PKD
ROOT
HETATM    1  O   UNL     1      -9.313   8.295  65.669  1.00  0.00    -0.408 OA 
HETATM    2  H   UNL     1      -8.700   7.827  66.223  1.00  0.00     0.000 HD 
HETATM    3  C   UNL     1      -9.505   9.639  65.796  1.00  0.00    -0.246 A  
HETATM    4  C   UNL     1     -10.402  10.323  64.985  1.00  0.00    -0.174 A  
HETATM    5  C   UNL     1     -10.543  11.707  65.132  1.00  0.00    -0.343 A  
HETATM    6  C   UNL     1      -9.798  12.409  66.091  1.00  0.00    -0.263 A  
HETATM    7  C   UNL     1      -8.762  10.312  66.757  1.00  0.00    -0.132 A  
HETATM    8  C   UNL     1      -8.903  11.696  66.901  1.00  0.00    -0.190 A  
ENDROOT
BRANCH   6   9
HETATM    9  C   UNL     1      -9.911  13.877  66.140  1.00  0.00    -0.322 C  
HETATM   10  C   UNL     1      -9.377  14.656  67.094  1.00  0.00    -0.231 C  
BRANCH  10  11
HETATM   11  C   UNL     1      -9.449  16.128  67.103  1.00  0.00    -0.231 A  
HETATM   12  C   UNL     1     -10.126  16.864  66.119  1.00  0.00    -0.347 A  
HETATM   13  C   UNL     1     -10.165  18.256  66.191  1.00  0.00    -0.381 A  
HETATM   14  C   UNL     1      -9.556  18.941  67.235  1.00  0.00    -0.346 A  
HETATM   15  O   UNL     1     -10.806  18.999  65.241  1.00  0.00    -0.540 OA 
HETATM   16  H   UNL     1     -10.832  19.947  65.291  1.00  0.00     0.000 HD 
HETATM   17  C   UNL     1      -8.903  18.212  68.221  1.00  0.00    -0.283 A  
HETATM   18  O   UNL     1      -8.293  18.830  69.273  1.00  0.00    -0.053 OA 
HETATM   19  C   UNL     1      -8.850  16.820  68.165  1.00  0.00    -0.223 A  
HETATM   20  H   UNL     1      -7.847  18.331  69.947  1.00  0.00     0.000 HD 
ENDBRANCH  10  11
ENDBRANCH   6   9
TORSDOF 2
ENDMDL
MODEL      121
REMARK 921   NORMALIZED FREE ENERGY PREDICTED BY IDOCK:   -4.21 KCAL/MOL
REMARK 922        TOTAL FREE ENERGY PREDICTED BY IDOCK:   -5.03 KCAL/MOL
REMARK 923 INTER-LIGAND FREE ENERGY PREDICTED BY IDOCK:   -4.68 KCAL/MOL
REMARK 924 INTRA-LIGAND FREE ENERGY PREDICTED BY IDOCK:   -0.35 KCAL/MOL
REMARK 927      BINDING AFFINITY PREDICTED BY RF-SCORE:    0.00 PKD
ROOT
HETATM    1  O   UNL     1      -7.651   8.556  69.807  1.00  0.00    -0.079 OA 
HETATM    2  H   UNL     1      -8.161   7.755  69.835  1.00  0.00     0.000 HD 
HETATM    3  C   UNL     1      -8.082   9.650  69.115  1.00  0.00    -0.104 A  
HETATM    4  C   UNL     1      -7.335  10.821  69.075  1.00  0.00    -0.109 A  
HETATM    5  C   UNL     1      -7.832  11.928  68.378  1.00  0.00    -0.141 A  
HETATM    6  C   UNL     1      -9.068  11.867  67.715  1.00  0.00    -0.180 A  
HETATM    7  C   UNL     1      -9.303   9.564  68.462  1.00  0.00    -0.138 A  
HETATM    8  C   UNL     1      -9.799  10.672  67.768  1.00  0.00    -0.187 A  
ENDROOT
BRANCH   6   9
HETATM    9  C   UNL     1      -9.591  13.088  67.079  1.00  0.00    -0.236 C  
HETATM   10  C   UNL     1      -9.430  14.331  67.559  1.00  0.00    -0.209 C  
BRANCH  10  11
HETATM   11  C   UNL     1      -9.910  15.552  66.885  1.00  0.00    -0.245 A  
HETATM   12  C   UNL     1      -9.723  16.838  67.415  1.00  0.00    -0.245 A  
HETATM   13  C   UNL     1     -10.194  17.953  66.721  1.00  0.00    -0.360 A  
HETATM   14  C   UNL     1     -10.838  17.822  65.497  1.00  0.00     0.087 A  
HETATM   15  O   UNL     1     -10.038  19.215  67.217  1.00  0.00    -0.336 OA 
HETATM   16  H   UNL     1     -10.359  19.974  66.745  1.00  0.00     0.000 HD 
HETATM   17  C   UNL     1     -11.005  16.550  64.963  1.00  0.00    -0.210 A  
HETATM   18  O   UNL     1     -11.624  16.361  63.763  1.00  0.00    -1.605 OA 
HETATM   19  C   UNL     1     -10.545  15.423  65.642  1.00  0.00    -0.379 A  
HETATM   20  H   UNL     1     -11.738  15.492  63.398  1.00  0.00     0.000 HD 
ENDBRANCH  10  11
ENDBRANCH   6   9
TORSDOF 2
ENDMDL
MODEL      122
REMARK 921   NORMALIZED FREE ENERGY PREDICTED BY IDOCK:   -4.20 KCAL/MOL
REMARK 922        TOTAL FREE ENERGY PREDICTED BY IDOCK:   -5.01 KCAL/MOL
REMARK 923 INTER-LIGAND FREE ENERGY PREDICTED BY IDOCK:   -4.70 KCAL/MOL
REMARK 924 INTRA-LIGAND FREE ENERGY PREDICTED BY IDOCK:   -0.32 KCAL/MOL
REMARK 927      BINDING AFFINITY PREDICTED BY RF-SCORE:    0.00 PKD
ROOT
HETATM    1  O   UNL     1     -10.195  18.435  66.835  1.00  0.00    -0.341 OA 
HETATM    2  H   UNL     1     -10.785  18.942  67.380  1.00  0.00     0.000 HD 
HETATM    3  C   UNL     1     -10.047  17.090  67.006  1.00  0.00    -0.295 A  
HETATM    4  C   UNL     1      -9.184  16.348  66.209  1.00  0.00    -0.350 A  
HETATM    5  C   UNL     1      -9.089  14.966  66.401  1.00  0.00    -0.293 A  
HETATM    6  C   UNL     1      -9.846  14.322  67.391  1.00  0.00    -0.235 A  
HETATM    7  C   UNL     1     -10.802  16.475  67.997  1.00  0.00    -0.337 A  
HETATM    8  C   UNL     1     -10.706  15.093  68.186  1.00  0.00    -0.254 A  
ENDROOT
BRANCH   6   9
HETATM    9  C   UNL     1      -9.783  12.854  67.489  1.00  0.00    -0.205 C  
HETATM   10  C   UNL     1     -10.355  12.125  68.460  1.00  0.00    -0.233 C  
BRANCH  10  11
HETATM   11  C   UNL     1     -10.332  10.652  68.517  1.00  0.00    -0.202 A  
HETATM   12  C   UNL     1     -10.340   9.844  67.370  1.00  0.00    -0.301 A  
HETATM   13  C   UNL     1     -10.307   8.455  67.493  1.00  0.00    -0.265 A  
HETATM   14  C   UNL     1     -10.251   7.844  68.739  1.00  0.00    -0.218 A  
HETATM   15  O   UNL     1     -10.326   7.644  66.395  1.00  0.00    -0.488 OA 
HETATM   16  H   UNL     1     -10.303   6.698  66.480  1.00  0.00     0.000 HD 
HETATM   17  C   UNL     1     -10.223   8.643  69.875  1.00  0.00    -0.203 A  
HETATM   18  O   UNL     1     -10.161   8.099  71.124  1.00  0.00    -0.191 OA 
HETATM   19  C   UNL     1     -10.258  10.033  69.773  1.00  0.00    -0.286 A  
HETATM   20  H   UNL     1     -10.142   8.646  71.900  1.00  0.00     0.000 HD 
ENDBRANCH  10  11
ENDBRANCH   6   9
TORSDOF 2
ENDMDL
MODEL      123
REMARK 921   NORMALIZED FREE ENERGY PREDICTED BY IDOCK:   -4.16 KCAL/MOL
REMARK 922        TOTAL FREE ENERGY PREDICTED BY IDOCK:   -4.97 KCAL/MOL
REMARK 923 INTER-LIGAND FREE ENERGY PREDICTED BY IDOCK:   -4.65 KCAL/MOL
REMARK 924 INTRA-LIGAND FREE ENERGY PREDICTED BY IDOCK:   -0.32 KCAL/MOL
REMARK 927      BINDING AFFINITY PREDICTED BY RF-SCORE:    0.00 PKD
ROOT
HETATM    1  O   UNL     1     -10.788  10.631  67.798  1.00  0.00    -0.240 OA 
HETATM    2  H   UNL     1     -10.240   9.927  67.473  1.00  0.00     0.000 HD 
HETATM    3  C   UNL     1     -10.373  11.930  67.764  1.00  0.00    -0.198 A  
HETATM    4  C   UNL     1     -11.176  12.960  68.239  1.00  0.00    -0.304 A  
HETATM    5  C   UNL     1     -10.720  14.280  68.154  1.00  0.00    -0.249 A  
HETATM    6  C   UNL     1      -9.464  14.575  67.604  1.00  0.00    -0.209 A  
HETATM    7  C   UNL     1      -9.124  12.197  67.221  1.00  0.00    -0.181 A  
HETATM    8  C   UNL     1      -8.671  13.518  67.136  1.00  0.00    -0.222 A  
ENDROOT
BRANCH   6   9
HETATM    9  C   UNL     1      -9.072  15.986  67.449  1.00  0.00    -0.207 C  
HETATM   10  C   UNL     1      -8.234  16.643  68.266  1.00  0.00    -0.200 C  
BRANCH  10  11
HETATM   11  C   UNL     1      -7.806  18.040  68.070  1.00  0.00    -0.257 A  
HETATM   12  C   UNL     1      -7.131  18.776  69.057  1.00  0.00    -0.324 A  
HETATM   13  C   UNL     1      -6.744  20.092  68.804  1.00  0.00    -0.309 A  
HETATM   14  C   UNL     1      -7.001  20.696  67.579  1.00  0.00    -0.395 A  
HETATM   15  O   UNL     1      -6.097  20.836  69.748  1.00  0.00    -0.360 OA 
HETATM   16  H   UNL     1      -5.834  21.732  69.576  1.00  0.00     0.000 HD 
HETATM   17  C   UNL     1      -7.651  19.961  66.595  1.00  0.00    -0.269 A  
HETATM   18  O   UNL     1      -7.923  20.500  65.372  1.00  0.00    -0.449 OA 
HETATM   19  C   UNL     1      -8.048  18.646  66.829  1.00  0.00    -0.275 A  
HETATM   20  H   UNL     1      -8.368  19.998  64.700  1.00  0.00     0.000 HD 
ENDBRANCH  10  11
ENDBRANCH   6   9
TORSDOF 2
ENDMDL
MODEL      124
REMARK 921   NORMALIZED FREE ENERGY PREDICTED BY IDOCK:   -4.14 KCAL/MOL
REMARK 922        TOTAL FREE ENERGY PREDICTED BY IDOCK:   -4.94 KCAL/MOL
REMARK 923 INTER-LIGAND FREE ENERGY PREDICTED BY IDOCK:   -4.62 KCAL/MOL
REMARK 924 INTRA-LIGAND FREE ENERGY PREDICTED BY IDOCK:   -0.32 KCAL/MOL
REMARK 927      BINDING AFFINITY PREDICTED BY RF-SCORE:    0.00 PKD
ROOT
HETATM    1  O   UNL     1      -7.858  17.883  65.751  1.00  0.00    -0.542 OA 
HETATM    2  H   UNL     1      -6.979  18.223  65.869  1.00  0.00     0.000 HD 
HETATM    3  C   UNL     1      -8.220  16.661  66.238  1.00  0.00    -0.330 A  
HETATM    4  C   UNL     1      -9.506  16.165  66.065  1.00  0.00    -0.374 A  
HETATM    5  C   UNL     1      -9.839  14.920  66.609  1.00  0.00    -0.272 A  
HETATM    6  C   UNL     1      -8.891  14.165  67.316  1.00  0.00    -0.227 A  
HETATM    7  C   UNL     1      -7.263  15.929  66.928  1.00  0.00    -0.173 A  
HETATM    8  C   UNL     1      -7.599  14.686  67.472  1.00  0.00    -0.215 A  
ENDROOT
BRANCH   6   9
HETATM    9  C   UNL     1      -9.319  12.907  67.951  1.00  0.00    -0.208 C  
HETATM   10  C   UNL     1     -10.348  12.790  68.806  1.00  0.00    -0.136 C  
BRANCH  10  11
HETATM   11  C   UNL     1     -10.802  11.516  69.393  1.00  0.00    -0.180 A  
HETATM   12  C   UNL     1     -10.112  10.307  69.215  1.00  0.00    -0.244 A  
HETATM   13  C   UNL     1     -10.591   9.138  69.806  1.00  0.00    -0.229 A  
HETATM   14  C   UNL     1     -11.739   9.143  70.588  1.00  0.00    -0.256 A  
HETATM   15  O   UNL     1      -9.948   7.944  69.641  1.00  0.00    -0.184 OA 
HETATM   16  H   UNL     1     -10.274   7.148  70.043  1.00  0.00     0.000 HD 
HETATM   17  C   UNL     1     -12.411  10.343  70.780  1.00  0.00    -0.367 A  
HETATM   18  O   UNL     1     -13.539  10.410  71.543  1.00  0.00    -0.232 OA 
HETATM   19  C   UNL     1     -11.951  11.522  70.197  1.00  0.00    -0.452 A  
HETATM   20  H   UNL     1     -13.998  11.231  71.675  1.00  0.00     0.000 HD 
ENDBRANCH  10  11
ENDBRANCH   6   9
TORSDOF 2
ENDMDL
MODEL      125
REMARK 921   NORMALIZED FREE ENERGY PREDICTED BY IDOCK:   -4.14 KCAL/MOL
REMARK 922        TOTAL FREE ENERGY PREDICTED BY IDOCK:   -4.94 KCAL/MOL
REMARK 923 INTER-LIGAND FREE ENERGY PREDICTED BY IDOCK:   -4.62 KCAL/MOL
REMARK 924 INTRA-LIGAND FREE ENERGY PREDICTED BY IDOCK:   -0.32 KCAL/MOL
REMARK 927      BINDING AFFINITY PREDICTED BY RF-SCORE:    0.00 PKD
ROOT
HETATM    1  O   UNL     1     -12.134  16.589  71.584  1.00  0.00    -0.603 OA 
HETATM    2  H   UNL     1     -12.752  16.457  72.293  1.00  0.00     0.000 HD 
HETATM    3  C   UNL     1     -11.802  15.577  70.732  1.00  0.00    -0.367 A  
HETATM    4  C   UNL     1     -10.897  15.770  69.695  1.00  0.00    -0.300 A  
HETATM    5  C   UNL     1     -10.611  14.712  68.827  1.00  0.00    -0.248 A  
HETATM    6  C   UNL     1     -11.219  13.458  68.995  1.00  0.00    -0.323 A  
HETATM    7  C   UNL     1     -12.410  14.344  70.921  1.00  0.00    -0.419 A  
HETATM    8  C   UNL     1     -12.124  13.287  70.051  1.00  0.00    -0.385 A  
ENDROOT
BRANCH   6   9
HETATM    9  C   UNL     1     -10.958  12.406  67.998  1.00  0.00    -0.262 C  
HETATM   10  C   UNL     1      -9.739  11.973  67.640  1.00  0.00    -0.187 C  
BRANCH  10  11
HETATM   11  C   UNL     1      -9.491  10.881  66.682  1.00  0.00    -0.204 A  
HETATM   12  C   UNL     1      -9.545   9.526  67.040  1.00  0.00    -0.214 A  
HETATM   13  C   UNL     1      -9.310   8.540  66.081  1.00  0.00    -0.214 A  
HETATM   14  C   UNL     1      -9.035   8.870  64.761  1.00  0.00    -0.088 A  
HETATM   15  O   UNL     1      -9.344   7.214  66.403  1.00  0.00    -0.177 OA 
HETATM   16  H   UNL     1      -9.184   6.543  65.751  1.00  0.00     0.000 HD 
HETATM   17  C   UNL     1      -9.001  10.212  64.401  1.00  0.00    -0.233 A  
HETATM   18  O   UNL     1      -8.742  10.596  63.118  1.00  0.00    -0.177 OA 
HETATM   19  C   UNL     1      -9.230  11.212  65.344  1.00  0.00    -0.225 A  
HETATM   20  H   UNL     1      -8.718  11.513  62.873  1.00  0.00     0.000 HD 
ENDBRANCH  10  11
ENDBRANCH   6   9
TORSDOF 2
ENDMDL
MODEL      126
REMARK 921   NORMALIZED FREE ENERGY PREDICTED BY IDOCK:   -4.09 KCAL/MOL
REMARK 922        TOTAL FREE ENERGY PREDICTED BY IDOCK:   -4.89 KCAL/MOL
REMARK 923 INTER-LIGAND FREE ENERGY PREDICTED BY IDOCK:   -4.56 KCAL/MOL
REMARK 924 INTRA-LIGAND FREE ENERGY PREDICTED BY IDOCK:   -0.33 KCAL/MOL
REMARK 927      BINDING AFFINITY PREDICTED BY RF-SCORE:    0.00 PKD
ROOT
HETATM    1  O   UNL     1      -7.631   8.564  69.817  1.00  0.00    -0.079 OA 
HETATM    2  H   UNL     1      -8.186   7.793  69.833  1.00  0.00     0.000 HD 
HETATM    3  C   UNL     1      -8.049   9.729  69.243  1.00  0.00    -0.115 A  
HETATM    4  C   UNL     1      -7.237  10.856  69.220  1.00  0.00    -0.128 A  
HETATM    5  C   UNL     1      -7.720  12.038  68.648  1.00  0.00    -0.099 A  
HETATM    6  C   UNL     1      -9.007  12.096  68.093  1.00  0.00    -0.195 A  
HETATM    7  C   UNL     1      -9.323   9.761  68.694  1.00  0.00    -0.147 A  
HETATM    8  C   UNL     1      -9.805  10.944  68.125  1.00  0.00    -0.187 A  
ENDROOT
BRANCH   6   9
HETATM    9  C   UNL     1      -9.504  13.389  67.591  1.00  0.00    -0.216 C  
HETATM   10  C   UNL     1      -9.168  14.587  68.096  1.00  0.00    -0.195 C  
BRANCH  10  11
HETATM   11  C   UNL     1      -9.628  15.878  67.551  1.00  0.00    -0.221 A  
HETATM   12  C   UNL     1     -10.141  16.017  66.253  1.00  0.00    -0.329 A  
HETATM   13  C   UNL     1     -10.569  17.266  65.802  1.00  0.00    -0.194 A  
HETATM   14  C   UNL     1     -10.512  18.386  66.620  1.00  0.00    -0.415 A  
HETATM   15  O   UNL     1     -11.061  17.434  64.539  1.00  0.00    -1.008 OA 
HETATM   16  H   UNL     1     -11.352  18.284  64.232  1.00  0.00     0.000 HD 
HETATM   17  C   UNL     1     -10.022  18.245  67.913  1.00  0.00    -0.345 A  
HETATM   18  O   UNL     1      -9.949  19.308  68.764  1.00  0.00    -0.409 OA 
HETATM   19  C   UNL     1      -9.587  17.007  68.382  1.00  0.00    -0.277 A  
HETATM   20  H   UNL     1      -9.614  19.211  69.647  1.00  0.00     0.000 HD 
ENDBRANCH  10  11
ENDBRANCH   6   9
TORSDOF 2
ENDMDL
MODEL      127
REMARK 921   NORMALIZED FREE ENERGY PREDICTED BY IDOCK:   -4.08 KCAL/MOL
REMARK 922        TOTAL FREE ENERGY PREDICTED BY IDOCK:   -4.88 KCAL/MOL
REMARK 923 INTER-LIGAND FREE ENERGY PREDICTED BY IDOCK:   -4.57 KCAL/MOL
REMARK 924 INTRA-LIGAND FREE ENERGY PREDICTED BY IDOCK:   -0.31 KCAL/MOL
REMARK 927      BINDING AFFINITY PREDICTED BY RF-SCORE:    0.00 PKD
ROOT
HETATM    1  O   UNL     1      -7.029  10.149  67.801  1.00  0.00    -0.082 OA 
HETATM    2  H   UNL     1      -7.698   9.474  67.812  1.00  0.00     0.000 HD 
HETATM    3  C   UNL     1      -7.355  11.473  67.824  1.00  0.00    -0.096 A  
HETATM    4  C   UNL     1      -6.376  12.460  67.808  1.00  0.00    -0.109 A  
HETATM    5  C   UNL     1      -6.757  13.805  67.864  1.00  0.00    -0.162 A  
HETATM    6  C   UNL     1      -8.111  14.169  67.928  1.00  0.00    -0.154 A  
HETATM    7  C   UNL     1      -8.700  11.809  67.881  1.00  0.00    -0.164 A  
HETATM    8  C   UNL     1      -9.079  13.154  67.938  1.00  0.00    -0.207 A  
ENDROOT
BRANCH   6   9
HETATM    9  C   UNL     1      -8.455  15.592  68.084  1.00  0.00    -0.147 C  
HETATM   10  C   UNL     1      -9.160  16.312  67.196  1.00  0.00    -0.217 C  
BRANCH  10  11
HETATM   11  C   UNL     1      -9.546  17.721  67.387  1.00  0.00    -0.264 A  
HETATM   12  C   UNL     1      -9.751  18.290  68.654  1.00  0.00    -0.379 A  
HETATM   13  C   UNL     1     -10.106  19.635  68.765  1.00  0.00    -0.437 A  
HETATM   14  C   UNL     1     -10.249  20.439  67.642  1.00  0.00    -0.410 A  
HETATM   15  O   UNL     1     -10.323  20.213  69.983  1.00  0.00    -0.624 OA 
HETATM   16  H   UNL     1     -10.564  21.128  70.059  1.00  0.00     0.000 HD 
HETATM   17  C   UNL     1     -10.028  19.881  66.389  1.00  0.00    -0.479 A  
HETATM   18  O   UNL     1     -10.148  20.623  65.251  1.00  0.00    -0.326 OA 
HETATM   19  C   UNL     1      -9.675  18.539  66.255  1.00  0.00    -0.315 A  
HETATM   20  H   UNL     1      -9.996  20.241  64.395  1.00  0.00     0.000 HD 
ENDBRANCH  10  11
ENDBRANCH   6   9
TORSDOF 2
ENDMDL
MODEL      128
REMARK 921   NORMALIZED FREE ENERGY PREDICTED BY IDOCK:   -4.03 KCAL/MOL
REMARK 922        TOTAL FREE ENERGY PREDICTED BY IDOCK:   -4.82 KCAL/MOL
REMARK 923 INTER-LIGAND FREE ENERGY PREDICTED BY IDOCK:   -4.48 KCAL/MOL
REMARK 924 INTRA-LIGAND FREE ENERGY PREDICTED BY IDOCK:   -0.34 KCAL/MOL
REMARK 927      BINDING AFFINITY PREDICTED BY RF-SCORE:    0.00 PKD
ROOT
HETATM    1  O   UNL     1      -8.579   6.266  73.104  1.00  0.00    -0.121 OA 
HETATM    2  H   UNL     1      -8.904   6.380  73.989  1.00  0.00     0.000 HD 
HETATM    3  C   UNL     1      -8.937   7.116  72.099  1.00  0.00    -0.129 A  
HETATM    4  C   UNL     1      -8.461   6.948  70.804  1.00  0.00    -0.136 A  
HETATM    5  C   UNL     1      -8.831   7.863  69.813  1.00  0.00    -0.141 A  
HETATM    6  C   UNL     1      -9.681   8.940  70.108  1.00  0.00    -0.199 A  
HETATM    7  C   UNL     1      -9.784   8.170  72.412  1.00  0.00    -0.338 A  
HETATM    8  C   UNL     1     -10.151   9.085  71.420  1.00  0.00    -0.399 A  
ENDROOT
BRANCH   6   9
HETATM    9  C   UNL     1      -9.962   9.929  69.053  1.00  0.00    -0.193 C  
HETATM   10  C   UNL     1      -9.520   9.847  67.788  1.00  0.00    -0.158 C  
BRANCH  10  11
HETATM   11  C   UNL     1      -9.853  10.814  66.726  1.00  0.00    -0.233 A  
HETATM   12  C   UNL     1     -10.390  10.431  65.488  1.00  0.00    -0.265 A  
HETATM   13  C   UNL     1     -10.692  11.398  64.529  1.00  0.00    -0.327 A  
HETATM   14  C   UNL     1     -10.486  12.749  64.777  1.00  0.00    -0.357 A  
HETATM   15  O   UNL     1     -11.204  11.054  63.311  1.00  0.00    -0.715 OA 
HETATM   16  H   UNL     1     -11.410  11.712  62.658  1.00  0.00     0.000 HD 
HETATM   17  C   UNL     1      -9.973  13.130  66.011  1.00  0.00    -0.280 A  
HETATM   18  O   UNL     1      -9.756  14.442  66.313  1.00  0.00    -0.286 OA 
HETATM   19  C   UNL     1      -9.662  12.180  66.981  1.00  0.00    -0.208 A  
HETATM   20  H   UNL     1      -9.405  14.703  67.156  1.00  0.00     0.000 HD 
ENDBRANCH  10  11
ENDBRANCH   6   9
TORSDOF 2
ENDMDL
MODEL      129
REMARK 921   NORMALIZED FREE ENERGY PREDICTED BY IDOCK:   -4.02 KCAL/MOL
REMARK 922        TOTAL FREE ENERGY PREDICTED BY IDOCK:   -4.81 KCAL/MOL
REMARK 923 INTER-LIGAND FREE ENERGY PREDICTED BY IDOCK:   -4.49 KCAL/MOL
REMARK 924 INTRA-LIGAND FREE ENERGY PREDICTED BY IDOCK:   -0.32 KCAL/MOL
REMARK 927      BINDING AFFINITY PREDICTED BY RF-SCORE:    0.00 PKD
ROOT
HETATM    1  O   UNL     1     -10.627  18.629  68.846  1.00  0.00    -0.377 OA 
HETATM    2  H   UNL     1     -10.031  19.322  68.590  1.00  0.00     0.000 HD 
HETATM    3  C   UNL     1     -10.390  17.327  68.513  1.00  0.00    -0.371 A  
HETATM    4  C   UNL     1     -11.264  16.313  68.888  1.00  0.00    -0.337 A  
HETATM    5  C   UNL     1     -10.962  14.989  68.551  1.00  0.00    -0.259 A  
HETATM    6  C   UNL     1      -9.798  14.675  67.834  1.00  0.00    -0.217 A  
HETATM    7  C   UNL     1      -9.235  17.041  67.799  1.00  0.00    -0.236 A  
HETATM    8  C   UNL     1      -8.935  15.716  67.464  1.00  0.00    -0.199 A  
ENDROOT
BRANCH   6   9
HETATM    9  C   UNL     1      -9.478  13.258  67.589  1.00  0.00    -0.211 C  
HETATM   10  C   UNL     1     -10.340  12.351  67.103  1.00  0.00    -0.232 C  
BRANCH  10  11
HETATM   11  C   UNL     1      -9.994  10.948  66.810  1.00  0.00    -0.245 A  
HETATM   12  C   UNL     1      -8.949  10.586  65.947  1.00  0.00    -0.185 A  
HETATM   13  C   UNL     1      -8.667   9.239  65.719  1.00  0.00    -0.156 A  
HETATM   14  C   UNL     1      -9.394   8.235  66.344  1.00  0.00    -0.274 A  
HETATM   15  O   UNL     1      -7.664   8.856  64.875  1.00  0.00    -0.104 OA 
HETATM   16  H   UNL     1      -7.472   7.939  64.720  1.00  0.00     0.000 HD 
HETATM   17  C   UNL     1     -10.417   8.593  67.214  1.00  0.00    -0.289 A  
HETATM   18  O   UNL     1     -11.160   7.650  67.861  1.00  0.00    -0.475 OA 
HETATM   19  C   UNL     1     -10.716   9.933  67.453  1.00  0.00    -0.323 A  
HETATM   20  H   UNL     1     -11.859   7.895  68.455  1.00  0.00     0.000 HD 
ENDBRANCH  10  11
ENDBRANCH   6   9
TORSDOF 2
ENDMDL
MODEL      130
REMARK 921   NORMALIZED FREE ENERGY PREDICTED BY IDOCK:   -4.00 KCAL/MOL
REMARK 922        TOTAL FREE ENERGY PREDICTED BY IDOCK:   -4.79 KCAL/MOL
REMARK 923 INTER-LIGAND FREE ENERGY PREDICTED BY IDOCK:   -4.47 KCAL/MOL
REMARK 924 INTRA-LIGAND FREE ENERGY PREDICTED BY IDOCK:   -0.33 KCAL/MOL
REMARK 927      BINDING AFFINITY PREDICTED BY RF-SCORE:    0.00 PKD
ROOT
HETATM    1  O   UNL     1      -9.089   2.933  73.037  1.00  0.00    -0.085 OA 
HETATM    2  H   UNL     1      -9.414   2.919  73.929  1.00  0.00     0.000 HD 
HETATM    3  C   UNL     1      -9.485   3.891  72.150  1.00  0.00    -0.132 A  
HETATM    4  C   UNL     1      -9.009   3.912  70.845  1.00  0.00    -0.157 A  
HETATM    5  C   UNL     1      -9.419   4.932  69.981  1.00  0.00    -0.234 A  
HETATM    6  C   UNL     1     -10.309   5.928  70.412  1.00  0.00    -0.294 A  
HETATM    7  C   UNL     1     -10.371   4.862  72.597  1.00  0.00    -0.250 A  
HETATM    8  C   UNL     1     -10.779   5.882  71.732  1.00  0.00    -0.299 A  
ENDROOT
BRANCH   6   9
HETATM    9  C   UNL     1     -10.634   7.033  69.495  1.00  0.00    -0.253 C  
HETATM   10  C   UNL     1      -9.728   7.776  68.839  1.00  0.00    -0.160 C  
BRANCH  10  11
HETATM   11  C   UNL     1     -10.066   8.844  67.880  1.00  0.00    -0.255 A  
HETATM   12  C   UNL     1     -10.799   9.986  68.239  1.00  0.00    -0.286 A  
HETATM   13  C   UNL     1     -11.076  10.965  67.284  1.00  0.00    -0.283 A  
HETATM   14  C   UNL     1     -10.626  10.844  65.976  1.00  0.00    -0.254 A  
HETATM   15  O   UNL     1     -11.798  12.080  67.601  1.00  0.00    -0.512 OA 
HETATM   16  H   UNL     1     -11.986  12.747  66.951  1.00  0.00     0.000 HD 
HETATM   17  C   UNL     1      -9.883   9.724  65.626  1.00  0.00    -0.301 A  
HETATM   18  O   UNL     1      -9.410   9.555  64.358  1.00  0.00    -0.408 OA 
HETATM   19  C   UNL     1      -9.598   8.733  66.563  1.00  0.00    -0.302 A  
HETATM   20  H   UNL     1      -8.902   8.788  64.119  1.00  0.00     0.000 HD 
ENDBRANCH  10  11
ENDBRANCH   6   9
TORSDOF 2
ENDMDL
MODEL      131
REMARK 921   NORMALIZED FREE ENERGY PREDICTED BY IDOCK:   -4.00 KCAL/MOL
REMARK 922        TOTAL FREE ENERGY PREDICTED BY IDOCK:   -4.79 KCAL/MOL
REMARK 923 INTER-LIGAND FREE ENERGY PREDICTED BY IDOCK:   -4.47 KCAL/MOL
REMARK 924 INTRA-LIGAND FREE ENERGY PREDICTED BY IDOCK:   -0.32 KCAL/MOL
REMARK 927      BINDING AFFINITY PREDICTED BY RF-SCORE:    0.00 PKD
ROOT
HETATM    1  O   UNL     1     -10.651  18.964  68.064  1.00  0.00    -0.375 OA 
HETATM    2  H   UNL     1     -10.114  19.690  67.771  1.00  0.00     0.000 HD 
HETATM    3  C   UNL     1     -10.355  17.677  67.724  1.00  0.00    -0.365 A  
HETATM    4  C   UNL     1     -11.143  16.615  68.152  1.00  0.00    -0.285 A  
HETATM    5  C   UNL     1     -10.781  15.309  67.805  1.00  0.00    -0.286 A  
HETATM    6  C   UNL     1      -9.642  15.060  67.024  1.00  0.00    -0.233 A  
HETATM    7  C   UNL     1      -9.227  17.455  66.946  1.00  0.00    -0.266 A  
HETATM    8  C   UNL     1      -8.868  16.149  66.600  1.00  0.00    -0.298 A  
ENDROOT
BRANCH   6   9
HETATM    9  C   UNL     1      -9.252  13.663  66.767  1.00  0.00    -0.251 C  
HETATM   10  C   UNL     1     -10.087  12.698  66.350  1.00  0.00    -0.263 C  
BRANCH  10  11
HETATM   11  C   UNL     1      -9.675  11.317  66.043  1.00  0.00    -0.253 A  
HETATM   12  C   UNL     1      -9.373  10.373  67.037  1.00  0.00    -0.176 A  
HETATM   13  C   UNL     1      -8.998   9.078  66.678  1.00  0.00    -0.135 A  
HETATM   14  C   UNL     1      -8.930   8.690  65.347  1.00  0.00    -0.181 A  
HETATM   15  O   UNL     1      -8.686   8.142  67.623  1.00  0.00    -0.129 OA 
HETATM   16  H   UNL     1      -8.431   7.261  67.379  1.00  0.00     0.000 HD 
HETATM   17  C   UNL     1      -9.248   9.618  64.363  1.00  0.00    -0.200 A  
HETATM   18  O   UNL     1      -9.205   9.291  63.039  1.00  0.00    -0.473 OA 
HETATM   19  C   UNL     1      -9.622  10.917  64.700  1.00  0.00    -0.305 A  
HETATM   20  H   UNL     1      -9.423   9.926  62.367  1.00  0.00     0.000 HD 
ENDBRANCH  10  11
ENDBRANCH   6   9
TORSDOF 2
ENDMDL
MODEL      132
REMARK 921   NORMALIZED FREE ENERGY PREDICTED BY IDOCK:   -4.00 KCAL/MOL
REMARK 922        TOTAL FREE ENERGY PREDICTED BY IDOCK:   -4.78 KCAL/MOL
REMARK 923 INTER-LIGAND FREE ENERGY PREDICTED BY IDOCK:   -4.46 KCAL/MOL
REMARK 924 INTRA-LIGAND FREE ENERGY PREDICTED BY IDOCK:   -0.32 KCAL/MOL
REMARK 927      BINDING AFFINITY PREDICTED BY RF-SCORE:    0.00 PKD
ROOT
HETATM    1  O   UNL     1     -10.651  16.546  66.371  1.00  0.00    -0.295 OA 
HETATM    2  H   UNL     1      -9.943  16.835  65.807  1.00  0.00     0.000 HD 
HETATM    3  C   UNL     1     -10.719  15.262  66.827  1.00  0.00    -0.313 A  
HETATM    4  C   UNL     1     -11.755  14.841  67.652  1.00  0.00    -0.364 A  
HETATM    5  C   UNL     1     -11.766  13.523  68.120  1.00  0.00    -0.396 A  
HETATM    6  C   UNL     1     -10.752  12.622  67.762  1.00  0.00    -0.239 A  
HETATM    7  C   UNL     1      -9.708  14.387  66.454  1.00  0.00    -0.320 A  
HETATM    8  C   UNL     1      -9.721  13.070  66.925  1.00  0.00    -0.238 A  
ENDROOT
BRANCH   6   9
HETATM    9  C   UNL     1     -10.758  11.276  68.359  1.00  0.00    -0.238 C  
HETATM   10  C   UNL     1     -10.206  10.959  69.541  1.00  0.00    -0.097 C  
BRANCH  10  11
HETATM   11  C   UNL     1     -10.265   9.620  70.155  1.00  0.00    -0.313 A  
HETATM   12  C   UNL     1     -11.406   8.804  70.095  1.00  0.00    -0.099 A  
HETATM   13  C   UNL     1     -11.393   7.542  70.689  1.00  0.00    -0.281 A  
HETATM   14  C   UNL     1     -10.261   7.060  71.333  1.00  0.00    -0.208 A  
HETATM   15  O   UNL     1     -12.491   6.731  70.657  1.00  0.00    -0.521 OA 
HETATM   16  H   UNL     1     -12.482   5.872  71.061  1.00  0.00     0.000 HD 
HETATM   17  C   UNL     1      -9.126   7.859  71.376  1.00  0.00    -0.136 A  
HETATM   18  O   UNL     1      -7.983   7.436  71.989  1.00  0.00    -0.091 OA 
HETATM   19  C   UNL     1      -9.118   9.124  70.791  1.00  0.00    -0.313 A  
HETATM   20  H   UNL     1      -7.207   7.983  72.018  1.00  0.00     0.000 HD 
ENDBRANCH  10  11
ENDBRANCH   6   9
TORSDOF 2
ENDMDL
MODEL      133
REMARK 921   NORMALIZED FREE ENERGY PREDICTED BY IDOCK:   -3.99 KCAL/MOL
REMARK 922        TOTAL FREE ENERGY PREDICTED BY IDOCK:   -4.77 KCAL/MOL
REMARK 923 INTER-LIGAND FREE ENERGY PREDICTED BY IDOCK:   -4.46 KCAL/MOL
REMARK 924 INTRA-LIGAND FREE ENERGY PREDICTED BY IDOCK:   -0.32 KCAL/MOL
REMARK 927      BINDING AFFINITY PREDICTED BY RF-SCORE:    0.00 PKD
ROOT
HETATM    1  O   UNL     1      -6.777  19.430  67.572  1.00  0.00    -0.207 OA 
HETATM    2  H   UNL     1      -6.426  19.753  68.394  1.00  0.00     0.000 HD 
HETATM    3  C   UNL     1      -7.340  18.192  67.476  1.00  0.00    -0.208 A  
HETATM    4  C   UNL     1      -7.853  17.720  66.274  1.00  0.00    -0.299 A  
HETATM    5  C   UNL     1      -8.449  16.456  66.232  1.00  0.00    -0.372 A  
HETATM    6  C   UNL     1      -8.529  15.657  67.383  1.00  0.00    -0.191 A  
HETATM    7  C   UNL     1      -7.402  17.417  68.627  1.00  0.00    -0.244 A  
HETATM    8  C   UNL     1      -8.000  16.154  68.582  1.00  0.00    -0.201 A  
ENDROOT
BRANCH   6   9
HETATM    9  C   UNL     1      -9.252  14.376  67.307  1.00  0.00    -0.214 C  
HETATM   10  C   UNL     1      -8.698  13.170  67.512  1.00  0.00    -0.201 C  
BRANCH  10  11
HETATM   11  C   UNL     1      -9.443  11.898  67.488  1.00  0.00    -0.176 A  
HETATM   12  C   UNL     1      -9.182  10.880  66.559  1.00  0.00    -0.189 A  
HETATM   13  C   UNL     1      -9.918   9.695  66.597  1.00  0.00    -0.236 A  
HETATM   14  C   UNL     1     -10.904   9.489  67.553  1.00  0.00    -0.239 A  
HETATM   15  O   UNL     1      -9.695   8.692  65.698  1.00  0.00    -0.456 OA 
HETATM   16  H   UNL     1     -10.195   7.885  65.724  1.00  0.00     0.000 HD 
HETATM   17  C   UNL     1     -11.149  10.489  68.485  1.00  0.00    -0.275 A  
HETATM   18  O   UNL     1     -12.101  10.340  69.451  1.00  0.00    -0.512 OA 
HETATM   19  C   UNL     1     -10.428  11.681  68.463  1.00  0.00    -0.236 A  
HETATM   20  H   UNL     1     -12.268  11.024  70.088  1.00  0.00     0.000 HD 
ENDBRANCH  10  11
ENDBRANCH   6   9
TORSDOF 2
ENDMDL
MODEL      134
REMARK 921   NORMALIZED FREE ENERGY PREDICTED BY IDOCK:   -3.97 KCAL/MOL
REMARK 922        TOTAL FREE ENERGY PREDICTED BY IDOCK:   -4.75 KCAL/MOL
REMARK 923 INTER-LIGAND FREE ENERGY PREDICTED BY IDOCK:   -4.43 KCAL/MOL
REMARK 924 INTRA-LIGAND FREE ENERGY PREDICTED BY IDOCK:   -0.33 KCAL/MOL
REMARK 927      BINDING AFFINITY PREDICTED BY RF-SCORE:    0.00 PKD
ROOT
HETATM    1  O   UNL     1     -10.974  14.007  67.121  1.00  0.00    -0.289 OA 
HETATM    2  H   UNL     1     -11.801  14.475  67.106  1.00  0.00     0.000 HD 
HETATM    3  C   UNL     1     -10.806  12.884  67.876  1.00  0.00    -0.227 A  
HETATM    4  C   UNL     1      -9.597  12.199  67.897  1.00  0.00    -0.198 A  
HETATM    5  C   UNL     1      -9.481  11.034  68.662  1.00  0.00    -0.197 A  
HETATM    6  C   UNL     1     -10.565  10.554  69.413  1.00  0.00    -0.269 A  
HETATM    7  C   UNL     1     -11.890  12.431  68.616  1.00  0.00    -0.348 A  
HETATM    8  C   UNL     1     -11.773  11.265  69.379  1.00  0.00    -0.409 A  
ENDROOT
BRANCH   6   9
HETATM    9  C   UNL     1     -10.422   9.272  70.123  1.00  0.00    -0.265 C  
HETATM   10  C   UNL     1     -10.819   8.082  69.646  1.00  0.00    -0.172 C  
BRANCH  10  11
HETATM   11  C   UNL     1     -10.621   6.798  70.341  1.00  0.00    -0.262 A  
HETATM   12  C   UNL     1     -10.097   5.661  69.708  1.00  0.00    -0.286 A  
HETATM   13  C   UNL     1      -9.925   4.478  70.427  1.00  0.00    -0.213 A  
HETATM   14  C   UNL     1     -10.250   4.400  71.775  1.00  0.00    -0.201 A  
HETATM   15  O   UNL     1      -9.428   3.352  69.834  1.00  0.00    -0.169 OA 
HETATM   16  H   UNL     1      -9.312   2.547  70.324  1.00  0.00     0.000 HD 
HETATM   17  C   UNL     1     -10.751   5.531  72.407  1.00  0.00    -0.235 A  
HETATM   18  O   UNL     1     -11.082   5.515  73.731  1.00  0.00    -0.420 OA 
HETATM   19  C   UNL     1     -10.933   6.722  71.706  1.00  0.00    -0.266 A  
HETATM   20  H   UNL     1     -11.424   6.289  74.163  1.00  0.00     0.000 HD 
ENDBRANCH  10  11
ENDBRANCH   6   9
TORSDOF 2
ENDMDL
MODEL      135
REMARK 921   NORMALIZED FREE ENERGY PREDICTED BY IDOCK:   -3.96 KCAL/MOL
REMARK 922        TOTAL FREE ENERGY PREDICTED BY IDOCK:   -4.74 KCAL/MOL
REMARK 923 INTER-LIGAND FREE ENERGY PREDICTED BY IDOCK:   -4.41 KCAL/MOL
REMARK 924 INTRA-LIGAND FREE ENERGY PREDICTED BY IDOCK:   -0.33 KCAL/MOL
REMARK 927      BINDING AFFINITY PREDICTED BY RF-SCORE:    0.00 PKD
ROOT
HETATM    1  O   UNL     1      -8.450   4.016  65.799  1.00  0.00    -0.108 OA 
HETATM    2  H   UNL     1      -8.860   3.166  65.906  1.00  0.00     0.000 HD 
HETATM    3  C   UNL     1      -9.037   5.154  66.271  1.00  0.00    -0.136 A  
HETATM    4  C   UNL     1      -8.437   6.398  66.115  1.00  0.00    -0.140 A  
HETATM    5  C   UNL     1      -9.062   7.532  66.643  1.00  0.00    -0.189 A  
HETATM    6  C   UNL     1     -10.287   7.431  67.319  1.00  0.00    -0.356 A  
HETATM    7  C   UNL     1     -10.252   5.030  66.931  1.00  0.00    -0.270 A  
HETATM    8  C   UNL     1     -10.874   6.166  67.460  1.00  0.00    -0.422 A  
ENDROOT
BRANCH   6   9
HETATM    9  C   UNL     1     -10.854   8.640  67.940  1.00  0.00    -0.061 C  
HETATM   10  C   UNL     1     -10.328   9.871  67.842  1.00  0.00    -0.256 C  
BRANCH  10  11
HETATM   11  C   UNL     1     -10.934  11.084  68.422  1.00  0.00    -0.281 A  
HETATM   12  C   UNL     1     -11.503  11.113  69.704  1.00  0.00    -0.383 A  
HETATM   13  C   UNL     1     -12.052  12.296  70.197  1.00  0.00    -0.287 A  
HETATM   14  C   UNL     1     -12.036  13.466  69.448  1.00  0.00    -0.321 A  
HETATM   15  O   UNL     1     -12.623  12.352  71.436  1.00  0.00    -0.306 OA 
HETATM   16  H   UNL     1     -12.997  13.158  71.772  1.00  0.00     0.000 HD 
HETATM   17  C   UNL     1     -11.455  13.442  68.186  1.00  0.00    -0.304 A  
HETATM   18  O   UNL     1     -11.405  14.561  67.408  1.00  0.00    -0.325 OA 
HETATM   19  C   UNL     1     -10.904  12.269  67.674  1.00  0.00    -0.262 A  
HETATM   20  H   UNL     1     -11.008  14.545  66.545  1.00  0.00     0.000 HD 
ENDBRANCH  10  11
ENDBRANCH   6   9
TORSDOF 2
ENDMDL
MODEL      136
REMARK 921   NORMALIZED FREE ENERGY PREDICTED BY IDOCK:   -3.95 KCAL/MOL
REMARK 922        TOTAL FREE ENERGY PREDICTED BY IDOCK:   -4.73 KCAL/MOL
REMARK 923 INTER-LIGAND FREE ENERGY PREDICTED BY IDOCK:   -4.41 KCAL/MOL
REMARK 924 INTRA-LIGAND FREE ENERGY PREDICTED BY IDOCK:   -0.32 KCAL/MOL
REMARK 927      BINDING AFFINITY PREDICTED BY RF-SCORE:    0.00 PKD
ROOT
HETATM    1  O   UNL     1      -8.253  17.342  65.745  1.00  0.00    -0.540 OA 
HETATM    2  H   UNL     1      -8.528  17.603  64.875  1.00  0.00     0.000 HD 
HETATM    3  C   UNL     1      -8.761  16.230  66.350  1.00  0.00    -0.319 A  
HETATM    4  C   UNL     1      -8.358  15.850  67.624  1.00  0.00    -0.165 A  
HETATM    5  C   UNL     1      -8.884  14.685  68.191  1.00  0.00    -0.173 A  
HETATM    6  C   UNL     1      -9.817  13.902  67.495  1.00  0.00    -0.236 A  
HETATM    7  C   UNL     1      -9.688  15.475  65.645  1.00  0.00    -0.355 A  
HETATM    8  C   UNL     1     -10.212  14.310  66.213  1.00  0.00    -0.307 A  
ENDROOT
BRANCH   6   9
HETATM    9  C   UNL     1     -10.267  12.635  68.095  1.00  0.00    -0.240 C  
HETATM   10  C   UNL     1      -9.620  11.463  67.987  1.00  0.00    -0.184 C  
BRANCH  10  11
HETATM   11  C   UNL     1     -10.050  10.212  68.638  1.00  0.00    -0.186 A  
HETATM   12  C   UNL     1     -10.183  10.084  70.029  1.00  0.00    -0.306 A  
HETATM   13  C   UNL     1     -10.604   8.874  70.581  1.00  0.00    -0.229 A  
HETATM   14  C   UNL     1     -10.913   7.784  69.778  1.00  0.00    -0.162 A  
HETATM   15  O   UNL     1     -10.731   8.716  71.931  1.00  0.00    -0.292 OA 
HETATM   16  H   UNL     1     -11.017   7.892  72.307  1.00  0.00     0.000 HD 
HETATM   17  C   UNL     1     -10.800   7.916  68.400  1.00  0.00     0.082 A  
HETATM   18  O   UNL     1     -11.096   6.882  67.561  1.00  0.00    -0.499 OA 
HETATM   19  C   UNL     1     -10.378   9.115  67.828  1.00  0.00    -0.302 A  
HETATM   20  H   UNL     1     -11.019   6.973  66.619  1.00  0.00     0.000 HD 
ENDBRANCH  10  11
ENDBRANCH   6   9
TORSDOF 2
ENDMDL
MODEL      137
REMARK 921   NORMALIZED FREE ENERGY PREDICTED BY IDOCK:   -3.94 KCAL/MOL
REMARK 922        TOTAL FREE ENERGY PREDICTED BY IDOCK:   -4.72 KCAL/MOL
REMARK 923 INTER-LIGAND FREE ENERGY PREDICTED BY IDOCK:   -4.40 KCAL/MOL
REMARK 924 INTRA-LIGAND FREE ENERGY PREDICTED BY IDOCK:   -0.32 KCAL/MOL
REMARK 927      BINDING AFFINITY PREDICTED BY RF-SCORE:    0.00 PKD
ROOT
HETATM    1  O   UNL     1     -11.417   5.385  73.110  1.00  0.00    -0.445 OA 
HETATM    2  H   UNL     1     -11.100   5.363  74.005  1.00  0.00     0.000 HD 
HETATM    3  C   UNL     1     -11.327   6.516  72.351  1.00  0.00    -0.279 A  
HETATM    4  C   UNL     1     -11.792   6.548  71.042  1.00  0.00    -0.390 A  
HETATM    5  C   UNL     1     -11.650   7.721  70.293  1.00  0.00    -0.049 A  
HETATM    6  C   UNL     1     -11.054   8.864  70.848  1.00  0.00    -0.328 A  
HETATM    7  C   UNL     1     -10.740   7.636  72.924  1.00  0.00    -0.428 A  
HETATM    8  C   UNL     1     -10.598   8.807  72.173  1.00  0.00    -0.386 A  
ENDROOT
BRANCH   6   9
HETATM    9  C   UNL     1     -10.841  10.040  69.988  1.00  0.00    -0.352 C  
HETATM   10  C   UNL     1      -9.918  10.123  69.017  1.00  0.00    -0.216 C  
BRANCH  10  11
HETATM   11  C   UNL     1      -9.750  11.284  68.125  1.00  0.00    -0.188 A  
HETATM   12  C   UNL     1     -10.259  11.321  66.818  1.00  0.00    -0.263 A  
HETATM   13  C   UNL     1     -10.073  12.456  66.029  1.00  0.00    -0.251 A  
HETATM   14  C   UNL     1      -9.402  13.571  66.515  1.00  0.00    -0.227 A  
HETATM   15  O   UNL     1     -10.546  12.517  64.749  1.00  0.00    -0.282 OA 
HETATM   16  H   UNL     1     -10.420  13.289  64.212  1.00  0.00     0.000 HD 
HETATM   17  C   UNL     1      -8.916  13.543  67.816  1.00  0.00    -0.201 A  
HETATM   18  O   UNL     1      -8.255  14.610  68.350  1.00  0.00    -0.139 OA 
HETATM   19  C   UNL     1      -9.088  12.417  68.620  1.00  0.00     0.022 A  
HETATM   20  H   UNL     1      -7.923  14.590  69.239  1.00  0.00     0.000 HD 
ENDBRANCH  10  11
ENDBRANCH   6   9
TORSDOF 2
ENDMDL
MODEL      138
REMARK 921   NORMALIZED FREE ENERGY PREDICTED BY IDOCK:   -3.92 KCAL/MOL
REMARK 922        TOTAL FREE ENERGY PREDICTED BY IDOCK:   -4.70 KCAL/MOL
REMARK 923 INTER-LIGAND FREE ENERGY PREDICTED BY IDOCK:   -4.38 KCAL/MOL
REMARK 924 INTRA-LIGAND FREE ENERGY PREDICTED BY IDOCK:   -0.32 KCAL/MOL
REMARK 927      BINDING AFFINITY PREDICTED BY RF-SCORE:    0.00 PKD
ROOT
HETATM    1  O   UNL     1      -6.103   6.580  70.915  1.00  0.00    -0.030 OA 
HETATM    2  H   UNL     1      -6.392   5.918  71.532  1.00  0.00     0.000 HD 
HETATM    3  C   UNL     1      -6.971   7.492  70.391  1.00  0.00    -0.052 A  
HETATM    4  C   UNL     1      -6.547   8.460  69.488  1.00  0.00    -0.041 A  
HETATM    5  C   UNL     1      -7.467   9.394  69.002  1.00  0.00    -0.073 A  
HETATM    6  C   UNL     1      -8.811   9.361  69.406  1.00  0.00    -0.159 A  
HETATM    7  C   UNL     1      -8.296   7.436  70.800  1.00  0.00    -0.119 A  
HETATM    8  C   UNL     1      -9.214   8.371  70.313  1.00  0.00    -0.154 A  
ENDROOT
BRANCH   6   9
HETATM    9  C   UNL     1      -9.717  10.424  68.940  1.00  0.00    -0.203 C  
HETATM   10  C   UNL     1      -9.812  10.849  67.669  1.00  0.00    -0.192 C  
BRANCH  10  11
HETATM   11  C   UNL     1     -10.761  11.876  67.204  1.00  0.00    -0.280 A  
HETATM   12  C   UNL     1     -11.086  13.012  67.961  1.00  0.00    -0.288 A  
HETATM   13  C   UNL     1     -11.986  13.951  67.458  1.00  0.00    -0.386 A  
HETATM   14  C   UNL     1     -12.564  13.797  66.205  1.00  0.00    -0.423 A  
HETATM   15  O   UNL     1     -12.331  15.060  68.177  1.00  0.00    -0.544 OA 
HETATM   16  H   UNL     1     -12.943  15.700  67.834  1.00  0.00     0.000 HD 
HETATM   17  C   UNL     1     -12.227  12.683  65.447  1.00  0.00    -0.459 A  
HETATM   18  O   UNL     1     -12.759  12.482  64.206  1.00  0.00    -0.658 OA 
HETATM   19  C   UNL     1     -11.333  11.730  65.932  1.00  0.00    -0.324 A  
HETATM   20  H   UNL     1     -12.529  11.720  63.689  1.00  0.00     0.000 HD 
ENDBRANCH  10  11
ENDBRANCH   6   9
TORSDOF 2
ENDMDL
MODEL      139
REMARK 921   NORMALIZED FREE ENERGY PREDICTED BY IDOCK:   -3.88 KCAL/MOL
REMARK 922        TOTAL FREE ENERGY PREDICTED BY IDOCK:   -4.66 KCAL/MOL
REMARK 923 INTER-LIGAND FREE ENERGY PREDICTED BY IDOCK:   -4.35 KCAL/MOL
REMARK 924 INTRA-LIGAND FREE ENERGY PREDICTED BY IDOCK:   -0.31 KCAL/MOL
REMARK 927      BINDING AFFINITY PREDICTED BY RF-SCORE:    0.00 PKD
ROOT
HETATM    1  O   UNL     1     -10.624   5.461  73.724  1.00  0.00    -0.249 OA 
HETATM    2  H   UNL     1     -10.960   4.585  73.578  1.00  0.00     0.000 HD 
HETATM    3  C   UNL     1     -10.496   6.354  72.700  1.00  0.00    -0.210 A  
HETATM    4  C   UNL     1     -10.004   7.636  72.914  1.00  0.00    -0.319 A  
HETATM    5  C   UNL     1      -9.921   8.527  71.839  1.00  0.00    -0.365 A  
HETATM    6  C   UNL     1     -10.318   8.141  70.550  1.00  0.00    -0.211 A  
HETATM    7  C   UNL     1     -10.889   5.948  71.432  1.00  0.00    -0.332 A  
HETATM    8  C   UNL     1     -10.807   6.841  70.360  1.00  0.00    -0.306 A  
ENDROOT
BRANCH   6   9
HETATM    9  C   UNL     1     -10.302   9.146  69.474  1.00  0.00    -0.220 C  
HETATM   10  C   UNL     1      -9.681   8.994  68.293  1.00  0.00    -0.169 C  
BRANCH  10  11
HETATM   11  C   UNL     1      -9.716   9.983  67.201  1.00  0.00    -0.217 A  
HETATM   12  C   UNL     1     -10.617  11.059  67.176  1.00  0.00    -0.294 A  
HETATM   13  C   UNL     1     -10.593  11.966  66.117  1.00  0.00    -0.258 A  
HETATM   14  C   UNL     1      -9.677  11.839  65.080  1.00  0.00    -0.228 A  
HETATM   15  O   UNL     1     -11.465  13.015  66.060  1.00  0.00    -0.310 OA 
HETATM   16  H   UNL     1     -11.448  13.633  65.339  1.00  0.00     0.000 HD 
HETATM   17  C   UNL     1      -8.772  10.786  65.114  1.00  0.00    -0.164 A  
HETATM   18  O   UNL     1      -7.846  10.614  64.127  1.00  0.00    -0.345 OA 
HETATM   19  C   UNL     1      -8.782   9.867  66.162  1.00  0.00    -0.150 A  
HETATM   20  H   UNL     1      -7.227   9.894  64.151  1.00  0.00     0.000 HD 
ENDBRANCH  10  11
ENDBRANCH   6   9
TORSDOF 2
ENDMDL
MODEL      140
REMARK 921   NORMALIZED FREE ENERGY PREDICTED BY IDOCK:   -3.85 KCAL/MOL
REMARK 922        TOTAL FREE ENERGY PREDICTED BY IDOCK:   -4.62 KCAL/MOL
REMARK 923 INTER-LIGAND FREE ENERGY PREDICTED BY IDOCK:   -4.30 KCAL/MOL
REMARK 924 INTRA-LIGAND FREE ENERGY PREDICTED BY IDOCK:   -0.32 KCAL/MOL
REMARK 927      BINDING AFFINITY PREDICTED BY RF-SCORE:    0.00 PKD
ROOT
HETATM    1  O   UNL     1      -9.727   6.992  72.746  1.00  0.00    -0.148 OA 
HETATM    2  H   UNL     1      -9.233   6.187  72.843  1.00  0.00     0.000 HD 
HETATM    3  C   UNL     1      -9.711   7.700  71.579  1.00  0.00    -0.165 A  
HETATM    4  C   UNL     1     -10.434   8.878  71.437  1.00  0.00    -0.375 A  
HETATM    5  C   UNL     1     -10.413   9.552  70.212  1.00  0.00    -0.319 A  
HETATM    6  C   UNL     1      -9.666   9.060  69.131  1.00  0.00    -0.167 A  
HETATM    7  C   UNL     1      -8.960   7.197  70.526  1.00  0.00    -0.155 A  
HETATM    8  C   UNL     1      -8.941   7.872  69.302  1.00  0.00    -0.145 A  
ENDROOT
BRANCH   6   9
HETATM    9  C   UNL     1      -9.754   9.754  67.835  1.00  0.00    -0.168 C  
HETATM   10  C   UNL     1      -9.175   9.333  66.699  1.00  0.00    -0.190 C  
BRANCH  10  11
HETATM   11  C   UNL     1      -9.315  10.007  65.395  1.00  0.00    -0.284 A  
HETATM   12  C   UNL     1     -10.529  10.542  64.941  1.00  0.00    -0.214 A  
HETATM   13  C   UNL     1     -10.592  11.176  63.700  1.00  0.00    -0.347 A  
HETATM   14  C   UNL     1      -9.464  11.305  62.899  1.00  0.00    -0.385 A  
HETATM   15  O   UNL     1     -11.762  11.696  63.226  1.00  0.00    -0.770 OA 
HETATM   16  H   UNL     1     -11.805  12.127  62.381  1.00  0.00     0.000 HD 
HETATM   17  C   UNL     1      -8.257  10.792  63.357  1.00  0.00     0.042 A  
HETATM   18  O   UNL     1      -7.116  10.895  62.616  1.00  0.00    -0.346 OA 
HETATM   19  C   UNL     1      -8.174  10.153  64.592  1.00  0.00    -0.165 A  
HETATM   20  H   UNL     1      -6.292  10.545  62.930  1.00  0.00     0.000 HD 
ENDBRANCH  10  11
ENDBRANCH   6   9
TORSDOF 2
ENDMDL
MODEL      141
REMARK 921   NORMALIZED FREE ENERGY PREDICTED BY IDOCK:   -3.81 KCAL/MOL
REMARK 922        TOTAL FREE ENERGY PREDICTED BY IDOCK:   -4.57 KCAL/MOL
REMARK 923 INTER-LIGAND FREE ENERGY PREDICTED BY IDOCK:   -4.23 KCAL/MOL
REMARK 924 INTRA-LIGAND FREE ENERGY PREDICTED BY IDOCK:   -0.34 KCAL/MOL
REMARK 927      BINDING AFFINITY PREDICTED BY RF-SCORE:    0.00 PKD
ROOT
HETATM    1  O   UNL     1      -8.347   4.006  72.526  1.00  0.00    -0.096 OA 
HETATM    2  H   UNL     1      -7.568   3.503  72.320  1.00  0.00     0.000 HD 
HETATM    3  C   UNL     1      -8.660   5.144  71.843  1.00  0.00    -0.130 A  
HETATM    4  C   UNL     1      -9.801   5.879  72.144  1.00  0.00    -0.185 A  
HETATM    5  C   UNL     1     -10.097   7.023  71.396  1.00  0.00    -0.197 A  
HETATM    6  C   UNL     1      -9.255   7.441  70.354  1.00  0.00    -0.158 A  
HETATM    7  C   UNL     1      -7.809   5.542  70.821  1.00  0.00    -0.092 A  
HETATM    8  C   UNL     1      -8.108   6.686  70.073  1.00  0.00    -0.121 A  
ENDROOT
BRANCH   6   9
HETATM    9  C   UNL     1      -9.662   8.596  69.535  1.00  0.00    -0.179 C  
HETATM   10  C   UNL     1     -10.736   9.365  69.774  1.00  0.00    -0.250 C  
BRANCH  10  11
HETATM   11  C   UNL     1     -11.103  10.551  68.980  1.00  0.00    -0.300 A  
HETATM   12  C   UNL     1     -11.569  11.741  69.559  1.00  0.00    -0.398 A  
HETATM   13  C   UNL     1     -11.891  12.832  68.751  1.00  0.00    -0.307 A  
HETATM   14  C   UNL     1     -11.745  12.774  67.371  1.00  0.00    -0.425 A  
HETATM   15  O   UNL     1     -12.358  13.998  69.285  1.00  0.00    -0.445 OA 
HETATM   16  H   UNL     1     -12.576  14.741  68.735  1.00  0.00     0.000 HD 
HETATM   17  C   UNL     1     -11.265  11.602  66.798  1.00  0.00    -0.308 A  
HETATM   18  O   UNL     1     -11.096  11.489  65.450  1.00  0.00    -0.267 OA 
HETATM   19  C   UNL     1     -10.941  10.500  67.588  1.00  0.00    -0.375 A  
HETATM   20  H   UNL     1     -10.768  10.688  65.059  1.00  0.00     0.000 HD 
ENDBRANCH  10  11
ENDBRANCH   6   9
TORSDOF 2
ENDMDL
MODEL      142
REMARK 921   NORMALIZED FREE ENERGY PREDICTED BY IDOCK:   -3.80 KCAL/MOL
REMARK 922        TOTAL FREE ENERGY PREDICTED BY IDOCK:   -4.57 KCAL/MOL
REMARK 923 INTER-LIGAND FREE ENERGY PREDICTED BY IDOCK:   -4.25 KCAL/MOL
REMARK 924 INTRA-LIGAND FREE ENERGY PREDICTED BY IDOCK:   -0.32 KCAL/MOL
REMARK 927      BINDING AFFINITY PREDICTED BY RF-SCORE:    0.00 PKD
ROOT
HETATM    1  O   UNL     1      -8.645   2.371  73.441  1.00  0.00    -0.066 OA 
HETATM    2  H   UNL     1      -7.740   2.137  73.273  1.00  0.00     0.000 HD 
HETATM    3  C   UNL     1      -9.137   3.599  73.107  1.00  0.00    -0.098 A  
HETATM    4  C   UNL     1     -10.462   3.940  73.353  1.00  0.00    -0.254 A  
HETATM    5  C   UNL     1     -10.928   5.200  72.965  1.00  0.00    -0.355 A  
HETATM    6  C   UNL     1     -10.077   6.124  72.340  1.00  0.00    -0.199 A  
HETATM    7  C   UNL     1      -8.274   4.498  72.497  1.00  0.00    -0.109 A  
HETATM    8  C   UNL     1      -8.744   5.757  72.108  1.00  0.00    -0.133 A  
ENDROOT
BRANCH   6   9
HETATM    9  C   UNL     1     -10.641   7.398  71.865  1.00  0.00    -0.233 C  
HETATM   10  C   UNL     1     -10.331   7.985  70.698  1.00  0.00    -0.211 C  
BRANCH  10  11
HETATM   11  C   UNL     1     -10.943   9.233  70.206  1.00  0.00    -0.286 A  
HETATM   12  C   UNL     1     -11.671  10.102  71.033  1.00  0.00    -0.470 A  
HETATM   13  C   UNL     1     -12.217  11.273  70.507  1.00  0.00    -0.383 A  
HETATM   14  C   UNL     1     -12.044  11.612  69.171  1.00  0.00    -0.315 A  
HETATM   15  O   UNL     1     -12.939  12.132  71.285  1.00  0.00    -0.326 OA 
HETATM   16  H   UNL     1     -13.311  12.929  70.926  1.00  0.00     0.000 HD 
HETATM   17  C   UNL     1     -11.307  10.762  68.357  1.00  0.00    -0.302 A  
HETATM   18  O   UNL     1     -11.098  11.047  67.039  1.00  0.00    -0.288 OA 
HETATM   19  C   UNL     1     -10.755   9.586  68.862  1.00  0.00    -0.220 A  
HETATM   20  H   UNL     1     -10.595  10.465  66.482  1.00  0.00     0.000 HD 
ENDBRANCH  10  11
ENDBRANCH   6   9
TORSDOF 2
ENDMDL
MODEL      143
REMARK 921   NORMALIZED FREE ENERGY PREDICTED BY IDOCK:   -3.76 KCAL/MOL
REMARK 922        TOTAL FREE ENERGY PREDICTED BY IDOCK:   -4.52 KCAL/MOL
REMARK 923 INTER-LIGAND FREE ENERGY PREDICTED BY IDOCK:   -4.19 KCAL/MOL
REMARK 924 INTRA-LIGAND FREE ENERGY PREDICTED BY IDOCK:   -0.32 KCAL/MOL
REMARK 927      BINDING AFFINITY PREDICTED BY RF-SCORE:    0.00 PKD
ROOT
HETATM    1  O   UNL     1     -12.991  12.540  63.408  1.00  0.00    -0.685 OA 
HETATM    2  H   UNL     1     -13.756  13.029  63.686  1.00  0.00     0.000 HD 
HETATM    3  C   UNL     1     -12.047  12.127  64.302  1.00  0.00    -0.375 A  
HETATM    4  C   UNL     1     -10.927  11.411  63.896  1.00  0.00    -0.442 A  
HETATM    5  C   UNL     1     -10.003  10.981  64.853  1.00  0.00    -0.343 A  
HETATM    6  C   UNL     1     -10.187  11.270  66.214  1.00  0.00    -0.280 A  
HETATM    7  C   UNL     1     -12.247  12.430  65.642  1.00  0.00    -0.322 A  
HETATM    8  C   UNL     1     -11.321  11.998  66.598  1.00  0.00    -0.399 A  
ENDROOT
BRANCH   6   9
HETATM    9  C   UNL     1      -9.236  10.713  67.190  1.00  0.00    -0.161 C  
HETATM   10  C   UNL     1      -9.530   9.758  68.087  1.00  0.00    -0.146 C  
BRANCH  10  11
HETATM   11  C   UNL     1      -8.556   9.168  69.024  1.00  0.00    -0.133 A  
HETATM   12  C   UNL     1      -8.301   7.790  69.090  1.00  0.00    -0.134 A  
HETATM   13  C   UNL     1      -7.359   7.297  69.993  1.00  0.00    -0.083 A  
HETATM   14  C   UNL     1      -6.647   8.147  70.828  1.00  0.00    -0.037 A  
HETATM   15  O   UNL     1      -7.099   5.959  70.088  1.00  0.00    -0.066 OA 
HETATM   16  H   UNL     1      -6.457   5.624  70.703  1.00  0.00     0.000 HD 
HETATM   17  C   UNL     1      -6.885   9.514  70.749  1.00  0.00    -0.103 A  
HETATM   18  O   UNL     1      -6.211  10.398  71.540  1.00  0.00    -0.298 OA 
HETATM   19  C   UNL     1      -7.824  10.027  69.856  1.00  0.00    -0.185 A  
HETATM   20  H   UNL     1      -6.374  11.332  71.486  1.00  0.00     0.000 HD 
ENDBRANCH  10  11
ENDBRANCH   6   9
TORSDOF 2
ENDMDL
MODEL      144
REMARK 921   NORMALIZED FREE ENERGY PREDICTED BY IDOCK:   -3.75 KCAL/MOL
REMARK 922        TOTAL FREE ENERGY PREDICTED BY IDOCK:   -4.51 KCAL/MOL
REMARK 923 INTER-LIGAND FREE ENERGY PREDICTED BY IDOCK:   -4.19 KCAL/MOL
REMARK 924 INTRA-LIGAND FREE ENERGY PREDICTED BY IDOCK:   -0.33 KCAL/MOL
REMARK 927      BINDING AFFINITY PREDICTED BY RF-SCORE:    0.00 PKD
ROOT
HETATM    1  O   UNL     1      -6.639  19.732  67.881  1.00  0.00    -0.228 OA 
HETATM    2  H   UNL     1      -6.444  20.130  68.721  1.00  0.00     0.000 HD 
HETATM    3  C   UNL     1      -6.953  18.409  67.775  1.00  0.00    -0.213 A  
HETATM    4  C   UNL     1      -7.239  17.827  66.546  1.00  0.00    -0.278 A  
HETATM    5  C   UNL     1      -7.586  16.474  66.492  1.00  0.00    -0.304 A  
HETATM    6  C   UNL     1      -7.640  15.696  67.658  1.00  0.00    -0.179 A  
HETATM    7  C   UNL     1      -6.994  17.658  68.942  1.00  0.00    -0.251 A  
HETATM    8  C   UNL     1      -7.343  16.305  68.885  1.00  0.00    -0.198 A  
ENDROOT
BRANCH   6   9
HETATM    9  C   UNL     1      -8.104  14.302  67.559  1.00  0.00    -0.200 C  
HETATM   10  C   UNL     1      -9.185  13.901  66.869  1.00  0.00    -0.269 C  
BRANCH  10  11
HETATM   11  C   UNL     1      -9.609  12.496  66.731  1.00  0.00    -0.231 A  
HETATM   12  C   UNL     1      -9.941  11.688  67.829  1.00  0.00    -0.191 A  
HETATM   13  C   UNL     1     -10.345  10.368  67.628  1.00  0.00    -0.219 A  
HETATM   14  C   UNL     1     -10.441   9.830  66.351  1.00  0.00    -0.190 A  
HETATM   15  O   UNL     1     -10.662   9.555  68.678  1.00  0.00    -0.249 OA 
HETATM   16  H   UNL     1     -10.937   8.657  68.542  1.00  0.00     0.000 HD 
HETATM   17  C   UNL     1     -10.132  10.635  65.262  1.00  0.00    -0.297 A  
HETATM   18  O   UNL     1     -10.214  10.163  63.985  1.00  0.00    -0.461 OA 
HETATM   19  C   UNL     1      -9.723  11.956  65.442  1.00  0.00    -0.228 A  
HETATM   20  H   UNL     1     -10.002  10.714  63.241  1.00  0.00     0.000 HD 
ENDBRANCH  10  11
ENDBRANCH   6   9
TORSDOF 2
ENDMDL
MODEL      145
REMARK 921   NORMALIZED FREE ENERGY PREDICTED BY IDOCK:   -3.73 KCAL/MOL
REMARK 922        TOTAL FREE ENERGY PREDICTED BY IDOCK:   -4.48 KCAL/MOL
REMARK 923 INTER-LIGAND FREE ENERGY PREDICTED BY IDOCK:   -4.16 KCAL/MOL
REMARK 924 INTRA-LIGAND FREE ENERGY PREDICTED BY IDOCK:   -0.32 KCAL/MOL
REMARK 927      BINDING AFFINITY PREDICTED BY RF-SCORE:    0.00 PKD
ROOT
HETATM    1  O   UNL     1     -10.811  17.428  67.791  1.00  0.00    -0.361 OA 
HETATM    2  H   UNL     1     -11.713  17.710  67.699  1.00  0.00     0.000 HD 
HETATM    3  C   UNL     1     -10.474  16.106  67.791  1.00  0.00    -0.295 A  
HETATM    4  C   UNL     1      -9.154  15.694  67.926  1.00  0.00    -0.185 A  
HETATM    5  C   UNL     1      -8.854  14.329  67.889  1.00  0.00    -0.179 A  
HETATM    6  C   UNL     1      -9.868  13.372  67.725  1.00  0.00    -0.234 A  
HETATM    7  C   UNL     1     -11.495  15.178  67.635  1.00  0.00    -0.319 A  
HETATM    8  C   UNL     1     -11.192  13.813  67.596  1.00  0.00    -0.316 A  
ENDROOT
BRANCH   6   9
HETATM    9  C   UNL     1      -9.489  11.955  67.595  1.00  0.00    -0.182 C  
HETATM   10  C   UNL     1     -10.255  10.919  67.976  1.00  0.00    -0.202 C  
BRANCH  10  11
HETATM   11  C   UNL     1      -9.890   9.503  67.791  1.00  0.00    -0.196 A  
HETATM   12  C   UNL     1     -10.754   8.563  67.209  1.00  0.00    -0.219 A  
HETATM   13  C   UNL     1     -10.343   7.239  67.054  1.00  0.00    -0.306 A  
HETATM   14  C   UNL     1      -9.078   6.826  67.452  1.00  0.00    -0.117 A  
HETATM   15  O   UNL     1     -11.167   6.300  66.504  1.00  0.00    -0.726 OA 
HETATM   16  H   UNL     1     -10.887   5.399  66.398  1.00  0.00     0.000 HD 
HETATM   17  C   UNL     1      -8.215   7.760  68.009  1.00  0.00    -0.123 A  
HETATM   18  O   UNL     1      -6.959   7.414  68.412  1.00  0.00    -0.073 OA 
HETATM   19  C   UNL     1      -8.607   9.087  68.176  1.00  0.00    -0.130 A  
HETATM   20  H   UNL     1      -6.369   8.053  68.793  1.00  0.00     0.000 HD 
ENDBRANCH  10  11
ENDBRANCH   6   9
TORSDOF 2
ENDMDL
MODEL      146
REMARK 921   NORMALIZED FREE ENERGY PREDICTED BY IDOCK:   -3.68 KCAL/MOL
REMARK 922        TOTAL FREE ENERGY PREDICTED BY IDOCK:   -4.44 KCAL/MOL
REMARK 923 INTER-LIGAND FREE ENERGY PREDICTED BY IDOCK:   -4.11 KCAL/MOL
REMARK 924 INTRA-LIGAND FREE ENERGY PREDICTED BY IDOCK:   -0.32 KCAL/MOL
REMARK 927      BINDING AFFINITY PREDICTED BY RF-SCORE:    0.00 PKD
ROOT
HETATM    1  O   UNL     1      -5.531  10.448  69.298  1.00  0.00    -0.038 OA 
HETATM    2  H   UNL     1      -6.091   9.725  69.554  1.00  0.00     0.000 HD 
HETATM    3  C   UNL     1      -6.049  11.621  68.834  1.00  0.00    -0.053 A  
HETATM    4  C   UNL     1      -5.229  12.678  68.460  1.00  0.00    -0.058 A  
HETATM    5  C   UNL     1      -5.807  13.873  68.021  1.00  0.00    -0.137 A  
HETATM    6  C   UNL     1      -7.201  14.015  67.945  1.00  0.00    -0.164 A  
HETATM    7  C   UNL     1      -7.431  11.736  68.762  1.00  0.00    -0.109 A  
HETATM    8  C   UNL     1      -8.007  12.932  68.324  1.00  0.00    -0.151 A  
ENDROOT
BRANCH   6   9
HETATM    9  C   UNL     1      -7.761  15.324  67.569  1.00  0.00    -0.200 C  
HETATM   10  C   UNL     1      -7.596  16.458  68.269  1.00  0.00    -0.163 C  
BRANCH  10  11
HETATM   11  C   UNL     1      -8.114  17.774  67.854  1.00  0.00    -0.235 A  
HETATM   12  C   UNL     1      -7.724  18.406  66.664  1.00  0.00    -0.258 A  
HETATM   13  C   UNL     1      -8.260  19.649  66.325  1.00  0.00    -0.347 A  
HETATM   14  C   UNL     1      -9.194  20.277  67.138  1.00  0.00    -0.519 A  
HETATM   15  O   UNL     1      -7.889  20.293  65.179  1.00  0.00    -0.409 OA 
HETATM   16  H   UNL     1      -8.254  21.139  64.949  1.00  0.00     0.000 HD 
HETATM   17  C   UNL     1      -9.596  19.642  68.307  1.00  0.00    -0.385 A  
HETATM   18  O   UNL     1     -10.514  20.209  69.141  1.00  0.00    -0.568 OA 
HETATM   19  C   UNL     1      -9.070  18.402  68.665  1.00  0.00    -0.317 A  
HETATM   20  H   UNL     1     -10.789  19.774  69.940  1.00  0.00     0.000 HD 
ENDBRANCH  10  11
ENDBRANCH   6   9
TORSDOF 2
ENDMDL
MODEL      147
REMARK 921   NORMALIZED FREE ENERGY PREDICTED BY IDOCK:   -3.67 KCAL/MOL
REMARK 922        TOTAL FREE ENERGY PREDICTED BY IDOCK:   -4.42 KCAL/MOL
REMARK 923 INTER-LIGAND FREE ENERGY PREDICTED BY IDOCK:   -4.10 KCAL/MOL
REMARK 924 INTRA-LIGAND FREE ENERGY PREDICTED BY IDOCK:   -0.32 KCAL/MOL
REMARK 927      BINDING AFFINITY PREDICTED BY RF-SCORE:    0.00 PKD
ROOT
HETATM    1  O   UNL     1      -8.535   2.825  65.777  1.00  0.00    -0.094 OA 
HETATM    2  H   UNL     1      -7.681   2.612  65.420  1.00  0.00     0.000 HD 
HETATM    3  C   UNL     1      -8.892   4.114  66.048  1.00  0.00    -0.121 A  
HETATM    4  C   UNL     1     -10.141   4.425  66.571  1.00  0.00    -0.217 A  
HETATM    5  C   UNL     1     -10.473   5.763  66.803  1.00  0.00    -0.350 A  
HETATM    6  C   UNL     1      -9.561   6.792  66.523  1.00  0.00    -0.191 A  
HETATM    7  C   UNL     1      -7.970   5.114  65.769  1.00  0.00    -0.108 A  
HETATM    8  C   UNL     1      -8.305   6.451  66.000  1.00  0.00    -0.132 A  
ENDROOT
BRANCH   6   9
HETATM    9  C   UNL     1      -9.994   8.189  66.694  1.00  0.00    -0.339 C  
HETATM   10  C   UNL     1      -9.166   9.241  66.796  1.00  0.00    -0.185 C  
BRANCH  10  11
HETATM   11  C   UNL     1      -9.612  10.642  66.911  1.00  0.00    -0.200 A  
HETATM   12  C   UNL     1     -10.096  11.191  68.108  1.00  0.00    -0.193 A  
HETATM   13  C   UNL     1     -10.493  12.528  68.152  1.00  0.00    -0.229 A  
HETATM   14  C   UNL     1     -10.405  13.343  67.031  1.00  0.00    -0.247 A  
HETATM   15  O   UNL     1     -10.980  13.086  69.299  1.00  0.00    -0.400 OA 
HETATM   16  H   UNL     1     -11.250  13.996  69.329  1.00  0.00     0.000 HD 
HETATM   17  C   UNL     1      -9.907  12.805  65.851  1.00  0.00    -0.238 A  
HETATM   18  O   UNL     1      -9.792  13.560  64.721  1.00  0.00    -0.607 OA 
HETATM   19  C   UNL     1      -9.508  11.472  65.785  1.00  0.00    -0.255 A  
HETATM   20  H   UNL     1      -9.452  13.192  63.915  1.00  0.00     0.000 HD 
ENDBRANCH  10  11
ENDBRANCH   6   9
TORSDOF 2
ENDMDL
MODEL      148
REMARK 921   NORMALIZED FREE ENERGY PREDICTED BY IDOCK:   -3.65 KCAL/MOL
REMARK 922        TOTAL FREE ENERGY PREDICTED BY IDOCK:   -4.39 KCAL/MOL
REMARK 923 INTER-LIGAND FREE ENERGY PREDICTED BY IDOCK:   -4.06 KCAL/MOL
REMARK 924 INTRA-LIGAND FREE ENERGY PREDICTED BY IDOCK:   -0.33 KCAL/MOL
REMARK 927      BINDING AFFINITY PREDICTED BY RF-SCORE:    0.00 PKD
ROOT
HETATM    1  O   UNL     1      -9.805  12.703  64.287  1.00  0.00    -0.573 OA 
HETATM    2  H   UNL     1      -9.894  13.619  64.523  1.00  0.00     0.000 HD 
HETATM    3  C   UNL     1      -9.812  11.720  65.233  1.00  0.00    -0.239 A  
HETATM    4  C   UNL     1      -9.683  10.381  64.886  1.00  0.00    -0.372 A  
HETATM    5  C   UNL     1      -9.727   9.406  65.888  1.00  0.00    -0.355 A  
HETATM    6  C   UNL     1      -9.892   9.763  67.235  1.00  0.00    -0.228 A  
HETATM    7  C   UNL     1      -9.970  12.098  66.559  1.00  0.00    -0.230 A  
HETATM    8  C   UNL     1     -10.016  11.121  67.559  1.00  0.00    -0.204 A  
ENDROOT
BRANCH   6   9
HETATM    9  C   UNL     1     -10.029   8.695  68.239  1.00  0.00    -0.207 C  
HETATM   10  C   UNL     1      -9.685   7.411  68.045  1.00  0.00    -0.161 C  
BRANCH  10  11
HETATM   11  C   UNL     1      -9.775   6.360  69.075  1.00  0.00    -0.145 A  
HETATM   12  C   UNL     1     -10.461   6.538  70.287  1.00  0.00    -0.261 A  
HETATM   13  C   UNL     1     -10.516   5.499  71.216  1.00  0.00    -0.239 A  
HETATM   14  C   UNL     1      -9.916   4.273  70.963  1.00  0.00    -0.223 A  
HETATM   15  O   UNL     1     -11.165   5.647  72.408  1.00  0.00    -0.268 OA 
HETATM   16  H   UNL     1     -11.203   4.940  73.041  1.00  0.00     0.000 HD 
HETATM   17  C   UNL     1      -9.254   4.090  69.755  1.00  0.00    -0.142 A  
HETATM   18  O   UNL     1      -8.651   2.905  69.449  1.00  0.00    -0.059 OA 
HETATM   19  C   UNL     1      -9.184   5.116  68.814  1.00  0.00    -0.152 A  
HETATM   20  H   UNL     1      -8.199   2.781  68.623  1.00  0.00     0.000 HD 
ENDBRANCH  10  11
ENDBRANCH   6   9
TORSDOF 2
ENDMDL
MODEL      149
REMARK 921   NORMALIZED FREE ENERGY PREDICTED BY IDOCK:   -3.62 KCAL/MOL
REMARK 922        TOTAL FREE ENERGY PREDICTED BY IDOCK:   -4.36 KCAL/MOL
REMARK 923 INTER-LIGAND FREE ENERGY PREDICTED BY IDOCK:   -4.03 KCAL/MOL
REMARK 924 INTRA-LIGAND FREE ENERGY PREDICTED BY IDOCK:   -0.33 KCAL/MOL
REMARK 927      BINDING AFFINITY PREDICTED BY RF-SCORE:    0.00 PKD
ROOT
HETATM    1  O   UNL     1      -6.519   6.445  70.581  1.00  0.00    -0.041 OA 
HETATM    2  H   UNL     1      -6.851   5.681  71.037  1.00  0.00     0.000 HD 
HETATM    3  C   UNL     1      -7.348   7.277  69.887  1.00  0.00    -0.084 A  
HETATM    4  C   UNL     1      -6.862   8.395  69.220  1.00  0.00    -0.047 A  
HETATM    5  C   UNL     1      -7.755   9.235  68.548  1.00  0.00    -0.085 A  
HETATM    6  C   UNL     1      -9.131   8.960  68.532  1.00  0.00    -0.137 A  
HETATM    7  C   UNL     1      -8.705   6.981  69.880  1.00  0.00    -0.142 A  
HETATM    8  C   UNL     1      -9.596   7.824  69.208  1.00  0.00    -0.159 A  
ENDROOT
BRANCH   6   9
HETATM    9  C   UNL     1     -10.039   9.928  67.893  1.00  0.00    -0.210 C  
HETATM   10  C   UNL     1      -9.651  10.913  67.067  1.00  0.00    -0.197 C  
BRANCH  10  11
HETATM   11  C   UNL     1     -10.573  11.842  66.389  1.00  0.00    -0.293 A  
HETATM   12  C   UNL     1     -11.310  11.487  65.249  1.00  0.00    -0.150 A  
HETATM   13  C   UNL     1     -12.174  12.410  64.660  1.00  0.00    -0.425 A  
HETATM   14  C   UNL     1     -12.337  13.684  65.190  1.00  0.00    -0.486 A  
HETATM   15  O   UNL     1     -12.895  12.098  63.543  1.00  0.00    -0.768 OA 
HETATM   16  H   UNL     1     -13.483  12.727  63.143  1.00  0.00     0.000 HD 
HETATM   17  C   UNL     1     -11.623  14.029  66.331  1.00  0.00    -0.369 A  
HETATM   18  O   UNL     1     -11.747  15.263  66.899  1.00  0.00    -0.172 OA 
HETATM   19  C   UNL     1     -10.752  13.122  66.932  1.00  0.00    -0.270 A  
HETATM   20  H   UNL     1     -11.258  15.498  67.678  1.00  0.00     0.000 HD 
ENDBRANCH  10  11
ENDBRANCH   6   9
TORSDOF 2
ENDMDL
MODEL      150
REMARK 921   NORMALIZED FREE ENERGY PREDICTED BY IDOCK:   -3.60 KCAL/MOL
REMARK 922        TOTAL FREE ENERGY PREDICTED BY IDOCK:   -4.35 KCAL/MOL
REMARK 923 INTER-LIGAND FREE ENERGY PREDICTED BY IDOCK:   -4.02 KCAL/MOL
REMARK 924 INTRA-LIGAND FREE ENERGY PREDICTED BY IDOCK:   -0.33 KCAL/MOL
REMARK 927      BINDING AFFINITY PREDICTED BY RF-SCORE:    0.00 PKD
ROOT
HETATM    1  O   UNL     1      -9.092   6.415  69.499  1.00  0.00    -0.138 OA 
HETATM    2  H   UNL     1      -8.288   6.024  69.819  1.00  0.00     0.000 HD 
HETATM    3  C   UNL     1      -9.213   7.765  69.340  1.00  0.00    -0.149 A  
HETATM    4  C   UNL     1     -10.390   8.337  68.872  1.00  0.00    -0.230 A  
HETATM    5  C   UNL     1     -10.456   9.722  68.695  1.00  0.00    -0.233 A  
HETATM    6  C   UNL     1      -9.355  10.540  68.991  1.00  0.00    -0.205 A  
HETATM    7  C   UNL     1      -8.113   8.554  69.645  1.00  0.00    -0.113 A  
HETATM    8  C   UNL     1      -8.181   9.940  69.466  1.00  0.00    -0.163 A  
ENDROOT
BRANCH   6   9
HETATM    9  C   UNL     1      -9.443  11.980  68.695  1.00  0.00    -0.069 C  
HETATM   10  C   UNL     1     -10.527  12.595  68.194  1.00  0.00    -0.239 C  
BRANCH  10  11
HETATM   11  C   UNL     1     -10.623  14.047  67.954  1.00  0.00    -0.246 A  
HETATM   12  C   UNL     1     -10.425  14.625  66.691  1.00  0.00    -0.278 A  
HETATM   13  C   UNL     1     -10.540  16.005  66.530  1.00  0.00    -0.284 A  
HETATM   14  C   UNL     1     -10.865  16.831  67.598  1.00  0.00    -0.252 A  
HETATM   15  O   UNL     1     -10.341  16.597  65.315  1.00  0.00    -0.609 OA 
HETATM   16  H   UNL     1     -10.419  17.537  65.206  1.00  0.00     0.000 HD 
HETATM   17  C   UNL     1     -11.081  16.257  68.844  1.00  0.00    -0.345 A  
HETATM   18  O   UNL     1     -11.409  17.018  69.928  1.00  0.00    -0.212 OA 
HETATM   19  C   UNL     1     -10.968  14.881  69.027  1.00  0.00    -0.251 A  
HETATM   20  H   UNL     1     -11.557  16.625  70.780  1.00  0.00     0.000 HD 
ENDBRANCH  10  11
ENDBRANCH   6   9
TORSDOF 2
ENDMDL
MODEL      151
REMARK 921   NORMALIZED FREE ENERGY PREDICTED BY IDOCK:   -3.60 KCAL/MOL
REMARK 922        TOTAL FREE ENERGY PREDICTED BY IDOCK:   -4.34 KCAL/MOL
REMARK 923 INTER-LIGAND FREE ENERGY PREDICTED BY IDOCK:   -4.01 KCAL/MOL
REMARK 924 INTRA-LIGAND FREE ENERGY PREDICTED BY IDOCK:   -0.33 KCAL/MOL
REMARK 927      BINDING AFFINITY PREDICTED BY RF-SCORE:    0.00 PKD
ROOT
HETATM    1  O   UNL     1     -10.488  14.173  67.084  1.00  0.00    -0.267 OA 
HETATM    2  H   UNL     1     -11.328  14.616  67.078  1.00  0.00     0.000 HD 
HETATM    3  C   UNL     1     -10.301  13.011  67.775  1.00  0.00    -0.226 A  
HETATM    4  C   UNL     1      -9.072  12.363  67.784  1.00  0.00    -0.193 A  
HETATM    5  C   UNL     1      -8.937  11.158  68.480  1.00  0.00    -0.168 A  
HETATM    6  C   UNL     1     -10.022  10.602  69.175  1.00  0.00    -0.228 A  
HETATM    7  C   UNL     1     -11.387  12.483  68.460  1.00  0.00    -0.337 A  
HETATM    8  C   UNL     1     -11.250  11.278  69.155  1.00  0.00    -0.337 A  
ENDROOT
BRANCH   6   9
HETATM    9  C   UNL     1      -9.854   9.284  69.812  1.00  0.00    -0.202 C  
HETATM   10  C   UNL     1     -10.453   8.901  70.951  1.00  0.00    -0.299 C  
BRANCH  10  11
HETATM   11  C   UNL     1     -10.321   7.561  71.550  1.00  0.00    -0.216 A  
HETATM   12  C   UNL     1     -11.373   6.920  72.223  1.00  0.00    -0.306 A  
HETATM   13  C   UNL     1     -11.186   5.646  72.759  1.00  0.00    -0.299 A  
HETATM   14  C   UNL     1      -9.973   4.981  72.629  1.00  0.00    -0.209 A  
HETATM   15  O   UNL     1     -12.187   5.004  73.430  1.00  0.00    -0.339 OA 
HETATM   16  H   UNL     1     -12.059   4.136  73.795  1.00  0.00     0.000 HD 
HETATM   17  C   UNL     1      -8.938   5.606  71.945  1.00  0.00    -0.139 A  
HETATM   18  O   UNL     1      -7.728   4.998  71.781  1.00  0.00    -0.100 OA 
HETATM   19  C   UNL     1      -9.104   6.880  71.405  1.00  0.00    -0.148 A  
HETATM   20  H   UNL     1      -7.021   5.426  71.314  1.00  0.00     0.000 HD 
ENDBRANCH  10  11
ENDBRANCH   6   9
TORSDOF 2
ENDMDL
MODEL      152
REMARK 921   NORMALIZED FREE ENERGY PREDICTED BY IDOCK:   -3.58 KCAL/MOL
REMARK 922        TOTAL FREE ENERGY PREDICTED BY IDOCK:   -4.32 KCAL/MOL
REMARK 923 INTER-LIGAND FREE ENERGY PREDICTED BY IDOCK:   -4.01 KCAL/MOL
REMARK 924 INTRA-LIGAND FREE ENERGY PREDICTED BY IDOCK:   -0.31 KCAL/MOL
REMARK 927      BINDING AFFINITY PREDICTED BY RF-SCORE:    0.00 PKD
ROOT
HETATM    1  O   UNL     1      -7.940   3.116  69.364  1.00  0.00    -0.049 OA 
HETATM    2  H   UNL     1      -7.060   3.046  69.714  1.00  0.00     0.000 HD 
HETATM    3  C   UNL     1      -8.377   4.257  68.758  1.00  0.00    -0.083 A  
HETATM    4  C   UNL     1      -9.665   4.359  68.246  1.00  0.00    -0.171 A  
HETATM    5  C   UNL     1     -10.057   5.539  67.605  1.00  0.00    -0.217 A  
HETATM    6  C   UNL     1      -9.172   6.621  67.482  1.00  0.00    -0.114 A  
HETATM    7  C   UNL     1      -7.486   5.317  68.653  1.00  0.00    -0.071 A  
HETATM    8  C   UNL     1      -7.880   6.495  68.011  1.00  0.00    -0.105 A  
ENDROOT
BRANCH   6   9
HETATM    9  C   UNL     1      -9.601   7.802  66.715  1.00  0.00    -0.274 C  
HETATM   10  C   UNL     1      -9.234   9.066  66.984  1.00  0.00    -0.169 C  
BRANCH  10  11
HETATM   11  C   UNL     1      -9.625  10.235  66.176  1.00  0.00    -0.248 A  
HETATM   12  C   UNL     1     -10.057  10.132  64.845  1.00  0.00    -0.277 A  
HETATM   13  C   UNL     1     -10.422  11.279  64.139  1.00  0.00    -0.369 A  
HETATM   14  C   UNL     1     -10.383  12.534  64.732  1.00  0.00    -0.331 A  
HETATM   15  O   UNL     1     -10.834  11.211  62.839  1.00  0.00    -0.801 OA 
HETATM   16  H   UNL     1     -11.083  11.991  62.359  1.00  0.00     0.000 HD 
HETATM   17  C   UNL     1      -9.975  12.634  66.057  1.00  0.00    -0.258 A  
HETATM   18  O   UNL     1      -9.923  13.839  66.693  1.00  0.00    -0.264 OA 
HETATM   19  C   UNL     1      -9.603  11.501  66.779  1.00  0.00    -0.203 A  
HETATM   20  H   UNL     1      -9.644  13.907  67.598  1.00  0.00     0.000 HD 
ENDBRANCH  10  11
ENDBRANCH   6   9
TORSDOF 2
ENDMDL
MODEL      153
REMARK 921   NORMALIZED FREE ENERGY PREDICTED BY IDOCK:   -3.58 KCAL/MOL
REMARK 922        TOTAL FREE ENERGY PREDICTED BY IDOCK:   -4.32 KCAL/MOL
REMARK 923 INTER-LIGAND FREE ENERGY PREDICTED BY IDOCK:   -3.99 KCAL/MOL
REMARK 924 INTRA-LIGAND FREE ENERGY PREDICTED BY IDOCK:   -0.33 KCAL/MOL
REMARK 927      BINDING AFFINITY PREDICTED BY RF-SCORE:    0.00 PKD
ROOT
HETATM    1  O   UNL     1     -10.562  18.118  66.767  1.00  0.00    -0.357 OA 
HETATM    2  H   UNL     1     -11.275  18.598  67.171  1.00  0.00     0.000 HD 
HETATM    3  C   UNL     1     -10.332  16.806  67.058  1.00  0.00    -0.300 A  
HETATM    4  C   UNL     1      -9.289  16.104  66.466  1.00  0.00    -0.296 A  
HETATM    5  C   UNL     1      -9.112  14.751  66.773  1.00  0.00    -0.291 A  
HETATM    6  C   UNL     1      -9.966  14.098  67.674  1.00  0.00    -0.233 A  
HETATM    7  C   UNL     1     -11.187  16.182  67.957  1.00  0.00    -0.291 A  
HETATM    8  C   UNL     1     -11.008  14.829  68.261  1.00  0.00    -0.264 A  
ENDROOT
BRANCH   6   9
HETATM    9  C   UNL     1      -9.797  12.650  67.888  1.00  0.00    -0.218 C  
HETATM   10  C   UNL     1      -9.221  11.808  67.014  1.00  0.00    -0.187 C  
BRANCH  10  11
HETATM   11  C   UNL     1      -9.007  10.371  67.262  1.00  0.00    -0.142 A  
HETATM   12  C   UNL     1      -7.833   9.865  67.842  1.00  0.00    -0.090 A  
HETATM   13  C   UNL     1      -7.697   8.494  68.058  1.00  0.00    -0.103 A  
HETATM   14  C   UNL     1      -8.713   7.607  67.724  1.00  0.00    -0.127 A  
HETATM   15  O   UNL     1      -6.563   7.971  68.609  1.00  0.00    -0.054 OA 
HETATM   16  H   UNL     1      -6.470   7.037  68.756  1.00  0.00     0.000 HD 
HETATM   17  C   UNL     1      -9.883   8.110  67.169  1.00  0.00    -0.217 A  
HETATM   18  O   UNL     1     -10.916   7.288  66.827  1.00  0.00    -0.521 OA 
HETATM   19  C   UNL     1     -10.037   9.476  66.941  1.00  0.00    -0.295 A  
HETATM   20  H   UNL     1     -11.715   7.632  66.447  1.00  0.00     0.000 HD 
ENDBRANCH  10  11
ENDBRANCH   6   9
TORSDOF 2
ENDMDL
MODEL      154
REMARK 921   NORMALIZED FREE ENERGY PREDICTED BY IDOCK:   -3.57 KCAL/MOL
REMARK 922        TOTAL FREE ENERGY PREDICTED BY IDOCK:   -4.31 KCAL/MOL
REMARK 923 INTER-LIGAND FREE ENERGY PREDICTED BY IDOCK:   -3.99 KCAL/MOL
REMARK 924 INTRA-LIGAND FREE ENERGY PREDICTED BY IDOCK:   -0.32 KCAL/MOL
REMARK 927      BINDING AFFINITY PREDICTED BY RF-SCORE:    0.00 PKD
ROOT
HETATM    1  O   UNL     1     -11.056  14.103  66.965  1.00  0.00    -0.295 OA 
HETATM    2  H   UNL     1     -11.925  14.481  67.026  1.00  0.00     0.000 HD 
HETATM    3  C   UNL     1     -10.665  13.084  67.784  1.00  0.00    -0.229 A  
HETATM    4  C   UNL     1      -9.393  12.530  67.695  1.00  0.00    -0.189 A  
HETATM    5  C   UNL     1      -9.048  11.467  68.535  1.00  0.00    -0.169 A  
HETATM    6  C   UNL     1      -9.964  10.959  69.469  1.00  0.00    -0.010 A  
HETATM    7  C   UNL     1     -11.585  12.602  68.705  1.00  0.00    -0.356 A  
HETATM    8  C   UNL     1     -11.238  11.538  69.542  1.00  0.00    -0.305 A  
ENDROOT
BRANCH   6   9
HETATM    9  C   UNL     1      -9.585   9.777  70.262  1.00  0.00    -0.264 C  
HETATM   10  C   UNL     1     -10.369   9.184  71.176  1.00  0.00    -0.387 C  
BRANCH  10  11
HETATM   11  C   UNL     1     -10.001   7.968  71.924  1.00  0.00    -0.255 A  
HETATM   12  C   UNL     1      -8.679   7.667  72.287  1.00  0.00    -0.160 A  
HETATM   13  C   UNL     1      -8.400   6.504  73.004  1.00  0.00    -0.118 A  
HETATM   14  C   UNL     1      -9.411   5.632  73.386  1.00  0.00    -0.138 A  
HETATM   15  O   UNL     1      -7.122   6.179  73.360  1.00  0.00    -0.083 OA 
HETATM   16  H   UNL     1      -6.932   5.387  73.848  1.00  0.00     0.000 HD 
HETATM   17  C   UNL     1     -10.722   5.939  73.044  1.00  0.00    -0.256 A  
HETATM   18  O   UNL     1     -11.757   5.123  73.397  1.00  0.00    -0.498 OA 
HETATM   19  C   UNL     1     -11.022   7.095  72.325  1.00  0.00    -0.277 A  
HETATM   20  H   UNL     1     -12.653   5.334  73.164  1.00  0.00     0.000 HD 
ENDBRANCH  10  11
ENDBRANCH   6   9
TORSDOF 2
ENDMDL
MODEL      155
REMARK 921   NORMALIZED FREE ENERGY PREDICTED BY IDOCK:   -3.54 KCAL/MOL
REMARK 922        TOTAL FREE ENERGY PREDICTED BY IDOCK:   -4.28 KCAL/MOL
REMARK 923 INTER-LIGAND FREE ENERGY PREDICTED BY IDOCK:   -3.94 KCAL/MOL
REMARK 924 INTRA-LIGAND FREE ENERGY PREDICTED BY IDOCK:   -0.34 KCAL/MOL
REMARK 927      BINDING AFFINITY PREDICTED BY RF-SCORE:    0.00 PKD
ROOT
HETATM    1  O   UNL     1      -6.040   4.336  64.238  1.00  0.00    -0.020 OA 
HETATM    2  H   UNL     1      -5.377   4.124  63.592  1.00  0.00     0.000 HD 
HETATM    3  C   UNL     1      -6.646   5.559  64.262  1.00  0.00    -0.041 A  
HETATM    4  C   UNL     1      -7.615   5.869  65.208  1.00  0.00    -0.086 A  
HETATM    5  C   UNL     1      -8.231   7.124  65.172  1.00  0.00    -0.114 A  
HETATM    6  C   UNL     1      -7.877   8.074  64.202  1.00  0.00    -0.141 A  
HETATM    7  C   UNL     1      -6.275   6.484  63.296  1.00  0.00    -0.037 A  
HETATM    8  C   UNL     1      -6.892   7.738  63.262  1.00  0.00    -0.071 A  
ENDROOT
BRANCH   6   9
HETATM    9  C   UNL     1      -8.622   9.343  64.148  1.00  0.00    -0.216 C  
HETATM   10  C   UNL     1      -9.370   9.836  65.149  1.00  0.00    -0.322 C  
BRANCH  10  11
HETATM   11  C   UNL     1     -10.068  11.134  65.104  1.00  0.00    -0.335 A  
HETATM   12  C   UNL     1     -10.044  12.048  66.169  1.00  0.00    -0.252 A  
HETATM   13  C   UNL     1     -10.718  13.264  66.059  1.00  0.00    -0.277 A  
HETATM   14  C   UNL     1     -11.408  13.605  64.902  1.00  0.00    -0.353 A  
HETATM   15  O   UNL     1     -10.723  14.168  67.082  1.00  0.00    -0.277 OA 
HETATM   16  H   UNL     1     -11.181  14.996  67.007  1.00  0.00     0.000 HD 
HETATM   17  C   UNL     1     -11.415  12.708  63.841  1.00  0.00    -0.442 A  
HETATM   18  O   UNL     1     -12.070  12.991  62.679  1.00  0.00    -0.501 OA 
HETATM   19  C   UNL     1     -10.751  11.486  63.932  1.00  0.00    -0.458 A  
HETATM   20  H   UNL     1     -12.075  12.378  61.953  1.00  0.00     0.000 HD 
ENDBRANCH  10  11
ENDBRANCH   6   9
TORSDOF 2
ENDMDL
MODEL      156
REMARK 921   NORMALIZED FREE ENERGY PREDICTED BY IDOCK:   -3.54 KCAL/MOL
REMARK 922        TOTAL FREE ENERGY PREDICTED BY IDOCK:   -4.27 KCAL/MOL
REMARK 923 INTER-LIGAND FREE ENERGY PREDICTED BY IDOCK:   -3.94 KCAL/MOL
REMARK 924 INTRA-LIGAND FREE ENERGY PREDICTED BY IDOCK:   -0.33 KCAL/MOL
REMARK 927      BINDING AFFINITY PREDICTED BY RF-SCORE:    0.00 PKD
ROOT
HETATM    1  O   UNL     1      -6.011   8.686  63.547  1.00  0.00    -0.075 OA 
HETATM    2  H   UNL     1      -5.140   8.970  63.296  1.00  0.00     0.000 HD 
HETATM    3  C   UNL     1      -6.697   9.299  64.554  1.00  0.00    -0.085 A  
HETATM    4  C   UNL     1      -7.972   8.884  64.920  1.00  0.00    -0.129 A  
HETATM    5  C   UNL     1      -8.649   9.563  65.938  1.00  0.00    -0.144 A  
HETATM    6  C   UNL     1      -8.055  10.650  66.598  1.00  0.00    -0.136 A  
HETATM    7  C   UNL     1      -6.088  10.368  65.197  1.00  0.00    -0.124 A  
HETATM    8  C   UNL     1      -6.767  11.047  66.213  1.00  0.00    -0.103 A  
ENDROOT
BRANCH   6   9
HETATM    9  C   UNL     1      -8.847  11.391  67.595  1.00  0.00    -0.139 C  
HETATM   10  C   UNL     1     -10.187  11.369  67.680  1.00  0.00    -0.204 C  
BRANCH  10  11
HETATM   11  C   UNL     1     -10.966  12.070  68.716  1.00  0.00    -0.282 A  
HETATM   12  C   UNL     1     -11.129  13.464  68.734  1.00  0.00    -0.297 A  
HETATM   13  C   UNL     1     -11.887  14.065  69.738  1.00  0.00    -0.324 A  
HETATM   14  C   UNL     1     -12.507  13.309  70.725  1.00  0.00    -0.403 A  
HETATM   15  O   UNL     1     -12.053  15.420  69.788  1.00  0.00    -0.337 OA 
HETATM   16  H   UNL     1     -12.570  15.829  70.472  1.00  0.00     0.000 HD 
HETATM   17  C   UNL     1     -12.363  11.927  70.696  1.00  0.00    -0.313 A  
HETATM   18  O   UNL     1     -12.953  11.133  71.635  1.00  0.00    -0.445 OA 
HETATM   19  C   UNL     1     -11.606  11.307  69.703  1.00  0.00    -0.401 A  
HETATM   20  H   UNL     1     -12.854  10.189  71.614  1.00  0.00     0.000 HD 
ENDBRANCH  10  11
ENDBRANCH   6   9
TORSDOF 2
ENDMDL
MODEL      157
REMARK 921   NORMALIZED FREE ENERGY PREDICTED BY IDOCK:   -3.53 KCAL/MOL
REMARK 922        TOTAL FREE ENERGY PREDICTED BY IDOCK:   -4.26 KCAL/MOL
REMARK 923 INTER-LIGAND FREE ENERGY PREDICTED BY IDOCK:   -3.92 KCAL/MOL
REMARK 924 INTRA-LIGAND FREE ENERGY PREDICTED BY IDOCK:   -0.34 KCAL/MOL
REMARK 927      BINDING AFFINITY PREDICTED BY RF-SCORE:    0.00 PKD
ROOT
HETATM    1  O   UNL     1      -6.833  10.693  63.701  1.00  0.00    -0.349 OA 
HETATM    2  H   UNL     1      -6.713  10.144  62.936  1.00  0.00     0.000 HD 
HETATM    3  C   UNL     1      -7.521  10.252  64.794  1.00  0.00    -0.103 A  
HETATM    4  C   UNL     1      -7.695  11.056  65.913  1.00  0.00    -0.012 A  
HETATM    5  C   UNL     1      -8.382  10.549  67.022  1.00  0.00    -0.128 A  
HETATM    6  C   UNL     1      -8.901   9.246  67.014  1.00  0.00    -0.135 A  
HETATM    7  C   UNL     1      -8.031   8.962  64.760  1.00  0.00    -0.129 A  
HETATM    8  C   UNL     1      -8.716   8.456  65.870  1.00  0.00    -0.197 A  
ENDROOT
BRANCH   6   9
HETATM    9  C   UNL     1      -9.530   8.727  68.240  1.00  0.00    -0.150 C  
HETATM   10  C   UNL     1      -9.196   9.095  69.487  1.00  0.00    -0.160 C  
BRANCH  10  11
HETATM   11  C   UNL     1      -9.870   8.610  70.706  1.00  0.00    -0.236 A  
HETATM   12  C   UNL     1      -9.196   8.414  71.921  1.00  0.00    -0.306 A  
HETATM   13  C   UNL     1      -9.895   7.962  73.041  1.00  0.00    -0.289 A  
HETATM   14  C   UNL     1     -11.260   7.713  72.987  1.00  0.00    -0.388 A  
HETATM   15  O   UNL     1      -9.264   7.750  74.234  1.00  0.00    -0.422 OA 
HETATM   16  H   UNL     1      -9.740   7.442  74.996  1.00  0.00     0.000 HD 
HETATM   17  C   UNL     1     -11.931   7.926  71.789  1.00  0.00    -0.298 A  
HETATM   18  O   UNL     1     -13.272   7.704  71.678  1.00  0.00    -0.343 OA 
HETATM   19  C   UNL     1     -11.251   8.374  70.658  1.00  0.00    -0.275 A  
HETATM   20  H   UNL     1     -13.730   7.850  70.859  1.00  0.00     0.000 HD 
ENDBRANCH  10  11
ENDBRANCH   6   9
TORSDOF 2
ENDMDL
MODEL      158
REMARK 921   NORMALIZED FREE ENERGY PREDICTED BY IDOCK:   -3.52 KCAL/MOL
REMARK 922        TOTAL FREE ENERGY PREDICTED BY IDOCK:   -4.26 KCAL/MOL
REMARK 923 INTER-LIGAND FREE ENERGY PREDICTED BY IDOCK:   -3.92 KCAL/MOL
REMARK 924 INTRA-LIGAND FREE ENERGY PREDICTED BY IDOCK:   -0.33 KCAL/MOL
REMARK 927      BINDING AFFINITY PREDICTED BY RF-SCORE:    0.00 PKD
ROOT
HETATM    1  O   UNL     1      -7.247   7.680  64.099  1.00  0.00    -0.070 OA 
HETATM    2  H   UNL     1      -6.322   7.863  63.990  1.00  0.00     0.000 HD 
HETATM    3  C   UNL     1      -7.910   8.019  65.242  1.00  0.00    -0.113 A  
HETATM    4  C   UNL     1      -9.264   7.751  65.402  1.00  0.00     0.298 A  
HETATM    5  C   UNL     1      -9.908   8.147  66.579  1.00  0.00    -0.309 A  
HETATM    6  C   UNL     1      -9.203   8.801  67.601  1.00  0.00    -0.148 A  
HETATM    7  C   UNL     1      -7.191   8.660  66.242  1.00  0.00    -0.079 A  
HETATM    8  C   UNL     1      -7.837   9.055  67.418  1.00  0.00    -0.100 A  
ENDROOT
BRANCH   6   9
HETATM    9  C   UNL     1      -9.947   9.282  68.777  1.00  0.00    -0.193 C  
HETATM   10  C   UNL     1     -10.904  10.223  68.747  1.00  0.00    -0.265 C  
BRANCH  10  11
HETATM   11  C   UNL     1     -11.681  10.658  69.922  1.00  0.00    -0.395 A  
HETATM   12  C   UNL     1     -12.134  11.975  70.091  1.00  0.00    -0.377 A  
HETATM   13  C   UNL     1     -12.873  12.319  71.223  1.00  0.00    -0.239 A  
HETATM   14  C   UNL     1     -13.189  11.375  72.192  1.00  0.00    -0.293 A  
HETATM   15  O   UNL     1     -13.316  13.596  71.421  1.00  0.00    -0.319 OA 
HETATM   16  H   UNL     1     -13.819  13.829  72.191  1.00  0.00     0.000 HD 
HETATM   17  C   UNL     1     -12.758  10.067  72.015  1.00  0.00    -0.347 A  
HETATM   18  O   UNL     1     -13.044   9.096  72.930  1.00  0.00    -0.585 OA 
HETATM   19  C   UNL     1     -12.015   9.703  70.893  1.00  0.00    -0.391 A  
HETATM   20  H   UNL     1     -12.749   8.202  72.809  1.00  0.00     0.000 HD 
ENDBRANCH  10  11
ENDBRANCH   6   9
TORSDOF 2
ENDMDL
MODEL      159
REMARK 921   NORMALIZED FREE ENERGY PREDICTED BY IDOCK:   -3.50 KCAL/MOL
REMARK 922        TOTAL FREE ENERGY PREDICTED BY IDOCK:   -4.23 KCAL/MOL
REMARK 923 INTER-LIGAND FREE ENERGY PREDICTED BY IDOCK:   -3.90 KCAL/MOL
REMARK 924 INTRA-LIGAND FREE ENERGY PREDICTED BY IDOCK:   -0.33 KCAL/MOL
REMARK 927      BINDING AFFINITY PREDICTED BY RF-SCORE:    0.00 PKD
ROOT
HETATM    1  O   UNL     1      -5.234   3.868  65.434  1.00  0.00    -0.008 OA 
HETATM    2  H   UNL     1      -4.599   3.745  64.739  1.00  0.00     0.000 HD 
HETATM    3  C   UNL     1      -5.906   5.046  65.584  1.00  0.00    -0.018 A  
HETATM    4  C   UNL     1      -6.835   5.225  66.602  1.00  0.00    -0.063 A  
HETATM    5  C   UNL     1      -7.522   6.439  66.697  1.00  0.00    -0.083 A  
HETATM    6  C   UNL     1      -7.281   7.478  65.785  1.00  0.00    -0.066 A  
HETATM    7  C   UNL     1      -5.645   6.061  64.674  1.00  0.00    -0.017 A  
HETATM    8  C   UNL     1      -6.335   7.274  64.770  1.00  0.00    -0.037 A  
ENDROOT
BRANCH   6   9
HETATM    9  C   UNL     1      -8.100   8.699  65.869  1.00  0.00    -0.111 C  
HETATM   10  C   UNL     1      -9.096   9.014  65.026  1.00  0.00    -0.171 C  
BRANCH  10  11
HETATM   11  C   UNL     1      -9.946  10.212  65.153  1.00  0.00    -0.379 A  
HETATM   12  C   UNL     1     -10.299  11.015  64.057  1.00  0.00    -0.436 A  
HETATM   13  C   UNL     1     -11.115  12.131  64.244  1.00  0.00    -0.346 A  
HETATM   14  C   UNL     1     -11.605  12.463  65.500  1.00  0.00    -0.432 A  
HETATM   15  O   UNL     1     -11.464  12.937  63.199  1.00  0.00    -0.772 OA 
HETATM   16  H   UNL     1     -12.020  13.697  63.326  1.00  0.00     0.000 HD 
HETATM   17  C   UNL     1     -11.273  11.657  66.581  1.00  0.00    -0.299 A  
HETATM   18  O   UNL     1     -11.731  11.931  67.837  1.00  0.00    -0.404 OA 
HETATM   19  C   UNL     1     -10.456  10.539  66.417  1.00  0.00    -0.258 A  
HETATM   20  H   UNL     1     -11.503  11.379  68.576  1.00  0.00     0.000 HD 
ENDBRANCH  10  11
ENDBRANCH   6   9
TORSDOF 2
ENDMDL
MODEL      160
REMARK 921   NORMALIZED FREE ENERGY PREDICTED BY IDOCK:   -3.47 KCAL/MOL
REMARK 922        TOTAL FREE ENERGY PREDICTED BY IDOCK:   -4.20 KCAL/MOL
REMARK 923 INTER-LIGAND FREE ENERGY PREDICTED BY IDOCK:   -3.86 KCAL/MOL
REMARK 924 INTRA-LIGAND FREE ENERGY PREDICTED BY IDOCK:   -0.34 KCAL/MOL
REMARK 927      BINDING AFFINITY PREDICTED BY RF-SCORE:    0.00 PKD
ROOT
HETATM    1  O   UNL     1      -7.109   6.691  72.232  1.00  0.00    -0.071 OA 
HETATM    2  H   UNL     1      -6.355   7.009  72.715  1.00  0.00     0.000 HD 
HETATM    3  C   UNL     1      -7.715   7.453  71.276  1.00  0.00    -0.087 A  
HETATM    4  C   UNL     1      -8.818   6.987  70.570  1.00  0.00    -0.154 A  
HETATM    5  C   UNL     1      -9.386   7.792  69.578  1.00  0.00    -0.149 A  
HETATM    6  C   UNL     1      -8.864   9.062  69.293  1.00  0.00    -0.139 A  
HETATM    7  C   UNL     1      -7.185   8.709  71.016  1.00  0.00    -0.079 A  
HETATM    8  C   UNL     1      -7.754   9.511  70.022  1.00  0.00    -0.146 A  
ENDROOT
BRANCH   6   9
HETATM    9  C   UNL     1      -9.438   9.829  68.174  1.00  0.00    -0.146 C  
HETATM   10  C   UNL     1      -9.081  11.079  67.838  1.00  0.00    -0.147 C  
BRANCH  10  11
HETATM   11  C   UNL     1      -9.623  11.817  66.683  1.00  0.00    -0.219 A  
HETATM   12  C   UNL     1      -9.597  13.217  66.593  1.00  0.00    -0.262 A  
HETATM   13  C   UNL     1     -10.118  13.854  65.466  1.00  0.00    -0.298 A  
HETATM   14  C   UNL     1     -10.655  13.127  64.411  1.00  0.00    -0.441 A  
HETATM   15  O   UNL     1     -10.118  15.215  65.356  1.00  0.00    -0.339 OA 
HETATM   16  H   UNL     1     -10.473  15.648  64.589  1.00  0.00     0.000 HD 
HETATM   17  C   UNL     1     -10.663  11.740  64.491  1.00  0.00    -0.315 A  
HETATM   18  O   UNL     1     -11.171  10.975  63.483  1.00  0.00    -0.558 OA 
HETATM   19  C   UNL     1     -10.150  11.085  65.609  1.00  0.00    -0.310 A  
HETATM   20  H   UNL     1     -11.176  10.027  63.538  1.00  0.00     0.000 HD 
ENDBRANCH  10  11
ENDBRANCH   6   9
TORSDOF 2
ENDMDL
MODEL      161
REMARK 921   NORMALIZED FREE ENERGY PREDICTED BY IDOCK:   -3.45 KCAL/MOL
REMARK 922        TOTAL FREE ENERGY PREDICTED BY IDOCK:   -4.17 KCAL/MOL
REMARK 923 INTER-LIGAND FREE ENERGY PREDICTED BY IDOCK:   -3.86 KCAL/MOL
REMARK 924 INTRA-LIGAND FREE ENERGY PREDICTED BY IDOCK:   -0.32 KCAL/MOL
REMARK 927      BINDING AFFINITY PREDICTED BY RF-SCORE:    0.00 PKD
ROOT
HETATM    1  O   UNL     1      -8.563   8.794  67.776  1.00  0.00    -0.128 OA 
HETATM    2  H   UNL     1      -7.806   8.262  67.562  1.00  0.00     0.000 HD 
HETATM    3  C   UNL     1      -8.485  10.154  67.833  1.00  0.00    -0.118 A  
HETATM    4  C   UNL     1      -9.594  10.931  68.147  1.00  0.00    -0.169 A  
HETATM    5  C   UNL     1      -9.473  12.324  68.162  1.00  0.00    -0.213 A  
HETATM    6  C   UNL     1      -8.248  12.945  67.873  1.00  0.00    -0.165 A  
HETATM    7  C   UNL     1      -7.262  10.746  67.550  1.00  0.00    -0.090 A  
HETATM    8  C   UNL     1      -7.144  12.139  67.564  1.00  0.00    -0.135 A  
ENDROOT
BRANCH   6   9
HETATM    9  C   UNL     1      -8.197  14.416  67.808  1.00  0.00    -0.173 C  
HETATM   10  C   UNL     1      -8.502  15.239  68.824  1.00  0.00    -0.181 C  
BRANCH  10  11
HETATM   11  C   UNL     1      -8.395  16.708  68.765  1.00  0.00    -0.252 A  
HETATM   12  C   UNL     1      -7.172  17.388  68.866  1.00  0.00    -0.250 A  
HETATM   13  C   UNL     1      -7.139  18.780  68.793  1.00  0.00    -0.308 A  
HETATM   14  C   UNL     1      -8.299  19.520  68.604  1.00  0.00    -0.364 A  
HETATM   15  O   UNL     1      -5.965  19.469  68.901  1.00  0.00    -0.223 OA 
HETATM   16  H   UNL     1      -5.943  20.417  68.851  1.00  0.00     0.000 HD 
HETATM   17  C   UNL     1      -9.508  18.847  68.484  1.00  0.00    -0.366 A  
HETATM   18  O   UNL     1     -10.679  19.520  68.291  1.00  0.00    -0.422 OA 
HETATM   19  C   UNL     1      -9.563  17.456  68.557  1.00  0.00    -0.298 A  
HETATM   20  H   UNL     1     -11.505  19.059  68.209  1.00  0.00     0.000 HD 
ENDBRANCH  10  11
ENDBRANCH   6   9
TORSDOF 2
ENDMDL
MODEL      162
REMARK 921   NORMALIZED FREE ENERGY PREDICTED BY IDOCK:   -3.43 KCAL/MOL
REMARK 922        TOTAL FREE ENERGY PREDICTED BY IDOCK:   -4.15 KCAL/MOL
REMARK 923 INTER-LIGAND FREE ENERGY PREDICTED BY IDOCK:   -3.81 KCAL/MOL
REMARK 924 INTRA-LIGAND FREE ENERGY PREDICTED BY IDOCK:   -0.33 KCAL/MOL
REMARK 927      BINDING AFFINITY PREDICTED BY RF-SCORE:    0.00 PKD
ROOT
HETATM    1  O   UNL     1      -6.498  10.504  63.989  1.00  0.00    -0.325 OA 
HETATM    2  H   UNL     1      -6.683   9.947  63.241  1.00  0.00     0.000 HD 
HETATM    3  C   UNL     1      -6.992  10.217  65.228  1.00  0.00    -0.137 A  
HETATM    4  C   UNL     1      -6.722  11.030  66.322  1.00  0.00    -0.103 A  
HETATM    5  C   UNL     1      -7.223  10.679  67.579  1.00  0.00    -0.090 A  
HETATM    6  C   UNL     1      -8.000   9.522  67.747  1.00  0.00    -0.099 A  
HETATM    7  C   UNL     1      -7.763   9.071  65.369  1.00  0.00    -0.095 A  
HETATM    8  C   UNL     1      -8.262   8.721  66.628  1.00  0.00    -0.107 A  
ENDROOT
BRANCH   6   9
HETATM    9  C   UNL     1      -8.422   9.145  69.107  1.00  0.00    -0.132 C  
HETATM   10  C   UNL     1      -9.523   8.433  69.398  1.00  0.00    -0.158 C  
BRANCH  10  11
HETATM   11  C   UNL     1      -9.907   8.014  70.758  1.00  0.00    -0.197 A  
HETATM   12  C   UNL     1     -10.987   7.155  71.014  1.00  0.00    -0.277 A  
HETATM   13  C   UNL     1     -11.292   6.789  72.325  1.00  0.00    -0.273 A  
HETATM   14  C   UNL     1     -10.535   7.247  73.396  1.00  0.00    -0.423 A  
HETATM   15  O   UNL     1     -12.344   5.964  72.606  1.00  0.00    -0.538 OA 
HETATM   16  H   UNL     1     -12.551   5.715  73.498  1.00  0.00     0.000 HD 
HETATM   17  C   UNL     1      -9.454   8.081  73.141  1.00  0.00    -0.280 A  
HETATM   18  O   UNL     1      -8.672   8.557  74.152  1.00  0.00    -0.291 OA 
HETATM   19  C   UNL     1      -9.134   8.461  71.839  1.00  0.00    -0.288 A  
HETATM   20  H   UNL     1      -7.933   9.127  73.978  1.00  0.00     0.000 HD 
ENDBRANCH  10  11
ENDBRANCH   6   9
TORSDOF 2
ENDMDL
MODEL      163
REMARK 921   NORMALIZED FREE ENERGY PREDICTED BY IDOCK:   -3.42 KCAL/MOL
REMARK 922        TOTAL FREE ENERGY PREDICTED BY IDOCK:   -4.14 KCAL/MOL
REMARK 923 INTER-LIGAND FREE ENERGY PREDICTED BY IDOCK:   -3.82 KCAL/MOL
REMARK 924 INTRA-LIGAND FREE ENERGY PREDICTED BY IDOCK:   -0.32 KCAL/MOL
REMARK 927      BINDING AFFINITY PREDICTED BY RF-SCORE:    0.00 PKD
ROOT
HETATM    1  O   UNL     1     -13.416  12.058  71.962  1.00  0.00    -0.447 OA 
HETATM    2  H   UNL     1     -13.907  11.738  72.709  1.00  0.00     0.000 HD 
HETATM    3  C   UNL     1     -12.522  11.264  71.305  1.00  0.00    -0.336 A  
HETATM    4  C   UNL     1     -11.804  11.733  70.211  1.00  0.00    -0.382 A  
HETATM    5  C   UNL     1     -10.922  10.872  69.550  1.00  0.00    -0.306 A  
HETATM    6  C   UNL     1     -10.748   9.548  69.980  1.00  0.00    -0.278 A  
HETATM    7  C   UNL     1     -12.362   9.960  71.752  1.00  0.00    -0.456 A  
HETATM    8  C   UNL     1     -11.480   9.101  71.088  1.00  0.00    -0.388 A  
ENDROOT
BRANCH   6   9
HETATM    9  C   UNL     1      -9.881   8.655  69.192  1.00  0.00    -0.185 C  
HETATM   10  C   UNL     1     -10.194   8.151  67.987  1.00  0.00    -0.263 C  
BRANCH  10  11
HETATM   11  C   UNL     1      -9.296   7.303  67.182  1.00  0.00    -0.170 A  
HETATM   12  C   UNL     1      -7.928   7.162  67.460  1.00  0.00    -0.113 A  
HETATM   13  C   UNL     1      -7.136   6.336  66.664  1.00  0.00    -0.069 A  
HETATM   14  C   UNL     1      -7.676   5.627  65.598  1.00  0.00    -0.089 A  
HETATM   15  O   UNL     1      -5.799   6.189  66.903  1.00  0.00    -0.016 OA 
HETATM   16  H   UNL     1      -5.260   5.626  66.361  1.00  0.00     0.000 HD 
HETATM   17  C   UNL     1      -9.035   5.751  65.335  1.00  0.00    -0.036 A  
HETATM   18  O   UNL     1      -9.622   5.074  64.306  1.00  0.00    -0.352 OA 
HETATM   19  C   UNL     1      -9.843   6.574  66.116  1.00  0.00     0.066 A  
HETATM   20  H   UNL     1     -10.550   5.159  64.126  1.00  0.00     0.000 HD 
ENDBRANCH  10  11
ENDBRANCH   6   9
TORSDOF 2
ENDMDL
MODEL      164
REMARK 921   NORMALIZED FREE ENERGY PREDICTED BY IDOCK:   -3.25 KCAL/MOL
REMARK 922        TOTAL FREE ENERGY PREDICTED BY IDOCK:   -3.96 KCAL/MOL
REMARK 923 INTER-LIGAND FREE ENERGY PREDICTED BY IDOCK:   -3.62 KCAL/MOL
REMARK 924 INTRA-LIGAND FREE ENERGY PREDICTED BY IDOCK:   -0.34 KCAL/MOL
REMARK 927      BINDING AFFINITY PREDICTED BY RF-SCORE:    0.00 PKD
ROOT
HETATM    1  O   UNL     1      -6.280  12.088  66.332  1.00  0.00    -0.477 OA 
HETATM    2  H   UNL     1      -6.348  12.103  65.385  1.00  0.00     0.000 HD 
HETATM    3  C   UNL     1      -7.104  11.313  67.094  1.00  0.00    -0.125 A  
HETATM    4  C   UNL     1      -7.003  11.292  68.479  1.00  0.00    -0.078 A  
HETATM    5  C   UNL     1      -7.849  10.457  69.216  1.00  0.00    -0.147 A  
HETATM    6  C   UNL     1      -8.801   9.649  68.576  1.00  0.00    -0.124 A  
HETATM    7  C   UNL     1      -8.042  10.526  66.439  1.00  0.00    -0.135 A  
HETATM    8  C   UNL     1      -8.886   9.691  67.178  1.00  0.00    -0.141 A  
ENDROOT
BRANCH   6   9
HETATM    9  C   UNL     1      -9.600   8.717  69.390  1.00  0.00    -0.166 C  
HETATM   10  C   UNL     1      -9.090   7.784  70.209  1.00  0.00    -0.152 C  
BRANCH  10  11
HETATM   11  C   UNL     1      -9.899   6.893  71.061  1.00  0.00    -0.185 A  
HETATM   12  C   UNL     1      -9.363   5.778  71.724  1.00  0.00    -0.163 A  
HETATM   13  C   UNL     1     -10.182   4.981  72.523  1.00  0.00    -0.196 A  
HETATM   14  C   UNL     1     -11.528   5.274  72.694  1.00  0.00    -0.270 A  
HETATM   15  O   UNL     1      -9.690   3.883  73.170  1.00  0.00    -0.118 OA 
HETATM   16  H   UNL     1     -10.248   3.340  73.714  1.00  0.00     0.000 HD 
HETATM   17  C   UNL     1     -12.055   6.389  72.054  1.00  0.00    -0.303 A  
HETATM   18  O   UNL     1     -13.369   6.729  72.190  1.00  0.00    -0.546 OA 
HETATM   19  C   UNL     1     -11.255   7.197  71.248  1.00  0.00    -0.287 A  
HETATM   20  H   UNL     1     -13.729   7.491  71.752  1.00  0.00     0.000 HD 
ENDBRANCH  10  11
ENDBRANCH   6   9
TORSDOF 2
ENDMDL
MODEL      165
REMARK 921   NORMALIZED FREE ENERGY PREDICTED BY IDOCK:   -3.24 KCAL/MOL
REMARK 922        TOTAL FREE ENERGY PREDICTED BY IDOCK:   -3.94 KCAL/MOL
REMARK 923 INTER-LIGAND FREE ENERGY PREDICTED BY IDOCK:   -3.61 KCAL/MOL
REMARK 924 INTRA-LIGAND FREE ENERGY PREDICTED BY IDOCK:   -0.33 KCAL/MOL
REMARK 927      BINDING AFFINITY PREDICTED BY RF-SCORE:    0.00 PKD
ROOT
HETATM    1  O   UNL     1      -8.190  18.604  65.736  1.00  0.00    -0.473 OA 
HETATM    2  H   UNL     1      -8.936  18.923  65.242  1.00  0.00     0.000 HD 
HETATM    3  C   UNL     1      -8.196  17.369  66.314  1.00  0.00    -0.253 A  
HETATM    4  C   UNL     1      -7.104  16.903  67.038  1.00  0.00    -0.234 A  
HETATM    5  C   UNL     1      -7.143  15.617  67.586  1.00  0.00    -0.192 A  
HETATM    6  C   UNL     1      -8.270  14.797  67.422  1.00  0.00    -0.216 A  
HETATM    7  C   UNL     1      -9.324  16.578  66.144  1.00  0.00    -0.339 A  
HETATM    8  C   UNL     1      -9.360  15.292  66.692  1.00  0.00    -0.285 A  
ENDROOT
BRANCH   6   9
HETATM    9  C   UNL     1      -8.223  13.417  67.935  1.00  0.00    -0.162 C  
HETATM   10  C   UNL     1      -9.034  12.423  67.538  1.00  0.00    -0.183 C  
BRANCH  10  11
HETATM   11  C   UNL     1      -8.942  11.033  68.019  1.00  0.00    -0.145 A  
HETATM   12  C   UNL     1     -10.052  10.177  68.091  1.00  0.00    -0.178 A  
HETATM   13  C   UNL     1      -9.895   8.868  68.546  1.00  0.00    -0.167 A  
HETATM   14  C   UNL     1      -8.650   8.379  68.919  1.00  0.00    -0.135 A  
HETATM   15  O   UNL     1     -10.958   8.016  68.640  1.00  0.00    -0.419 OA 
HETATM   16  H   UNL     1     -10.851   7.125  68.949  1.00  0.00     0.000 HD 
HETATM   17  C   UNL     1      -7.548   9.219  68.828  1.00  0.00    -0.079 A  
HETATM   18  O   UNL     1      -6.299   8.792  69.175  1.00  0.00    -0.042 OA 
HETATM   19  C   UNL     1      -7.683  10.532  68.380  1.00  0.00    -0.104 A  
HETATM   20  H   UNL     1      -5.546   9.367  69.113  1.00  0.00     0.000 HD 
ENDBRANCH  10  11
ENDBRANCH   6   9
TORSDOF 2
ENDMDL
MODEL      166
REMARK 921   NORMALIZED FREE ENERGY PREDICTED BY IDOCK:   -3.20 KCAL/MOL
REMARK 922        TOTAL FREE ENERGY PREDICTED BY IDOCK:   -3.90 KCAL/MOL
REMARK 923 INTER-LIGAND FREE ENERGY PREDICTED BY IDOCK:   -3.58 KCAL/MOL
REMARK 924 INTRA-LIGAND FREE ENERGY PREDICTED BY IDOCK:   -0.32 KCAL/MOL
REMARK 927      BINDING AFFINITY PREDICTED BY RF-SCORE:    0.00 PKD
ROOT
HETATM    1  O   UNL     1      -5.512   3.214  65.046  1.00  0.00    -0.009 OA 
HETATM    2  H   UNL     1      -4.966   3.215  64.269  1.00  0.00     0.000 HD 
HETATM    3  C   UNL     1      -6.129   4.349  65.484  1.00  0.00    -0.027 A  
HETATM    4  C   UNL     1      -6.927   4.347  66.622  1.00  0.00    -0.059 A  
HETATM    5  C   UNL     1      -7.565   5.528  67.014  1.00  0.00    -0.092 A  
HETATM    6  C   UNL     1      -7.404   6.713  66.280  1.00  0.00    -0.073 A  
HETATM    7  C   UNL     1      -5.950   5.511  64.745  1.00  0.00    -0.022 A  
HETATM    8  C   UNL     1      -6.590   6.690  65.139  1.00  0.00    -0.046 A  
ENDROOT
BRANCH   6   9
HETATM    9  C   UNL     1      -8.173   7.904  66.679  1.00  0.00    -0.119 C  
HETATM   10  C   UNL     1      -8.744   8.770  65.826  1.00  0.00    -0.209 C  
BRANCH  10  11
HETATM   11  C   UNL     1      -9.558   9.928  66.236  1.00  0.00    -0.265 A  
HETATM   12  C   UNL     1     -10.608   9.831  67.163  1.00  0.00    -0.298 A  
HETATM   13  C   UNL     1     -11.334  10.968  67.516  1.00  0.00    -0.257 A  
HETATM   14  C   UNL     1     -11.032  12.213  66.977  1.00  0.00    -0.319 A  
HETATM   15  O   UNL     1     -12.368  10.903  68.405  1.00  0.00    -0.803 OA 
HETATM   16  H   UNL     1     -12.862  11.677  68.645  1.00  0.00     0.000 HD 
HETATM   17  C   UNL     1      -9.980  12.312  66.075  1.00  0.00    -0.252 A  
HETATM   18  O   UNL     1      -9.634  13.509  65.519  1.00  0.00    -0.499 OA 
HETATM   19  C   UNL     1      -9.244  11.188  65.707  1.00  0.00    -0.234 A  
HETATM   20  H   UNL     1      -8.915  13.576  64.902  1.00  0.00     0.000 HD 
ENDBRANCH  10  11
ENDBRANCH   6   9
TORSDOF 2
ENDMDL
MODEL      167
REMARK 921   NORMALIZED FREE ENERGY PREDICTED BY IDOCK:   -3.20 KCAL/MOL
REMARK 922        TOTAL FREE ENERGY PREDICTED BY IDOCK:   -3.90 KCAL/MOL
REMARK 923 INTER-LIGAND FREE ENERGY PREDICTED BY IDOCK:   -3.58 KCAL/MOL
REMARK 924 INTRA-LIGAND FREE ENERGY PREDICTED BY IDOCK:   -0.32 KCAL/MOL
REMARK 927      BINDING AFFINITY PREDICTED BY RF-SCORE:    0.00 PKD
ROOT
HETATM    1  O   UNL     1      -9.108  16.564  68.786  1.00  0.00    -0.237 OA 
HETATM    2  H   UNL     1      -9.968  16.966  68.801  1.00  0.00     0.000 HD 
HETATM    3  C   UNL     1      -8.954  15.216  68.646  1.00  0.00    -0.191 A  
HETATM    4  C   UNL     1      -7.695  14.628  68.624  1.00  0.00    -0.135 A  
HETATM    5  C   UNL     1      -7.587  13.245  68.446  1.00  0.00    -0.137 A  
HETATM    6  C   UNL     1      -8.731  12.445  68.299  1.00  0.00    -0.175 A  
HETATM    7  C   UNL     1     -10.100  14.444  68.508  1.00  0.00    -0.244 A  
HETATM    8  C   UNL     1      -9.989  13.062  68.330  1.00  0.00    -0.235 A  
ENDROOT
BRANCH   6   9
HETATM    9  C   UNL     1      -8.559  11.010  68.018  1.00  0.00    -0.134 C  
HETATM   10  C   UNL     1      -9.512  10.078  68.182  1.00  0.00    -0.148 C  
BRANCH  10  11
HETATM   11  C   UNL     1      -9.347   8.652  67.846  1.00  0.00    -0.155 A  
HETATM   12  C   UNL     1      -8.170   7.937  68.116  1.00  0.00    -0.123 A  
HETATM   13  C   UNL     1      -8.082   6.585  67.781  1.00  0.00    -0.115 A  
HETATM   14  C   UNL     1      -9.149   5.918  67.193  1.00  0.00    -0.113 A  
HETATM   15  O   UNL     1      -6.946   5.867  68.021  1.00  0.00    -0.065 OA 
HETATM   16  H   UNL     1      -6.887   4.947  67.793  1.00  0.00     0.000 HD 
HETATM   17  C   UNL     1     -10.321   6.621  66.943  1.00  0.00    -0.254 A  
HETATM   18  O   UNL     1     -11.403   6.016  66.373  1.00  0.00    -0.732 OA 
HETATM   19  C   UNL     1     -10.428   7.972  67.267  1.00  0.00    -0.384 A  
HETATM   20  H   UNL     1     -12.204   6.497  66.203  1.00  0.00     0.000 HD 
ENDBRANCH  10  11
ENDBRANCH   6   9
TORSDOF 2
ENDMDL
MODEL      168
REMARK 921   NORMALIZED FREE ENERGY PREDICTED BY IDOCK:   -3.19 KCAL/MOL
REMARK 922        TOTAL FREE ENERGY PREDICTED BY IDOCK:   -3.88 KCAL/MOL
REMARK 923 INTER-LIGAND FREE ENERGY PREDICTED BY IDOCK:   -3.55 KCAL/MOL
REMARK 924 INTRA-LIGAND FREE ENERGY PREDICTED BY IDOCK:   -0.33 KCAL/MOL
REMARK 927      BINDING AFFINITY PREDICTED BY RF-SCORE:    0.00 PKD
ROOT
HETATM    1  O   UNL     1      -6.238  10.748  63.998  1.00  0.00    -0.370 OA 
HETATM    2  H   UNL     1      -5.544  11.388  64.102  1.00  0.00     0.000 HD 
HETATM    3  C   UNL     1      -6.723  10.044  65.062  1.00  0.00    -0.128 A  
HETATM    4  C   UNL     1      -7.738   9.108  64.909  1.00  0.00    -0.110 A  
HETATM    5  C   UNL     1      -8.224   8.433  66.034  1.00  0.00    -0.112 A  
HETATM    6  C   UNL     1      -7.694   8.683  67.309  1.00  0.00    -0.097 A  
HETATM    7  C   UNL     1      -6.179  10.304  66.313  1.00  0.00    -0.084 A  
HETATM    8  C   UNL     1      -6.667   9.629  67.436  1.00  0.00    -0.071 A  
ENDROOT
BRANCH   6   9
HETATM    9  C   UNL     1      -8.306   8.019  68.472  1.00  0.00    -0.127 C  
HETATM   10  C   UNL     1      -9.586   8.161  68.852  1.00  0.00    -0.153 C  
BRANCH  10  11
HETATM   11  C   UNL     1     -10.202   7.448  69.985  1.00  0.00    -0.211 A  
HETATM   12  C   UNL     1      -9.977   6.087  70.242  1.00  0.00    -0.236 A  
HETATM   13  C   UNL     1     -10.584   5.475  71.339  1.00  0.00    -0.243 A  
HETATM   14  C   UNL     1     -11.404   6.190  72.202  1.00  0.00    -0.347 A  
HETATM   15  O   UNL     1     -10.394   4.149  71.607  1.00  0.00    -0.113 OA 
HETATM   16  H   UNL     1     -10.807   3.732  72.353  1.00  0.00     0.000 HD 
HETATM   17  C   UNL     1     -11.610   7.542  71.960  1.00  0.00    -0.287 A  
HETATM   18  O   UNL     1     -12.400   8.297  72.777  1.00  0.00    -0.597 OA 
HETATM   19  C   UNL     1     -11.016   8.173  70.868  1.00  0.00    -0.266 A  
HETATM   20  H   UNL     1     -12.541   9.221  72.611  1.00  0.00     0.000 HD 
ENDBRANCH  10  11
ENDBRANCH   6   9
TORSDOF 2
ENDMDL
MODEL      169
REMARK 921   NORMALIZED FREE ENERGY PREDICTED BY IDOCK:   -3.16 KCAL/MOL
REMARK 922        TOTAL FREE ENERGY PREDICTED BY IDOCK:   -3.85 KCAL/MOL
REMARK 923 INTER-LIGAND FREE ENERGY PREDICTED BY IDOCK:   -3.55 KCAL/MOL
REMARK 924 INTRA-LIGAND FREE ENERGY PREDICTED BY IDOCK:   -0.31 KCAL/MOL
REMARK 927      BINDING AFFINITY PREDICTED BY RF-SCORE:    0.00 PKD
ROOT
HETATM    1  O   UNL     1      -5.350   5.485  69.863  1.00  0.00    -0.004 OA 
HETATM    2  H   UNL     1      -4.525   5.732  70.264  1.00  0.00     0.000 HD 
HETATM    3  C   UNL     1      -6.065   6.366  69.105  1.00  0.00    -0.029 A  
HETATM    4  C   UNL     1      -7.272   6.004  68.518  1.00  0.00    -0.084 A  
HETATM    5  C   UNL     1      -7.953   6.931  67.723  1.00  0.00    -0.114 A  
HETATM    6  C   UNL     1      -7.439   8.220  67.517  1.00  0.00    -0.094 A  
HETATM    7  C   UNL     1      -5.539   7.637  68.920  1.00  0.00    -0.023 A  
HETATM    8  C   UNL     1      -6.222   8.562  68.123  1.00  0.00    -0.051 A  
ENDROOT
BRANCH   6   9
HETATM    9  C   UNL     1      -8.144   9.124  66.594  1.00  0.00    -0.111 C  
HETATM   10  C   UNL     1      -8.706  10.292  66.945  1.00  0.00    -0.131 C  
BRANCH  10  11
HETATM   11  C   UNL     1      -9.362  11.217  66.002  1.00  0.00    -0.228 A  
HETATM   12  C   UNL     1     -10.122  10.776  64.908  1.00  0.00    -0.387 A  
HETATM   13  C   UNL     1     -10.726  11.704  64.058  1.00  0.00    -0.384 A  
HETATM   14  C   UNL     1     -10.604  13.069  64.280  1.00  0.00    -0.434 A  
HETATM   15  O   UNL     1     -11.461  11.305  62.979  1.00  0.00    -0.852 OA 
HETATM   16  H   UNL     1     -11.872  11.936  62.401  1.00  0.00     0.000 HD 
HETATM   17  C   UNL     1      -9.868  13.506  65.374  1.00  0.00    -0.117 A  
HETATM   18  O   UNL     1      -9.720  14.834  65.645  1.00  0.00    -0.392 OA 
HETATM   19  C   UNL     1      -9.255  12.595  66.233  1.00  0.00    -0.114 A  
HETATM   20  H   UNL     1      -9.217  15.132  66.393  1.00  0.00     0.000 HD 
ENDBRANCH  10  11
ENDBRANCH   6   9
TORSDOF 2
ENDMDL
MODEL      170
REMARK 921   NORMALIZED FREE ENERGY PREDICTED BY IDOCK:   -3.14 KCAL/MOL
REMARK 922        TOTAL FREE ENERGY PREDICTED BY IDOCK:   -3.82 KCAL/MOL
REMARK 923 INTER-LIGAND FREE ENERGY PREDICTED BY IDOCK:   -3.51 KCAL/MOL
REMARK 924 INTRA-LIGAND FREE ENERGY PREDICTED BY IDOCK:   -0.31 KCAL/MOL
REMARK 927      BINDING AFFINITY PREDICTED BY RF-SCORE:    0.00 PKD
ROOT
HETATM    1  O   UNL     1      -8.777   8.290  74.455  1.00  0.00    -0.361 OA 
HETATM    2  H   UNL     1      -8.899   9.231  74.487  1.00  0.00     0.000 HD 
HETATM    3  C   UNL     1      -8.884   7.597  73.284  1.00  0.00    -0.199 A  
HETATM    4  C   UNL     1      -8.705   6.220  73.238  1.00  0.00    -0.125 A  
HETATM    5  C   UNL     1      -8.793   5.558  72.009  1.00  0.00    -0.137 A  
HETATM    6  C   UNL     1      -9.068   6.264  70.828  1.00  0.00    -0.150 A  
HETATM    7  C   UNL     1      -9.163   8.316  72.130  1.00  0.00    -0.289 A  
HETATM    8  C   UNL     1      -9.250   7.652  70.902  1.00  0.00    -0.150 A  
ENDROOT
BRANCH   6   9
HETATM    9  C   UNL     1      -9.056   5.535  69.548  1.00  0.00    -0.143 C  
HETATM   10  C   UNL     1      -9.298   6.087  68.349  1.00  0.00    -0.120 C  
BRANCH  10  11
HETATM   11  C   UNL     1      -9.229   5.360  67.069  1.00  0.00    -0.113 A  
HETATM   12  C   UNL     1      -8.032   4.839  66.552  1.00  0.00    -0.103 A  
HETATM   13  C   UNL     1      -8.036   4.152  65.338  1.00  0.00    -0.101 A  
HETATM   14  C   UNL     1      -9.212   3.954  64.626  1.00  0.00    -0.148 A  
HETATM   15  O   UNL     1      -6.886   3.645  64.805  1.00  0.00    -0.046 OA 
HETATM   16  H   UNL     1      -6.889   3.177  63.979  1.00  0.00     0.000 HD 
HETATM   17  C   UNL     1     -10.400   4.452  65.147  1.00  0.00    -0.173 A  
HETATM   18  O   UNL     1     -11.586   4.282  64.495  1.00  0.00    -0.798 OA 
HETATM   19  C   UNL     1     -10.417   5.144  66.356  1.00  0.00    -0.356 A  
HETATM   20  H   UNL     1     -12.398   4.623  64.851  1.00  0.00     0.000 HD 
ENDBRANCH  10  11
ENDBRANCH   6   9
TORSDOF 2
ENDMDL
MODEL      171
REMARK 921   NORMALIZED FREE ENERGY PREDICTED BY IDOCK:   -3.06 KCAL/MOL
REMARK 922        TOTAL FREE ENERGY PREDICTED BY IDOCK:   -3.74 KCAL/MOL
REMARK 923 INTER-LIGAND FREE ENERGY PREDICTED BY IDOCK:   -3.41 KCAL/MOL
REMARK 924 INTRA-LIGAND FREE ENERGY PREDICTED BY IDOCK:   -0.33 KCAL/MOL
REMARK 927      BINDING AFFINITY PREDICTED BY RF-SCORE:    0.00 PKD
ROOT
HETATM    1  O   UNL     1     -11.633  16.575  67.512  1.00  0.00     0.153 OA 
HETATM    2  H   UNL     1     -11.093  17.340  67.349  1.00  0.00     0.000 HD 
HETATM    3  C   UNL     1     -11.143  15.312  67.355  1.00  0.00    -0.326 A  
HETATM    4  C   UNL     1     -11.932  14.193  67.593  1.00  0.00    -0.405 A  
HETATM    5  C   UNL     1     -11.377  12.918  67.449  1.00  0.00    -0.355 A  
HETATM    6  C   UNL     1     -10.039  12.754  67.060  1.00  0.00    -0.240 A  
HETATM    7  C   UNL     1      -9.818  15.174  66.963  1.00  0.00    -0.233 A  
HETATM    8  C   UNL     1      -9.265  13.898  66.821  1.00  0.00    -0.267 A  
ENDROOT
BRANCH   6   9
HETATM    9  C   UNL     1      -9.476  11.394  67.017  1.00  0.00    -0.186 C  
HETATM   10  C   UNL     1     -10.201  10.265  66.963  1.00  0.00    -0.282 C  
BRANCH  10  11
HETATM   11  C   UNL     1      -9.627   8.911  66.864  1.00  0.00    -0.248 A  
HETATM   12  C   UNL     1      -9.571   8.026  67.952  1.00  0.00    -0.178 A  
HETATM   13  C   UNL     1      -9.023   6.754  67.789  1.00  0.00    -0.116 A  
HETATM   14  C   UNL     1      -8.538   6.330  66.558  1.00  0.00    -0.128 A  
HETATM   15  O   UNL     1      -8.944   5.876  68.832  1.00  0.00    -0.118 OA 
HETATM   16  H   UNL     1      -8.571   5.010  68.720  1.00  0.00     0.000 HD 
HETATM   17  C   UNL     1      -8.612   7.198  65.476  1.00  0.00    -0.080 A  
HETATM   18  O   UNL     1      -8.157   6.835  64.243  1.00  0.00    -0.213 OA 
HETATM   19  C   UNL     1      -9.153   8.475  65.619  1.00  0.00    -0.189 A  
HETATM   20  H   UNL     1      -8.208   7.429  63.504  1.00  0.00     0.000 HD 
ENDBRANCH  10  11
ENDBRANCH   6   9
TORSDOF 2
ENDMDL
MODEL      172
REMARK 921   NORMALIZED FREE ENERGY PREDICTED BY IDOCK:   -2.96 KCAL/MOL
REMARK 922        TOTAL FREE ENERGY PREDICTED BY IDOCK:   -3.63 KCAL/MOL
REMARK 923 INTER-LIGAND FREE ENERGY PREDICTED BY IDOCK:   -3.31 KCAL/MOL
REMARK 924 INTRA-LIGAND FREE ENERGY PREDICTED BY IDOCK:   -0.32 KCAL/MOL
REMARK 927      BINDING AFFINITY PREDICTED BY RF-SCORE:    0.00 PKD
ROOT
HETATM    1  O   UNL     1      -6.253  11.673  65.736  1.00  0.00    -0.378 OA 
HETATM    2  H   UNL     1      -5.479  12.115  66.062  1.00  0.00     0.000 HD 
HETATM    3  C   UNL     1      -6.914  10.747  66.488  1.00  0.00    -0.130 A  
HETATM    4  C   UNL     1      -8.047  10.100  66.011  1.00  0.00    -0.129 A  
HETATM    5  C   UNL     1      -8.710   9.181  66.831  1.00  0.00    -0.133 A  
HETATM    6  C   UNL     1      -8.241   8.899  68.123  1.00  0.00    -0.114 A  
HETATM    7  C   UNL     1      -6.428  10.480  67.761  1.00  0.00    -0.060 A  
HETATM    8  C   UNL     1      -7.093   9.562  68.580  1.00  0.00    -0.069 A  
ENDROOT
BRANCH   6   9
HETATM    9  C   UNL     1      -9.029   7.998  68.981  1.00  0.00    -0.145 C  
HETATM   10  C   UNL     1      -9.273   8.201  70.286  1.00  0.00    -0.151 C  
BRANCH  10  11
HETATM   11  C   UNL     1     -10.109   7.320  71.122  1.00  0.00    -0.190 A  
HETATM   12  C   UNL     1     -11.510   7.389  71.137  1.00  0.00    -0.303 A  
HETATM   13  C   UNL     1     -12.243   6.520  71.945  1.00  0.00    -0.324 A  
HETATM   14  C   UNL     1     -11.614   5.566  72.734  1.00  0.00    -0.298 A  
HETATM   15  O   UNL     1     -13.607   6.571  71.989  1.00  0.00    -0.426 OA 
HETATM   16  H   UNL     1     -14.106   5.979  72.539  1.00  0.00     0.000 HD 
HETATM   17  C   UNL     1     -10.227   5.484  72.704  1.00  0.00    -0.187 A  
HETATM   18  O   UNL     1      -9.555   4.563  73.453  1.00  0.00    -0.118 OA 
HETATM   19  C   UNL     1      -9.476   6.345  71.906  1.00  0.00    -0.157 A  
HETATM   20  H   UNL     1      -8.608   4.507  73.432  1.00  0.00     0.000 HD 
ENDBRANCH  10  11
ENDBRANCH   6   9
TORSDOF 2
ENDMDL
MODEL      173
REMARK 921   NORMALIZED FREE ENERGY PREDICTED BY IDOCK:   -2.91 KCAL/MOL
REMARK 922        TOTAL FREE ENERGY PREDICTED BY IDOCK:   -3.57 KCAL/MOL
REMARK 923 INTER-LIGAND FREE ENERGY PREDICTED BY IDOCK:   -3.25 KCAL/MOL
REMARK 924 INTRA-LIGAND FREE ENERGY PREDICTED BY IDOCK:   -0.32 KCAL/MOL
REMARK 927      BINDING AFFINITY PREDICTED BY RF-SCORE:    0.00 PKD
ROOT
HETATM    1  O   UNL     1      -8.781   8.283  74.311  1.00  0.00    -0.361 OA 
HETATM    2  H   UNL     1      -8.908   9.224  74.325  1.00  0.00     0.000 HD 
HETATM    3  C   UNL     1      -8.913   7.563  73.160  1.00  0.00    -0.169 A  
HETATM    4  C   UNL     1      -8.729   6.186  73.140  1.00  0.00    -0.120 A  
HETATM    5  C   UNL     1      -8.844   5.495  71.930  1.00  0.00    -0.139 A  
HETATM    6  C   UNL     1      -9.151   6.172  70.740  1.00  0.00    -0.156 A  
HETATM    7  C   UNL     1      -9.224   8.254  71.996  1.00  0.00    -0.270 A  
HETATM    8  C   UNL     1      -9.337   7.561  70.786  1.00  0.00    -0.162 A  
ENDROOT
BRANCH   6   9
HETATM    9  C   UNL     1      -9.165   5.414  69.477  1.00  0.00    -0.152 C  
HETATM   10  C   UNL     1      -9.455   5.934  68.274  1.00  0.00    -0.123 C  
BRANCH  10  11
HETATM   11  C   UNL     1      -9.412   5.179  67.009  1.00  0.00    -0.143 A  
HETATM   12  C   UNL     1     -10.542   4.985  66.199  1.00  0.00    -0.321 A  
HETATM   13  C   UNL     1     -10.432   4.267  65.008  1.00  0.00    -0.165 A  
HETATM   14  C   UNL     1      -9.214   3.746  64.590  1.00  0.00    -0.145 A  
HETATM   15  O   UNL     1     -11.516   4.052  64.206  1.00  0.00    -0.576 OA 
HETATM   16  H   UNL     1     -11.440   3.564  63.395  1.00  0.00     0.000 HD 
HETATM   17  C   UNL     1      -8.091   3.955  65.382  1.00  0.00    -0.097 A  
HETATM   18  O   UNL     1      -6.868   3.473  65.019  1.00  0.00    -0.046 OA 
HETATM   19  C   UNL     1      -8.180   4.667  66.577  1.00  0.00    -0.107 A  
HETATM   20  H   UNL     1      -6.101   3.616  65.560  1.00  0.00     0.000 HD 
ENDBRANCH  10  11
ENDBRANCH   6   9
TORSDOF 2
ENDMDL
MODEL      174
REMARK 921   NORMALIZED FREE ENERGY PREDICTED BY IDOCK:   -2.82 KCAL/MOL
REMARK 922        TOTAL FREE ENERGY PREDICTED BY IDOCK:   -3.47 KCAL/MOL
REMARK 923 INTER-LIGAND FREE ENERGY PREDICTED BY IDOCK:   -3.14 KCAL/MOL
REMARK 924 INTRA-LIGAND FREE ENERGY PREDICTED BY IDOCK:   -0.33 KCAL/MOL
REMARK 927      BINDING AFFINITY PREDICTED BY RF-SCORE:    0.00 PKD
ROOT
HETATM    1  O   UNL     1      -5.988   5.995  63.338  1.00  0.00    -0.021 OA 
HETATM    2  H   UNL     1      -5.883   6.606  62.618  1.00  0.00     0.000 HD 
HETATM    3  C   UNL     1      -6.732   6.310  64.437  1.00  0.00    -0.038 A  
HETATM    4  C   UNL     1      -6.884   5.415  65.489  1.00  0.00    -0.060 A  
HETATM    5  C   UNL     1      -7.683   5.771  66.581  1.00  0.00    -0.100 A  
HETATM    6  C   UNL     1      -8.323   7.019  66.631  1.00  0.00    -0.118 A  
HETATM    7  C   UNL     1      -7.350   7.553  64.467  1.00  0.00    -0.087 A  
HETATM    8  C   UNL     1      -8.149   7.905  65.559  1.00  0.00    -0.130 A  
ENDROOT
BRANCH   6   9
HETATM    9  C   UNL     1      -9.229   7.305  67.756  1.00  0.00    -0.127 C  
HETATM   10  C   UNL     1      -9.422   6.496  68.810  1.00  0.00    -0.128 C  
BRANCH  10  11
HETATM   11  C   UNL     1     -10.290   6.818  69.958  1.00  0.00    -0.225 A  
HETATM   12  C   UNL     1     -11.690   6.841  69.871  1.00  0.00    -0.279 A  
HETATM   13  C   UNL     1     -12.454   7.144  70.999  1.00  0.00    -0.316 A  
HETATM   14  C   UNL     1     -11.856   7.412  72.224  1.00  0.00    -0.307 A  
HETATM   15  O   UNL     1     -13.817   7.187  70.942  1.00  0.00    -0.513 OA 
HETATM   16  H   UNL     1     -14.337   7.393  71.709  1.00  0.00     0.000 HD 
HETATM   17  C   UNL     1     -10.471   7.369  72.314  1.00  0.00    -0.223 A  
HETATM   18  O   UNL     1      -9.829   7.616  73.492  1.00  0.00    -0.298 OA 
HETATM   19  C   UNL     1      -9.689   7.071  71.199  1.00  0.00    -0.173 A  
HETATM   20  H   UNL     1      -8.882   7.587  73.554  1.00  0.00     0.000 HD 
ENDBRANCH  10  11
ENDBRANCH   6   9
TORSDOF 2
ENDMDL
MODEL      175
REMARK 921   NORMALIZED FREE ENERGY PREDICTED BY IDOCK:   -2.81 KCAL/MOL
REMARK 922        TOTAL FREE ENERGY PREDICTED BY IDOCK:   -3.46 KCAL/MOL
REMARK 923 INTER-LIGAND FREE ENERGY PREDICTED BY IDOCK:   -3.14 KCAL/MOL
REMARK 924 INTRA-LIGAND FREE ENERGY PREDICTED BY IDOCK:   -0.32 KCAL/MOL
REMARK 927      BINDING AFFINITY PREDICTED BY RF-SCORE:    0.00 PKD
ROOT
HETATM    1  O   UNL     1     -10.421  14.307  64.011  1.00  0.00    -0.382 OA 
HETATM    2  H   UNL     1     -10.184  15.220  64.126  1.00  0.00     0.000 HD 
HETATM    3  C   UNL     1     -10.110  13.368  64.951  1.00  0.00    -0.233 A  
HETATM    4  C   UNL     1     -10.457  12.033  64.783  1.00  0.00    -0.335 A  
HETATM    5  C   UNL     1     -10.145  11.112  65.788  1.00  0.00    -0.299 A  
HETATM    6  C   UNL     1      -9.480  11.517  66.956  1.00  0.00    -0.193 A  
HETATM    7  C   UNL     1      -9.446  13.791  66.095  1.00  0.00    -0.180 A  
HETATM    8  C   UNL     1      -9.136  12.868  67.099  1.00  0.00    -0.220 A  
ENDROOT
BRANCH   6   9
HETATM    9  C   UNL     1      -9.261  10.527  68.025  1.00  0.00    -0.143 C  
HETATM   10  C   UNL     1      -8.961   9.234  67.823  1.00  0.00    -0.131 C  
BRANCH  10  11
HETATM   11  C   UNL     1      -8.689   8.265  68.900  1.00  0.00    -0.137 A  
HETATM   12  C   UNL     1      -7.552   8.335  69.719  1.00  0.00    -0.092 A  
HETATM   13  C   UNL     1      -7.359   7.391  70.727  1.00  0.00    -0.069 A  
HETATM   14  C   UNL     1      -8.283   6.380  70.954  1.00  0.00    -0.125 A  
HETATM   15  O   UNL     1      -6.256   7.427  71.532  1.00  0.00    -0.036 OA 
HETATM   16  H   UNL     1      -6.125   6.785  72.219  1.00  0.00     0.000 HD 
HETATM   17  C   UNL     1      -9.419   6.322  70.157  1.00  0.00    -0.159 A  
HETATM   18  O   UNL     1     -10.364   5.354  70.337  1.00  0.00    -0.248 OA 
HETATM   19  C   UNL     1      -9.629   7.253  69.142  1.00  0.00    -0.155 A  
HETATM   20  H   UNL     1     -11.140   5.315  69.792  1.00  0.00     0.000 HD 
ENDBRANCH  10  11
ENDBRANCH   6   9
TORSDOF 2
ENDMDL
MODEL      176
REMARK 921   NORMALIZED FREE ENERGY PREDICTED BY IDOCK:   -2.69 KCAL/MOL
REMARK 922        TOTAL FREE ENERGY PREDICTED BY IDOCK:   -3.32 KCAL/MOL
REMARK 923 INTER-LIGAND FREE ENERGY PREDICTED BY IDOCK:   -2.99 KCAL/MOL
REMARK 924 INTRA-LIGAND FREE ENERGY PREDICTED BY IDOCK:   -0.33 KCAL/MOL
REMARK 927      BINDING AFFINITY PREDICTED BY RF-SCORE:    0.00 PKD
ROOT
HETATM    1  O   UNL     1      -5.976   6.002  63.334  1.00  0.00    -0.021 OA 
HETATM    2  H   UNL     1      -5.883   6.576  62.583  1.00  0.00     0.000 HD 
HETATM    3  C   UNL     1      -6.628   6.407  64.462  1.00  0.00    -0.034 A  
HETATM    4  C   UNL     1      -6.764   5.567  65.561  1.00  0.00    -0.041 A  
HETATM    5  C   UNL     1      -7.468   6.015  66.684  1.00  0.00    -0.090 A  
HETATM    6  C   UNL     1      -8.029   7.301  66.717  1.00  0.00    -0.118 A  
HETATM    7  C   UNL     1      -7.169   7.685  64.475  1.00  0.00    -0.076 A  
HETATM    8  C   UNL     1      -7.874   8.130  65.598  1.00  0.00    -0.098 A  
ENDROOT
BRANCH   6   9
HETATM    9  C   UNL     1      -8.842   7.688  67.883  1.00  0.00    -0.126 C  
HETATM   10  C   UNL     1      -9.016   6.935  68.980  1.00  0.00    -0.132 C  
BRANCH  10  11
HETATM   11  C   UNL     1      -9.787   7.356  70.164  1.00  0.00    -0.180 A  
HETATM   12  C   UNL     1      -9.182   7.719  71.377  1.00  0.00    -0.156 A  
HETATM   13  C   UNL     1      -9.970   8.117  72.458  1.00  0.00    -0.302 A  
HETATM   14  C   UNL     1     -11.354   8.179  72.357  1.00  0.00    -0.456 A  
HETATM   15  O   UNL     1      -9.410   8.464  73.654  1.00  0.00    -0.126 OA 
HETATM   16  H   UNL     1      -9.946   8.736  74.389  1.00  0.00     0.000 HD 
HETATM   17  C   UNL     1     -11.951   7.839  71.150  1.00  0.00    -0.291 A  
HETATM   18  O   UNL     1     -13.305   7.887  70.991  1.00  0.00    -0.543 OA 
HETATM   19  C   UNL     1     -11.183   7.435  70.060  1.00  0.00    -0.200 A  
HETATM   20  H   UNL     1     -13.713   7.654  70.166  1.00  0.00     0.000 HD 
ENDBRANCH  10  11
ENDBRANCH   6   9
TORSDOF 2
ENDMDL
MODEL      177
REMARK 921   NORMALIZED FREE ENERGY PREDICTED BY IDOCK:   -2.56 KCAL/MOL
REMARK 922        TOTAL FREE ENERGY PREDICTED BY IDOCK:   -3.18 KCAL/MOL
REMARK 923 INTER-LIGAND FREE ENERGY PREDICTED BY IDOCK:   -2.85 KCAL/MOL
REMARK 924 INTRA-LIGAND FREE ENERGY PREDICTED BY IDOCK:   -0.33 KCAL/MOL
REMARK 927      BINDING AFFINITY PREDICTED BY RF-SCORE:    0.00 PKD
ROOT
HETATM    1  O   UNL     1     -12.103   9.770  71.726  1.00  0.00    -0.390 OA 
HETATM    2  H   UNL     1     -12.638   9.447  72.442  1.00  0.00     0.000 HD 
HETATM    3  C   UNL     1     -11.402   8.920  70.922  1.00  0.00    -0.283 A  
HETATM    4  C   UNL     1     -10.620   9.392  69.875  1.00  0.00    -0.258 A  
HETATM    5  C   UNL     1      -9.944   8.480  69.058  1.00  0.00    -0.197 A  
HETATM    6  C   UNL     1     -10.037   7.099  69.288  1.00  0.00    -0.178 A  
HETATM    7  C   UNL     1     -11.504   7.558  71.173  1.00  0.00    -0.295 A  
HETATM    8  C   UNL     1     -10.828   6.648  70.354  1.00  0.00    -0.316 A  
ENDROOT
BRANCH   6   9
HETATM    9  C   UNL     1      -9.384   6.178  68.342  1.00  0.00    -0.116 C  
HETATM   10  C   UNL     1      -9.213   6.419  67.032  1.00  0.00    -0.136 C  
BRANCH  10  11
HETATM   11  C   UNL     1      -8.509   5.515  66.105  1.00  0.00    -0.122 A  
HETATM   12  C   UNL     1      -7.188   5.733  65.683  1.00  0.00    -0.075 A  
HETATM   13  C   UNL     1      -6.577   4.833  64.811  1.00  0.00    -0.043 A  
HETATM   14  C   UNL     1      -7.244   3.703  64.356  1.00  0.00    -0.059 A  
HETATM   15  O   UNL     1      -5.298   5.025  64.374  1.00  0.00    -0.012 OA 
HETATM   16  H   UNL     1      -4.881   4.412  63.780  1.00  0.00     0.000 HD 
HETATM   17  C   UNL     1      -8.545   3.476  64.790  1.00  0.00    -0.101 A  
HETATM   18  O   UNL     1      -9.247   2.380  64.381  1.00  0.00    -0.120 OA 
HETATM   19  C   UNL     1      -9.175   4.365  65.658  1.00  0.00    -0.148 A  
HETATM   20  H   UNL     1     -10.136   2.225  64.678  1.00  0.00     0.000 HD 
ENDBRANCH  10  11
ENDBRANCH   6   9
TORSDOF 2
ENDMDL
MODEL      178
REMARK 921   NORMALIZED FREE ENERGY PREDICTED BY IDOCK:   -2.54 KCAL/MOL
REMARK 922        TOTAL FREE ENERGY PREDICTED BY IDOCK:   -3.15 KCAL/MOL
REMARK 923 INTER-LIGAND FREE ENERGY PREDICTED BY IDOCK:   -2.82 KCAL/MOL
REMARK 924 INTRA-LIGAND FREE ENERGY PREDICTED BY IDOCK:   -0.33 KCAL/MOL
REMARK 927      BINDING AFFINITY PREDICTED BY RF-SCORE:    0.00 PKD
ROOT
HETATM    1  O   UNL     1     -10.364  13.661  64.692  1.00  0.00    -0.457 OA 
HETATM    2  H   UNL     1     -10.354  14.462  65.202  1.00  0.00     0.000 HD 
HETATM    3  C   UNL     1      -9.851  12.497  65.186  1.00  0.00    -0.113 A  
HETATM    4  C   UNL     1      -9.866  11.324  64.440  1.00  0.00    -0.316 A  
HETATM    5  C   UNL     1      -9.356  10.149  65.000  1.00  0.00    -0.299 A  
HETATM    6  C   UNL     1      -8.824  10.140  66.298  1.00  0.00    -0.163 A  
HETATM    7  C   UNL     1      -9.323  12.514  66.470  1.00  0.00    -0.233 A  
HETATM    8  C   UNL     1      -8.815  11.337  67.028  1.00  0.00    -0.153 A  
ENDROOT
BRANCH   6   9
HETATM    9  C   UNL     1      -8.389   8.858  66.877  1.00  0.00    -0.112 C  
HETATM   10  C   UNL     1      -9.216   7.898  67.322  1.00  0.00    -0.167 C  
BRANCH  10  11
HETATM   11  C   UNL     1      -8.772   6.595  67.849  1.00  0.00    -0.116 A  
HETATM   12  C   UNL     1      -9.551   5.820  68.722  1.00  0.00    -0.156 A  
HETATM   13  C   UNL     1      -9.075   4.590  69.176  1.00  0.00    -0.121 A  
HETATM   14  C   UNL     1      -7.840   4.100  68.770  1.00  0.00    -0.068 A  
HETATM   15  O   UNL     1      -9.805   3.820  70.035  1.00  0.00    -0.181 OA 
HETATM   16  H   UNL     1      -9.481   2.982  70.344  1.00  0.00     0.000 HD 
HETATM   17  C   UNL     1      -7.078   4.858  67.891  1.00  0.00    -0.062 A  
HETATM   18  O   UNL     1      -5.861   4.424  67.453  1.00  0.00    -0.021 OA 
HETATM   19  C   UNL     1      -7.533   6.091  67.427  1.00  0.00    -0.081 A  
HETATM   20  H   UNL     1      -5.339   4.943  66.851  1.00  0.00     0.000 HD 
ENDBRANCH  10  11
ENDBRANCH   6   9
TORSDOF 2
ENDMDL
MODEL      179
REMARK 921   NORMALIZED FREE ENERGY PREDICTED BY IDOCK:   -2.48 KCAL/MOL
REMARK 922        TOTAL FREE ENERGY PREDICTED BY IDOCK:   -3.09 KCAL/MOL
REMARK 923 INTER-LIGAND FREE ENERGY PREDICTED BY IDOCK:   -2.76 KCAL/MOL
REMARK 924 INTRA-LIGAND FREE ENERGY PREDICTED BY IDOCK:   -0.33 KCAL/MOL
REMARK 927      BINDING AFFINITY PREDICTED BY RF-SCORE:    0.00 PKD
ROOT
HETATM    1  O   UNL     1      -6.569  13.284  66.987  1.00  0.00    -0.456 OA 
HETATM    2  H   UNL     1      -5.697  13.649  67.075  1.00  0.00     0.000 HD 
HETATM    3  C   UNL     1      -6.802  11.949  67.139  1.00  0.00    -0.144 A  
HETATM    4  C   UNL     1      -8.079  11.416  67.010  1.00  0.00    -0.157 A  
HETATM    5  C   UNL     1      -8.273  10.045  67.207  1.00  0.00    -0.117 A  
HETATM    6  C   UNL     1      -7.197   9.202  67.523  1.00  0.00    -0.080 A  
HETATM    7  C   UNL     1      -5.721  11.133  67.445  1.00  0.00    -0.052 A  
HETATM    8  C   UNL     1      -5.918   9.763  67.643  1.00  0.00    -0.047 A  
ENDROOT
BRANCH   6   9
HETATM    9  C   UNL     1      -7.470   7.785  67.814  1.00  0.00    -0.104 C  
HETATM   10  C   UNL     1      -8.695   7.243  67.906  1.00  0.00    -0.123 C  
BRANCH  10  11
HETATM   11  C   UNL     1      -8.956   5.812  68.144  1.00  0.00    -0.114 A  
HETATM   12  C   UNL     1      -9.072   5.262  69.429  1.00  0.00    -0.135 A  
HETATM   13  C   UNL     1      -9.330   3.900  69.585  1.00  0.00    -0.176 A  
HETATM   14  C   UNL     1      -9.491   3.066  68.486  1.00  0.00    -0.204 A  
HETATM   15  O   UNL     1      -9.436   3.334  70.824  1.00  0.00    -0.145 OA 
HETATM   16  H   UNL     1      -9.611   2.407  70.929  1.00  0.00     0.000 HD 
HETATM   17  C   UNL     1      -9.396   3.614  67.213  1.00  0.00    -0.202 A  
HETATM   18  O   UNL     1      -9.551   2.845  66.097  1.00  0.00    -0.383 OA 
HETATM   19  C   UNL     1      -9.136   4.971  67.035  1.00  0.00    -0.117 A  
HETATM   20  H   UNL     1      -9.486   3.220  65.227  1.00  0.00     0.000 HD 
ENDBRANCH  10  11
ENDBRANCH   6   9
TORSDOF 2
ENDMDL
MODEL      180
REMARK 921   NORMALIZED FREE ENERGY PREDICTED BY IDOCK:   -2.37 KCAL/MOL
REMARK 922        TOTAL FREE ENERGY PREDICTED BY IDOCK:   -2.96 KCAL/MOL
REMARK 923 INTER-LIGAND FREE ENERGY PREDICTED BY IDOCK:   -2.62 KCAL/MOL
REMARK 924 INTRA-LIGAND FREE ENERGY PREDICTED BY IDOCK:   -0.34 KCAL/MOL
REMARK 927      BINDING AFFINITY PREDICTED BY RF-SCORE:    0.00 PKD
ROOT
HETATM    1  O   UNL     1      -9.723   7.504  74.122  1.00  0.00    -0.402 OA 
HETATM    2  H   UNL     1     -10.257   6.941  74.669  1.00  0.00     0.000 HD 
HETATM    3  C   UNL     1      -9.540   7.242  72.796  1.00  0.00    -0.158 A  
HETATM    4  C   UNL     1      -8.760   8.066  71.995  1.00  0.00    -0.197 A  
HETATM    5  C   UNL     1      -8.627   7.774  70.633  1.00  0.00    -0.127 A  
HETATM    6  C   UNL     1      -9.263   6.658  70.070  1.00  0.00    -0.158 A  
HETATM    7  C   UNL     1     -10.174   6.128  72.262  1.00  0.00    -0.210 A  
HETATM    8  C   UNL     1     -10.041   5.839  70.900  1.00  0.00    -0.256 A  
ENDROOT
BRANCH   6   9
HETATM    9  C   UNL     1      -9.170   6.449  68.615  1.00  0.00    -0.125 C  
HETATM   10  C   UNL     1      -8.510   7.253  67.766  1.00  0.00    -0.121 C  
BRANCH  10  11
HETATM   11  C   UNL     1      -8.377   7.005  66.319  1.00  0.00    -0.129 A  
HETATM   12  C   UNL     1      -8.264   8.039  65.376  1.00  0.00    -0.152 A  
HETATM   13  C   UNL     1      -8.131   7.735  64.021  1.00  0.00    -0.062 A  
HETATM   14  C   UNL     1      -8.093   6.420  63.577  1.00  0.00    -0.029 A  
HETATM   15  O   UNL     1      -8.031   8.719  63.080  1.00  0.00    -0.144 OA 
HETATM   16  H   UNL     1      -7.941   8.513  62.157  1.00  0.00     0.000 HD 
HETATM   17  C   UNL     1      -8.185   5.396  64.512  1.00  0.00    -0.133 A  
HETATM   18  O   UNL     1      -8.147   4.086  64.135  1.00  0.00    -0.088 OA 
HETATM   19  C   UNL     1      -8.321   5.678  65.870  1.00  0.00    -0.128 A  
HETATM   20  H   UNL     1      -8.210   3.387  64.775  1.00  0.00     0.000 HD 
ENDBRANCH  10  11
ENDBRANCH   6   9
TORSDOF 2
ENDMDL
MODEL      181
REMARK 921   NORMALIZED FREE ENERGY PREDICTED BY IDOCK:   -2.24 KCAL/MOL
REMARK 922        TOTAL FREE ENERGY PREDICTED BY IDOCK:   -2.83 KCAL/MOL
REMARK 923 INTER-LIGAND FREE ENERGY PREDICTED BY IDOCK:   -2.51 KCAL/MOL
REMARK 924 INTRA-LIGAND FREE ENERGY PREDICTED BY IDOCK:   -0.32 KCAL/MOL
REMARK 927      BINDING AFFINITY PREDICTED BY RF-SCORE:    0.00 PKD
ROOT
HETATM    1  O   UNL     1      -8.848   8.470  73.435  1.00  0.00    -0.301 OA 
HETATM    2  H   UNL     1      -9.198   9.274  73.800  1.00  0.00     0.000 HD 
HETATM    3  C   UNL     1      -8.958   8.185  72.105  1.00  0.00    -0.184 A  
HETATM    4  C   UNL     1      -8.446   7.009  71.571  1.00  0.00    -0.116 A  
HETATM    5  C   UNL     1      -8.555   6.775  70.197  1.00  0.00    -0.140 A  
HETATM    6  C   UNL     1      -9.182   7.706  69.355  1.00  0.00    -0.149 A  
HETATM    7  C   UNL     1      -9.587   9.118  71.293  1.00  0.00    -0.331 A  
HETATM    8  C   UNL     1      -9.695   8.883  69.918  1.00  0.00    -0.185 A  
ENDROOT
BRANCH   6   9
HETATM    9  C   UNL     1      -9.185   7.458  67.903  1.00  0.00    -0.132 C  
HETATM   10  C   UNL     1      -8.119   7.595  67.099  1.00  0.00    -0.118 C  
BRANCH  10  11
HETATM   11  C   UNL     1      -8.119   7.291  65.656  1.00  0.00    -0.133 A  
HETATM   12  C   UNL     1      -8.123   5.980  65.155  1.00  0.00    -0.132 A  
HETATM   13  C   UNL     1      -8.133   5.761  63.777  1.00  0.00    -0.108 A  
HETATM   14  C   UNL     1      -8.155   6.820  62.878  1.00  0.00    -0.038 A  
HETATM   15  O   UNL     1      -8.124   4.497  63.259  1.00  0.00    -0.083 OA 
HETATM   16  H   UNL     1      -8.131   4.348  62.322  1.00  0.00     0.000 HD 
HETATM   17  C   UNL     1      -8.172   8.117  63.375  1.00  0.00    -0.062 A  
HETATM   18  O   UNL     1      -8.201   9.196  62.541  1.00  0.00    -0.142 OA 
HETATM   19  C   UNL     1      -8.159   8.358  64.748  1.00  0.00    -0.155 A  
HETATM   20  H   UNL     1      -8.212  10.082  62.881  1.00  0.00     0.000 HD 
ENDBRANCH  10  11
ENDBRANCH   6   9
TORSDOF 2
ENDMDL
MODEL      182
REMARK 921   NORMALIZED FREE ENERGY PREDICTED BY IDOCK:   -2.06 KCAL/MOL
REMARK 922        TOTAL FREE ENERGY PREDICTED BY IDOCK:   -2.62 KCAL/MOL
REMARK 923 INTER-LIGAND FREE ENERGY PREDICTED BY IDOCK:   -2.30 KCAL/MOL
REMARK 924 INTRA-LIGAND FREE ENERGY PREDICTED BY IDOCK:   -0.32 KCAL/MOL
REMARK 927      BINDING AFFINITY PREDICTED BY RF-SCORE:    0.00 PKD
ROOT
HETATM    1  O   UNL     1      -6.406  11.645  65.844  1.00  0.00    -0.403 OA 
HETATM    2  H   UNL     1      -5.698  12.230  66.088  1.00  0.00     0.000 HD 
HETATM    3  C   UNL     1      -6.861  10.685  66.699  1.00  0.00    -0.114 A  
HETATM    4  C   UNL     1      -7.896   9.829  66.342  1.00  0.00    -0.106 A  
HETATM    5  C   UNL     1      -8.350   8.880  67.264  1.00  0.00    -0.104 A  
HETATM    6  C   UNL     1      -7.770   8.776  68.537  1.00  0.00    -0.099 A  
HETATM    7  C   UNL     1      -6.268  10.597  67.951  1.00  0.00    -0.054 A  
HETATM    8  C   UNL     1      -6.724   9.648  68.871  1.00  0.00    -0.046 A  
ENDROOT
BRANCH   6   9
HETATM    9  C   UNL     1      -8.348   7.827  69.504  1.00  0.00    -0.129 C  
HETATM   10  C   UNL     1      -8.038   6.523  69.577  1.00  0.00    -0.118 C  
BRANCH  10  11
HETATM   11  C   UNL     1      -8.581   5.594  70.584  1.00  0.00    -0.130 A  
HETATM   12  C   UNL     1      -8.992   4.288  70.273  1.00  0.00    -0.147 A  
HETATM   13  C   UNL     1      -9.489   3.455  71.276  1.00  0.00    -0.154 A  
HETATM   14  C   UNL     1      -9.575   3.886  72.593  1.00  0.00    -0.188 A  
HETATM   15  O   UNL     1      -9.907   2.185  71.001  1.00  0.00    -0.121 OA 
HETATM   16  H   UNL     1     -10.246   1.618  71.683  1.00  0.00     0.000 HD 
HETATM   17  C   UNL     1      -9.150   5.171  72.905  1.00  0.00    -0.122 A  
HETATM   18  O   UNL     1      -9.204   5.646  74.183  1.00  0.00    -0.124 OA 
HETATM   19  C   UNL     1      -8.653   6.020  71.918  1.00  0.00    -0.137 A  
HETATM   20  H   UNL     1      -8.914   6.524  74.395  1.00  0.00     0.000 HD 
ENDBRANCH  10  11
ENDBRANCH   6   9
TORSDOF 2
ENDMDL
MODEL      183
REMARK 921   NORMALIZED FREE ENERGY PREDICTED BY IDOCK:   -2.03 KCAL/MOL
REMARK 922        TOTAL FREE ENERGY PREDICTED BY IDOCK:   -2.59 KCAL/MOL
REMARK 923 INTER-LIGAND FREE ENERGY PREDICTED BY IDOCK:   -2.28 KCAL/MOL
REMARK 924 INTRA-LIGAND FREE ENERGY PREDICTED BY IDOCK:   -0.31 KCAL/MOL
REMARK 927      BINDING AFFINITY PREDICTED BY RF-SCORE:    0.00 PKD
ROOT
HETATM    1  O   UNL     1      -6.253  11.461  65.760  1.00  0.00    -0.391 OA 
HETATM    2  H   UNL     1      -5.562  11.976  66.159  1.00  0.00     0.000 HD 
HETATM    3  C   UNL     1      -6.784  10.374  66.390  1.00  0.00    -0.107 A  
HETATM    4  C   UNL     1      -7.795   9.620  65.806  1.00  0.00    -0.106 A  
HETATM    5  C   UNL     1      -8.330   8.533  66.503  1.00  0.00    -0.113 A  
HETATM    6  C   UNL     1      -7.855   8.190  67.778  1.00  0.00    -0.118 A  
HETATM    7  C   UNL     1      -6.294  10.050  67.647  1.00  0.00    -0.059 A  
HETATM    8  C   UNL     1      -6.832   8.963  68.344  1.00  0.00    -0.065 A  
ENDROOT
BRANCH   6   9
HETATM    9  C   UNL     1      -8.518   7.097  68.511  1.00  0.00    -0.125 C  
HETATM   10  C   UNL     1      -7.884   6.185  69.265  1.00  0.00    -0.104 C  
BRANCH  10  11
HETATM   11  C   UNL     1      -8.562   5.128  70.038  1.00  0.00    -0.109 A  
HETATM   12  C   UNL     1      -9.017   5.319  71.352  1.00  0.00    -0.156 A  
HETATM   13  C   UNL     1      -9.660   4.280  72.025  1.00  0.00    -0.150 A  
HETATM   14  C   UNL     1      -9.878   3.051  71.415  1.00  0.00    -0.173 A  
HETATM   15  O   UNL     1     -10.103   4.432  73.308  1.00  0.00    -0.140 OA 
HETATM   16  H   UNL     1     -10.541   3.724  73.766  1.00  0.00     0.000 HD 
HETATM   17  C   UNL     1      -9.445   2.869  70.107  1.00  0.00    -0.127 A  
HETATM   18  O   UNL     1      -9.637   1.686  69.455  1.00  0.00    -0.086 OA 
HETATM   19  C   UNL     1      -8.798   3.893  69.418  1.00  0.00    -0.148 A  
HETATM   20  H   UNL     1      -9.341   1.562  68.561  1.00  0.00     0.000 HD 
ENDBRANCH  10  11
ENDBRANCH   6   9
TORSDOF 2
ENDMDL
MODEL      184
REMARK 921   NORMALIZED FREE ENERGY PREDICTED BY IDOCK:   -1.78 KCAL/MOL
REMARK 922        TOTAL FREE ENERGY PREDICTED BY IDOCK:   -2.31 KCAL/MOL
REMARK 923 INTER-LIGAND FREE ENERGY PREDICTED BY IDOCK:   -1.99 KCAL/MOL
REMARK 924 INTRA-LIGAND FREE ENERGY PREDICTED BY IDOCK:   -0.32 KCAL/MOL
REMARK 927      BINDING AFFINITY PREDICTED BY RF-SCORE:    0.00 PKD
ROOT
HETATM    1  O   UNL     1     -12.177  10.667  72.131  1.00  0.00     0.186 OA 
HETATM    2  H   UNL     1     -12.770  10.221  72.724  1.00  0.00     0.000 HD 
HETATM    3  C   UNL     1     -11.588  10.012  71.089  1.00  0.00    -0.378 A  
HETATM    4  C   UNL     1     -10.720  10.664  70.221  1.00  0.00    -0.063 A  
HETATM    5  C   UNL     1     -10.164   9.960  69.148  1.00  0.00    -0.218 A  
HETATM    6  C   UNL     1     -10.465   8.605  68.943  1.00  0.00    -0.211 A  
HETATM    7  C   UNL     1     -11.895   8.671  70.909  1.00  0.00    -0.257 A  
HETATM    8  C   UNL     1     -11.340   7.968  69.834  1.00  0.00     0.052 A  
ENDROOT
BRANCH   6   9
HETATM    9  C   UNL     1      -9.931   7.935  67.744  1.00  0.00    -0.221 C  
HETATM   10  C   UNL     1      -8.907   7.066  67.744  1.00  0.00    -0.123 C  
BRANCH  10  11
HETATM   11  C   UNL     1      -8.417   6.360  66.547  1.00  0.00    -0.118 A  
HETATM   12  C   UNL     1      -8.337   4.961  66.467  1.00  0.00    -0.107 A  
HETATM   13  C   UNL     1      -7.872   4.354  65.300  1.00  0.00    -0.086 A  
HETATM   14  C   UNL     1      -7.496   5.108  64.196  1.00  0.00    -0.065 A  
HETATM   15  O   UNL     1      -7.772   2.996  65.198  1.00  0.00    -0.079 OA 
HETATM   16  H   UNL     1      -7.455   2.583  64.404  1.00  0.00     0.000 HD 
HETATM   17  C   UNL     1      -7.594   6.492  64.267  1.00  0.00    -0.100 A  
HETATM   18  O   UNL     1      -7.245   7.283  63.212  1.00  0.00    -0.065 OA 
HETATM   19  C   UNL     1      -8.053   7.118  65.425  1.00  0.00    -0.137 A  
HETATM   20  H   UNL     1      -7.312   8.229  63.262  1.00  0.00     0.000 HD 
ENDBRANCH  10  11
ENDBRANCH   6   9
TORSDOF 2
ENDMDL
MODEL      185
REMARK 921   NORMALIZED FREE ENERGY PREDICTED BY IDOCK:   -1.39 KCAL/MOL
REMARK 922        TOTAL FREE ENERGY PREDICTED BY IDOCK:   -1.87 KCAL/MOL
REMARK 923 INTER-LIGAND FREE ENERGY PREDICTED BY IDOCK:   -1.54 KCAL/MOL
REMARK 924 INTRA-LIGAND FREE ENERGY PREDICTED BY IDOCK:   -0.33 KCAL/MOL
REMARK 927      BINDING AFFINITY PREDICTED BY RF-SCORE:    0.00 PKD
ROOT
HETATM    1  O   UNL     1     -12.092  16.848  67.305  1.00  0.00     1.397 OA 
HETATM    2  H   UNL     1     -11.694  17.694  67.142  1.00  0.00     0.000 HD 
HETATM    3  C   UNL     1     -11.398  15.688  67.119  1.00  0.00    -0.082 A  
HETATM    4  C   UNL     1     -11.980  14.449  67.358  1.00  0.00    -0.407 A  
HETATM    5  C   UNL     1     -11.220  13.288  67.184  1.00  0.00    -0.327 A  
HETATM    6  C   UNL     1      -9.883  13.359  66.764  1.00  0.00    -0.265 A  
HETATM    7  C   UNL     1     -10.079  15.782  66.697  1.00  0.00    -0.287 A  
HETATM    8  C   UNL     1      -9.320  14.620  66.524  1.00  0.00    -0.313 A  
ENDROOT
BRANCH   6   9
HETATM    9  C   UNL     1      -9.098  12.115  66.689  1.00  0.00    -0.206 C  
HETATM   10  C   UNL     1      -9.619  10.878  66.693  1.00  0.00    -0.213 C  
BRANCH  10  11
HETATM   11  C   UNL     1      -8.828   9.641  66.561  1.00  0.00    -0.158 A  
HETATM   12  C   UNL     1      -7.894   9.439  65.533  1.00  0.00    -0.103 A  
HETATM   13  C   UNL     1      -7.170   8.248  65.472  1.00  0.00    -0.071 A  
HETATM   14  C   UNL     1      -7.341   7.251  66.423  1.00  0.00    -0.080 A  
HETATM   15  O   UNL     1      -6.264   8.019  64.477  1.00  0.00    -0.052 OA 
HETATM   16  H   UNL     1      -5.772   7.208  64.435  1.00  0.00     0.000 HD 
HETATM   17  C   UNL     1      -8.251   7.459  67.452  1.00  0.00    -0.113 A  
HETATM   18  O   UNL     1      -8.456   6.517  68.418  1.00  0.00    -0.120 OA 
HETATM   19  C   UNL     1      -8.986   8.640  67.530  1.00  0.00    -0.143 A  
HETATM   20  H   UNL     1      -9.078   6.660  69.121  1.00  0.00     0.000 HD 
ENDBRANCH  10  11
ENDBRANCH   6   9
TORSDOF 2
ENDMDL
MODEL      186
REMARK 921   NORMALIZED FREE ENERGY PREDICTED BY IDOCK:   -0.19 KCAL/MOL
REMARK 922        TOTAL FREE ENERGY PREDICTED BY IDOCK:   -0.53 KCAL/MOL
REMARK 923 INTER-LIGAND FREE ENERGY PREDICTED BY IDOCK:   -0.19 KCAL/MOL
REMARK 924 INTRA-LIGAND FREE ENERGY PREDICTED BY IDOCK:   -0.34 KCAL/MOL
REMARK 927      BINDING AFFINITY PREDICTED BY RF-SCORE:    0.00 PKD
ROOT
HETATM    1  O   UNL     1     -13.283  16.930  74.467  1.00  0.00    -0.179 OA 
HETATM    2  H   UNL     1     -12.765  17.446  75.073  1.00  0.00     0.000 HD 
HETATM    3  C   UNL     1     -12.746  16.432  73.316  1.00  0.00    -0.297 A  
HETATM    4  C   UNL     1     -13.504  15.676  72.430  1.00  0.00    -0.604 A  
HETATM    5  C   UNL     1     -12.902  15.160  71.279  1.00  0.00    -0.461 A  
HETATM    6  C   UNL     1     -11.547  15.402  71.003  1.00  0.00    -0.410 A  
HETATM    7  C   UNL     1     -11.406  16.690  73.062  1.00  0.00     0.803 A  
HETATM    8  C   UNL     1     -10.805  16.172  71.910  1.00  0.00     0.963 A  
ENDROOT
BRANCH   6   9
HETATM    9  C   UNL     1     -10.937  14.757  69.829  1.00  0.00    -0.261 C  
HETATM   10  C   UNL     1     -10.128  13.686  69.876  1.00  0.00     1.310 C  
BRANCH  10  11
HETATM   11  C   UNL     1      -9.566  13.014  68.690  1.00  0.00    -0.029 A  
HETATM   12  C   UNL     1      -8.523  12.079  68.767  1.00  0.00     0.065 A  
HETATM   13  C   UNL     1      -8.044  11.471  67.606  1.00  0.00    -0.130 A  
HETATM   14  C   UNL     1      -8.590  11.761  66.363  1.00  0.00    -0.113 A  
HETATM   15  O   UNL     1      -7.022  10.567  67.649  1.00  0.00    -0.077 OA 
HETATM   16  H   UNL     1      -6.696  10.153  66.858  1.00  0.00     0.000 HD 
HETATM   17  C   UNL     1      -9.636  12.672  66.289  1.00  0.00    -0.244 A  
HETATM   18  O   UNL     1     -10.216  12.991  65.096  1.00  0.00    -0.297 OA 
HETATM   19  C   UNL     1     -10.127  13.293  67.436  1.00  0.00    -0.233 A  
HETATM   20  H   UNL     1     -10.931  13.614  65.046  1.00  0.00     0.000 HD 
ENDBRANCH  10  11
ENDBRANCH   6   9
TORSDOF 2
ENDMDL
MODEL      187
REMARK 921   NORMALIZED FREE ENERGY PREDICTED BY IDOCK:    0.56 KCAL/MOL
REMARK 922        TOTAL FREE ENERGY PREDICTED BY IDOCK:    0.30 KCAL/MOL
REMARK 923 INTER-LIGAND FREE ENERGY PREDICTED BY IDOCK:    0.63 KCAL/MOL
REMARK 924 INTRA-LIGAND FREE ENERGY PREDICTED BY IDOCK:   -0.33 KCAL/MOL
REMARK 927      BINDING AFFINITY PREDICTED BY RF-SCORE:    0.00 PKD
ROOT
HETATM    1  O   UNL     1     -10.826   4.803  69.597  1.00  0.00     0.348 OA 
HETATM    2  H   UNL     1     -10.967   4.522  70.493  1.00  0.00     0.000 HD 
HETATM    3  C   UNL     1     -10.614   6.115  69.288  1.00  0.00    -0.285 A  
HETATM    4  C   UNL     1     -10.407   6.527  67.976  1.00  0.00    -0.226 A  
HETATM    5  C   UNL     1     -10.163   7.878  67.712  1.00  0.00    -0.276 A  
HETATM    6  C   UNL     1     -10.133   8.822  68.750  1.00  0.00    -0.213 A  
HETATM    7  C   UNL     1     -10.595   7.032  70.330  1.00  0.00    -0.244 A  
HETATM    8  C   UNL     1     -10.349   8.382  70.063  1.00  0.00    -0.211 A  
ENDROOT
BRANCH   6   9
HETATM    9  C   UNL     1      -9.776  10.214  68.430  1.00  0.00    -0.157 C  
HETATM   10  C   UNL     1      -8.662  10.836  68.850  1.00  0.00    -0.154 C  
BRANCH  10  11
HETATM   11  C   UNL     1      -8.288  12.213  68.478  1.00  0.00    -0.093 A  
HETATM   12  C   UNL     1      -7.715  13.118  69.385  1.00  0.00     0.591 A  
HETATM   13  C   UNL     1      -7.374  14.404  68.967  1.00  0.00    -0.127 A  
HETATM   14  C   UNL     1      -7.578  14.813  67.655  1.00  0.00    -0.193 A  
HETATM   15  O   UNL     1      -6.826  15.310  69.829  1.00  0.00    -0.174 OA 
HETATM   16  H   UNL     1      -6.595  16.185  69.544  1.00  0.00     0.000 HD 
HETATM   17  C   UNL     1      -8.127  13.911  66.752  1.00  0.00     0.312 A  
HETATM   18  O   UNL     1      -8.343  14.254  65.450  1.00  0.00     1.918 OA 
HETATM   19  C   UNL     1      -8.477  12.622  67.150  1.00  0.00    -0.186 A  
HETATM   20  H   UNL     1      -8.719  13.638  64.833  1.00  0.00     0.000 HD 
ENDBRANCH  10  11
ENDBRANCH   6   9
TORSDOF 2
ENDMDL
MODEL      188
REMARK 921   NORMALIZED FREE ENERGY PREDICTED BY IDOCK:    4.46 KCAL/MOL
REMARK 922        TOTAL FREE ENERGY PREDICTED BY IDOCK:    4.67 KCAL/MOL
REMARK 923 INTER-LIGAND FREE ENERGY PREDICTED BY IDOCK:    5.01 KCAL/MOL
REMARK 924 INTRA-LIGAND FREE ENERGY PREDICTED BY IDOCK:   -0.34 KCAL/MOL
REMARK 927      BINDING AFFINITY PREDICTED BY RF-SCORE:    0.00 PKD
ROOT
HETATM    1  O   UNL     1     -12.584  10.608  65.259  1.00  0.00     3.506 OA 
HETATM    2  H   UNL     1     -13.227  11.299  65.363  1.00  0.00     0.000 HD 
HETATM    3  C   UNL     1     -11.753  10.250  66.280  1.00  0.00     2.256 A  
HETATM    4  C   UNL     1     -10.812   9.238  66.127  1.00  0.00     0.742 A  
HETATM    5  C   UNL     1     -10.003   8.885  67.211  1.00  0.00    -0.277 A  
HETATM    6  C   UNL     1     -10.123   9.542  68.445  1.00  0.00    -0.199 A  
HETATM    7  C   UNL     1     -11.885  10.919  67.489  1.00  0.00     0.327 A  
HETATM    8  C   UNL     1     -11.076  10.562  68.572  1.00  0.00    -0.329 A  
ENDROOT
BRANCH   6   9
HETATM    9  C   UNL     1      -9.316   9.067  69.582  1.00  0.00    -0.169 C  
HETATM   10  C   UNL     1      -8.242   8.268  69.479  1.00  0.00    -0.119 C  
BRANCH  10  11
HETATM   11  C   UNL     1      -7.408   7.843  70.618  1.00  0.00    -0.061 A  
HETATM   12  C   UNL     1      -6.716   6.622  70.643  1.00  0.00    -0.057 A  
HETATM   13  C   UNL     1      -5.936   6.285  71.748  1.00  0.00    -0.036 A  
HETATM   14  C   UNL     1      -5.813   7.143  72.833  1.00  0.00    -0.041 A  
HETATM   15  O   UNL     1      -5.262   5.099  71.806  1.00  0.00    -0.004 OA 
HETATM   16  H   UNL     1      -4.731   4.869  72.559  1.00  0.00     0.000 HD 
HETATM   17  C   UNL     1      -6.482   8.361  72.801  1.00  0.00    -0.094 A  
HETATM   18  O   UNL     1      -6.393   9.246  73.834  1.00  0.00    -0.336 OA 
HETATM   19  C   UNL     1      -7.269   8.716  71.707  1.00  0.00    -0.103 A  
HETATM   20  H   UNL     1      -6.851  10.078  73.811  1.00  0.00     0.000 HD 
ENDBRANCH  10  11
ENDBRANCH   6   9
TORSDOF 2
ENDMDL
MODEL      189
REMARK 921   NORMALIZED FREE ENERGY PREDICTED BY IDOCK:    5.31 KCAL/MOL
REMARK 922        TOTAL FREE ENERGY PREDICTED BY IDOCK:    5.61 KCAL/MOL
REMARK 923 INTER-LIGAND FREE ENERGY PREDICTED BY IDOCK:    5.96 KCAL/MOL
REMARK 924 INTRA-LIGAND FREE ENERGY PREDICTED BY IDOCK:   -0.35 KCAL/MOL
REMARK 927      BINDING AFFINITY PREDICTED BY RF-SCORE:    0.00 PKD
ROOT
HETATM    1  O   UNL     1     -10.160   7.686  72.403  1.00  0.00    -0.186 OA 
HETATM    2  H   UNL     1      -9.720   6.849  72.318  1.00  0.00     0.000 HD 
HETATM    3  C   UNL     1      -9.757   8.777  71.690  1.00  0.00    -0.296 A  
HETATM    4  C   UNL     1     -10.402  10.002  71.815  1.00  0.00     1.750 A  
HETATM    5  C   UNL     1      -9.973  11.085  71.040  1.00  0.00     4.005 A  
HETATM    6  C   UNL     1      -8.898  10.952  70.148  1.00  0.00     1.412 A  
HETATM    7  C   UNL     1      -8.688   8.624  70.819  1.00  0.00    -0.202 A  
HETATM    8  C   UNL     1      -8.261   9.707  70.044  1.00  0.00    -0.197 A  
ENDROOT
BRANCH   6   9
HETATM    9  C   UNL     1      -8.548  12.094  69.286  1.00  0.00     0.782 C  
HETATM   10  C   UNL     1      -9.436  12.920  68.710  1.00  0.00     0.110 C  
BRANCH  10  11
HETATM   11  C   UNL     1      -9.073  14.093  67.894  1.00  0.00    -0.189 A  
HETATM   12  C   UNL     1     -10.020  15.014  67.421  1.00  0.00    -0.226 A  
HETATM   13  C   UNL     1      -9.609  16.109  66.661  1.00  0.00    -0.244 A  
HETATM   14  C   UNL     1      -8.268  16.322  66.369  1.00  0.00    -0.354 A  
HETATM   15  O   UNL     1     -10.509  17.015  66.176  1.00  0.00    -0.324 OA 
HETATM   16  H   UNL     1     -10.229  17.760  65.659  1.00  0.00     0.000 HD 
HETATM   17  C   UNL     1      -7.328  15.421  66.854  1.00  0.00     0.051 A  
HETATM   18  O   UNL     1      -5.997  15.582  66.606  1.00  0.00     0.262 OA 
HETATM   19  C   UNL     1      -7.718  14.319  67.613  1.00  0.00    -0.190 A  
HETATM   20  H   UNL     1      -5.355  14.966  66.937  1.00  0.00     0.000 HD 
ENDBRANCH  10  11
ENDBRANCH   6   9
TORSDOF 2
ENDMDL
MODEL      190
REMARK 921   NORMALIZED FREE ENERGY PREDICTED BY IDOCK:   10.03 KCAL/MOL
REMARK 922        TOTAL FREE ENERGY PREDICTED BY IDOCK:   10.89 KCAL/MOL
REMARK 923 INTER-LIGAND FREE ENERGY PREDICTED BY IDOCK:   11.22 KCAL/MOL
REMARK 924 INTRA-LIGAND FREE ENERGY PREDICTED BY IDOCK:   -0.33 KCAL/MOL
REMARK 927      BINDING AFFINITY PREDICTED BY RF-SCORE:    0.00 PKD
ROOT
HETATM    1  O   UNL     1     -12.725  10.448  64.853  1.00  0.00     4.671 OA 
HETATM    2  H   UNL     1     -13.465  11.040  64.791  1.00  0.00     0.000 HD 
HETATM    3  C   UNL     1     -12.055  10.268  66.027  1.00  0.00     4.567 A  
HETATM    4  C   UNL     1     -10.972   9.402  66.118  1.00  0.00     0.906 A  
HETATM    5  C   UNL     1     -10.335   9.226  67.351  1.00  0.00    -0.327 A  
HETATM    6  C   UNL     1     -10.770   9.918  68.492  1.00  0.00    -0.260 A  
HETATM    7  C   UNL     1     -12.498  10.968  67.141  1.00  0.00     3.112 A  
HETATM    8  C   UNL     1     -11.861  10.790  68.373  1.00  0.00    -0.126 A  
ENDROOT
BRANCH   6   9
HETATM    9  C   UNL     1     -10.128   9.625  69.785  1.00  0.00    -0.258 C  
HETATM   10  C   UNL     1      -8.958   8.983  69.932  1.00  0.00    -0.170 C  
BRANCH  10  11
HETATM   11  C   UNL     1      -8.298   8.744  71.228  1.00  0.00    -0.225 A  
HETATM   12  C   UNL     1      -7.065   9.319  71.572  1.00  0.00     0.091 A  
HETATM   13  C   UNL     1      -6.498   9.059  72.820  1.00  0.00     0.179 A  
HETATM   14  C   UNL     1      -7.138   8.247  73.748  1.00  0.00    -0.170 A  
HETATM   15  O   UNL     1      -5.294   9.594  73.179  1.00  0.00    -0.235 OA 
HETATM   16  H   UNL     1      -4.909   9.417  74.028  1.00  0.00     0.000 HD 
HETATM   17  C   UNL     1      -8.368   7.694  73.415  1.00  0.00    -0.158 A  
HETATM   18  O   UNL     1      -9.046   6.894  74.288  1.00  0.00    -0.179 OA 
HETATM   19  C   UNL     1      -8.950   7.939  72.172  1.00  0.00    -0.199 A  
HETATM   20  H   UNL     1      -9.887   6.516  74.059  1.00  0.00     0.000 HD 
ENDBRANCH  10  11
ENDBRANCH   6   9
TORSDOF 2
ENDMDL
