MODEL        1
REMARK 921   NORMALIZED FREE ENERGY PREDICTED BY IDOCK:   -6.79 KCAL/MOL
REMARK 922        TOTAL FREE ENERGY PREDICTED BY IDOCK:  -10.92 KCAL/MOL
REMARK 923 INTER-LIGAND FREE ENERGY PREDICTED BY IDOCK:   -9.17 KCAL/MOL
REMARK 924 INTRA-LIGAND FREE ENERGY PREDICTED BY IDOCK:   -1.75 KCAL/MOL
REMARK 927      BINDING AFFINITY PREDICTED BY RF-SCORE:    0.00 PKD
ROOT
HETATM    1  C   UNL     1     -10.968   5.743  72.772  1.00  0.00    -0.272 C  
HETATM    2  C   UNL     1     -10.772   7.094  73.491  1.00  0.00    -0.375 C  
HETATM    3  C   UNL     1      -9.255   7.236  73.617  1.00  0.00    -0.262 C  
HETATM    4  C   UNL     1      -8.692   5.949  72.977  1.00  0.00    -0.123 C  
HETATM    5  C   UNL     1      -8.398   6.062  71.444  1.00  0.00    -0.127 C  
HETATM    6  N   UNL     1      -9.799   5.039  73.292  1.00  0.00    -0.150 NA 
HETATM    7  C   UNL     1      -9.665   3.667  72.881  1.00  0.00    -0.135 C  
HETATM    8  C   UNL     1      -9.578   5.734  70.483  1.00  0.00    -0.173 C  
HETATM    9  C   UNL     1     -10.975   5.796  71.209  1.00  0.00    -0.299 C  
ENDROOT
BRANCH   8  10
HETATM   10  S   UNL     1      -9.319   4.497  68.766  1.00  0.00    -0.156 SA 
BRANCH  10  11
HETATM   11  C   UNL     1      -8.383   5.351  67.378  1.00  0.00    -0.103 C  
BRANCH  11  12
HETATM   12  C   UNL     1      -8.915   6.552  66.346  1.00  0.00    -0.147 C  
HETATM   13  O   UNL     1      -8.241   6.693  65.315  1.00  0.00    -0.133 OA 
BRANCH  12  14
HETATM   14  O   UNL     1      -9.988   7.418  66.530  1.00  0.00    -0.198 OA 
BRANCH  14  15
HETATM   15  C   UNL     1      -9.832   8.938  67.061  1.00  0.00    -0.214 C  
HETATM   16  C   UNL     1     -10.629   8.744  68.452  1.00  0.00    -0.185 C  
HETATM   17  C   UNL     1     -10.634   9.835  69.556  1.00  0.00    -0.253 C  
HETATM   18  C   UNL     1      -9.604  13.364  67.449  1.00  0.00    -0.223 C  
HETATM   19  C   UNL     1     -11.079   9.424  70.982  1.00  0.00    -0.414 C  
HETATM   20  C   UNL     1     -11.743  10.829  69.090  1.00  0.00    -0.296 C  
HETATM   21  O   UNL     1     -13.027  10.711  69.699  1.00  0.00    -0.542 OA 
HETATM   22  C   UNL     1     -11.250  12.251  69.030  1.00  0.00    -0.319 C  
HETATM   23  C   UNL     1      -8.382  12.536  66.986  1.00  0.00    -0.144 C  
HETATM   24  C   UNL     1     -11.002  12.679  67.522  1.00  0.00    -0.280 C  
HETATM   25  C   UNL     1     -12.087  13.220  69.906  1.00  0.00    -0.377 C  
HETATM   26  H   UNL     1     -13.701  11.316  69.415  1.00  0.00     0.000 HD 
HETATM   27  C   UNL     1     -12.156  13.672  67.177  1.00  0.00    -0.404 C  
HETATM   28  C   UNL     1     -12.172  13.841  65.690  1.00  0.00    -0.484 C  
HETATM   29  C   UNL     1     -11.716  12.486  65.224  1.00  0.00    -0.386 C  
HETATM   30  C   UNL     1     -11.150  11.567  66.373  1.00  0.00    -0.328 C  
HETATM   31  O   UNL     1     -11.939  12.146  64.087  1.00  0.00    -0.388 OA 
HETATM   32  C   UNL     1      -9.954  10.482  66.052  1.00  0.00    -0.295 C  
HETATM   33  C   UNL     1     -10.031  10.226  64.490  1.00  0.00    -0.359 C  
HETATM   34  C   UNL     1      -8.570  11.303  66.076  1.00  0.00    -0.130 C  
HETATM   35  C   UNL     1      -7.351  10.359  65.941  1.00  0.00    -0.135 C  
BRANCH  17  36
HETATM   36  C   UNL     1      -9.172  10.293  69.648  1.00  0.00    -0.155 C  
HETATM   37  C   UNL     1      -8.118   9.645  70.165  1.00  0.00    -0.205 C  
ENDBRANCH  17  36
ENDBRANCH  14  15
ENDBRANCH  12  14
ENDBRANCH  11  12
ENDBRANCH  10  11
ENDBRANCH   8  10
TORSDOF 6
ENDMDL
MODEL        2
REMARK 921   NORMALIZED FREE ENERGY PREDICTED BY IDOCK:   -6.78 KCAL/MOL
REMARK 922        TOTAL FREE ENERGY PREDICTED BY IDOCK:  -10.91 KCAL/MOL
REMARK 923 INTER-LIGAND FREE ENERGY PREDICTED BY IDOCK:   -9.54 KCAL/MOL
REMARK 924 INTRA-LIGAND FREE ENERGY PREDICTED BY IDOCK:   -1.37 KCAL/MOL
REMARK 927      BINDING AFFINITY PREDICTED BY RF-SCORE:    0.00 PKD
ROOT
HETATM    1  C   UNL     1     -10.267  17.747  66.723  1.00  0.00    -0.351 C  
HETATM    2  C   UNL     1      -8.867  18.348  66.480  1.00  0.00    -0.289 C  
HETATM    3  C   UNL     1      -7.904  17.222  66.857  1.00  0.00    -0.251 C  
HETATM    4  C   UNL     1      -8.821  16.064  67.305  1.00  0.00    -0.190 C  
HETATM    5  C   UNL     1      -9.237  15.085  66.157  1.00  0.00    -0.294 C  
HETATM    6  N   UNL     1      -9.939  16.854  67.831  1.00  0.00    -0.266 NA 
HETATM    7  C   UNL     1     -11.048  16.133  68.399  1.00  0.00    -0.359 C  
HETATM    8  C   UNL     1     -10.514  15.461  65.350  1.00  0.00    -0.402 C  
HETATM    9  C   UNL     1     -10.900  16.979  65.517  1.00  0.00    -0.073 C  
ENDROOT
BRANCH   8  10
HETATM   10  S   UNL     1     -12.015  14.021  64.886  1.00  0.00    -0.428 SA 
BRANCH  10  11
HETATM   11  C   UNL     1     -11.489  12.258  65.274  1.00  0.00    -0.351 C  
BRANCH  11  12
HETATM   12  C   UNL     1     -10.210  11.389  64.644  1.00  0.00    -0.294 C  
HETATM   13  O   UNL     1     -10.386  10.955  63.496  1.00  0.00    -0.352 OA 
BRANCH  12  14
HETATM   14  O   UNL     1      -9.007  11.073  65.267  1.00  0.00    -0.199 OA 
BRANCH  14  15
HETATM   15  C   UNL     1      -8.903  10.231  66.643  1.00  0.00    -0.136 C  
HETATM   16  C   UNL     1      -9.366   8.806  66.037  1.00  0.00    -0.296 C  
HETATM   17  C   UNL     1      -9.254   7.490  66.852  1.00  0.00    -0.181 C  
HETATM   18  C   UNL     1      -9.065   8.838  70.865  1.00  0.00    -0.256 C  
HETATM   19  C   UNL     1      -9.345   6.149  66.082  1.00  0.00    -0.128 C  
HETATM   20  C   UNL     1     -10.534   7.497  67.744  1.00  0.00    -0.223 C  
HETATM   21  O   UNL     1     -11.642   6.714  67.307  1.00  0.00    -0.747 OA 
HETATM   22  C   UNL     1     -10.217   7.302  69.204  1.00  0.00    -0.197 C  
HETATM   23  C   UNL     1      -7.887   9.698  70.349  1.00  0.00    -0.181 C  
HETATM   24  C   UNL     1     -10.336   8.682  69.978  1.00  0.00    -0.213 C  
HETATM   25  C   UNL     1     -10.948   6.083  69.825  1.00  0.00    -0.471 C  
HETATM   26  H   UNL     1     -12.421   6.719  67.850  1.00  0.00     0.000 HD 
HETATM   27  C   UNL     1     -11.635   8.566  70.837  1.00  0.00    -0.295 C  
HETATM   28  C   UNL     1     -11.980   9.940  71.316  1.00  0.00    -0.489 C  
HETATM   29  C   UNL     1     -11.491  10.792  70.177  1.00  0.00    -0.331 C  
HETATM   30  C   UNL     1     -10.605  10.018  69.129  1.00  0.00    -0.240 C  
HETATM   31  O   UNL     1     -11.911  11.918  70.060  1.00  0.00    -0.322 OA 
HETATM   32  C   UNL     1      -9.395  10.800  68.331  1.00  0.00    -0.167 C  
HETATM   33  C   UNL     1      -9.771  12.338  68.408  1.00  0.00    -0.191 C  
HETATM   34  C   UNL     1      -8.131  10.829  69.326  1.00  0.00    -0.102 C  
HETATM   35  C   UNL     1      -6.875  11.403  68.627  1.00  0.00    -0.078 C  
BRANCH  17  36
HETATM   36  C   UNL     1      -7.861   7.555  67.494  1.00  0.00    -0.116 C  
HETATM   37  C   UNL     1      -7.018   6.552  67.776  1.00  0.00    -0.082 C  
ENDBRANCH  17  36
ENDBRANCH  14  15
ENDBRANCH  12  14
ENDBRANCH  11  12
ENDBRANCH  10  11
ENDBRANCH   8  10
TORSDOF 6
ENDMDL
MODEL        3
REMARK 921   NORMALIZED FREE ENERGY PREDICTED BY IDOCK:   -6.67 KCAL/MOL
REMARK 922        TOTAL FREE ENERGY PREDICTED BY IDOCK:  -10.76 KCAL/MOL
REMARK 923 INTER-LIGAND FREE ENERGY PREDICTED BY IDOCK:  -10.10 KCAL/MOL
REMARK 924 INTRA-LIGAND FREE ENERGY PREDICTED BY IDOCK:   -0.66 KCAL/MOL
REMARK 927      BINDING AFFINITY PREDICTED BY RF-SCORE:    0.00 PKD
ROOT
HETATM    1  C   UNL     1      -9.098  18.098  68.305  1.00  0.00    -0.300 C  
HETATM    2  C   UNL     1      -9.792  19.264  69.041  1.00  0.00    -0.466 C  
HETATM    3  C   UNL     1     -10.090  20.279  67.937  1.00  0.00    -0.476 C  
HETATM    4  C   UNL     1      -9.530  19.630  66.653  1.00  0.00    -0.375 C  
HETATM    5  C   UNL     1     -10.559  18.745  65.873  1.00  0.00    -0.405 C  
HETATM    6  N   UNL     1      -8.434  18.859  67.251  1.00  0.00    -0.274 NA 
HETATM    7  C   UNL     1      -7.602  18.095  66.361  1.00  0.00    -0.256 C  
HETATM    8  C   UNL     1     -10.654  17.250  66.297  1.00  0.00    -0.184 C  
HETATM    9  C   UNL     1     -10.044  16.995  67.727  1.00  0.00    -0.302 C  
ENDROOT
BRANCH   8  10
HETATM   10  S   UNL     1     -10.706  15.676  64.861  1.00  0.00    -0.277 SA 
BRANCH  10  11
HETATM   11  C   UNL     1     -12.055  14.412  65.203  1.00  0.00    -0.395 C  
BRANCH  11  12
HETATM   12  C   UNL     1     -12.171  12.837  64.660  1.00  0.00    -0.447 C  
HETATM   13  O   UNL     1     -13.328  12.419  64.510  1.00  0.00    -0.800 OA 
BRANCH  12  14
HETATM   14  O   UNL     1     -11.132  11.950  64.396  1.00  0.00    -0.306 OA 
BRANCH  14  15
HETATM   15  C   UNL     1     -10.142  11.365  65.533  1.00  0.00    -0.247 C  
HETATM   16  C   UNL     1      -9.790   9.973  64.791  1.00  0.00    -0.325 C  
HETATM   17  C   UNL     1      -8.668   9.031  65.300  1.00  0.00    -0.226 C  
HETATM   18  C   UNL     1      -8.185  10.184  69.350  1.00  0.00    -0.171 C  
HETATM   19  C   UNL     1      -8.140   7.941  64.334  1.00  0.00    -0.103 C  
HETATM   20  C   UNL     1      -9.356   8.218  66.440  1.00  0.00    -0.213 C  
HETATM   21  O   UNL     1      -9.822   6.908  66.123  1.00  0.00    -0.407 OA 
HETATM   22  C   UNL     1      -8.579   8.268  67.731  1.00  0.00    -0.131 C  
HETATM   23  C   UNL     1      -7.992  11.598  68.754  1.00  0.00    -0.086 C  
HETATM   24  C   UNL     1      -9.285   9.254  68.754  1.00  0.00    -0.136 C  
HETATM   25  C   UNL     1      -8.194   6.862  68.260  1.00  0.00    -0.123 C  
HETATM   26  H   UNL     1     -10.241   6.414  66.817  1.00  0.00     0.000 HD 
HETATM   27  C   UNL     1      -9.922   8.334  69.844  1.00  0.00    -0.190 C  
HETATM   28  C   UNL     1     -10.876   9.172  70.636  1.00  0.00    -0.321 C  
HETATM   29  C   UNL     1     -11.366  10.141  69.596  1.00  0.00    -0.235 C  
HETATM   30  C   UNL     1     -10.545  10.112  68.251  1.00  0.00    -0.262 C  
HETATM   31  O   UNL     1     -12.397  10.740  69.786  1.00  0.00    -0.327 OA 
HETATM   32  C   UNL     1     -10.362  11.488  67.363  1.00  0.00    -0.235 C  
HETATM   33  C   UNL     1     -11.555  12.431  67.807  1.00  0.00    -0.413 C  
HETATM   34  C   UNL     1      -9.159  12.315  68.040  1.00  0.00    -0.191 C  
HETATM   35  C   UNL     1      -8.787  13.559  67.198  1.00  0.00    -0.231 C  
BRANCH  17  36
HETATM   36  C   UNL     1      -7.494   9.968  65.617  1.00  0.00    -0.137 C  
HETATM   37  C   UNL     1      -6.391  10.208  64.895  1.00  0.00    -0.128 C  
ENDBRANCH  17  36
ENDBRANCH  14  15
ENDBRANCH  12  14
ENDBRANCH  11  12
ENDBRANCH  10  11
ENDBRANCH   8  10
TORSDOF 6
ENDMDL
MODEL        4
REMARK 921   NORMALIZED FREE ENERGY PREDICTED BY IDOCK:   -6.51 KCAL/MOL
REMARK 922        TOTAL FREE ENERGY PREDICTED BY IDOCK:  -10.55 KCAL/MOL
REMARK 923 INTER-LIGAND FREE ENERGY PREDICTED BY IDOCK:   -9.27 KCAL/MOL
REMARK 924 INTRA-LIGAND FREE ENERGY PREDICTED BY IDOCK:   -1.28 KCAL/MOL
REMARK 927      BINDING AFFINITY PREDICTED BY RF-SCORE:    0.00 PKD
ROOT
HETATM    1  C   UNL     1      -9.717   5.424  70.379  1.00  0.00    -0.192 C  
HETATM    2  C   UNL     1      -9.740   3.899  70.613  1.00  0.00    -0.248 C  
HETATM    3  C   UNL     1      -9.827   3.754  72.132  1.00  0.00    -0.238 C  
HETATM    4  C   UNL     1      -9.829   5.204  72.660  1.00  0.00    -0.161 C  
HETATM    5  C   UNL     1     -11.253   5.835  72.816  1.00  0.00    -0.336 C  
HETATM    6  N   UNL     1      -9.028   5.829  71.601  1.00  0.00    -0.136 NA 
HETATM    7  C   UNL     1      -8.753   7.236  71.724  1.00  0.00    -0.116 C  
HETATM    8  C   UNL     1     -11.840   6.547  71.563  1.00  0.00    -0.333 C  
HETATM    9  C   UNL     1     -11.112   6.114  70.234  1.00  0.00    -0.436 C  
ENDROOT
BRANCH   8  10
HETATM   10  S   UNL     1     -12.784   8.454  71.692  1.00  0.00    -0.332 SA 
BRANCH  10  11
HETATM   11  C   UNL     1     -11.678   9.863  71.122  1.00  0.00    -0.396 C  
BRANCH  11  12
HETATM   12  C   UNL     1     -12.022  11.084  70.036  1.00  0.00    -0.351 C  
HETATM   13  O   UNL     1     -12.228  12.195  70.545  1.00  0.00    -0.356 OA 
BRANCH  12  14
HETATM   14  O   UNL     1     -12.134  10.986  68.653  1.00  0.00    -0.551 OA 
BRANCH  14  15
HETATM   15  C   UNL     1     -10.877  11.096  67.641  1.00  0.00    -0.247 C  
HETATM   16  C   UNL     1     -11.652  11.857  66.445  1.00  0.00    -0.315 C  
HETATM   17  C   UNL     1     -10.900  12.461  65.231  1.00  0.00    -0.324 C  
HETATM   18  C   UNL     1      -7.218  10.362  65.219  1.00  0.00    -0.106 C  
HETATM   19  C   UNL     1     -11.649  13.492  64.350  1.00  0.00    -0.429 C  
HETATM   20  C   UNL     1     -10.689  11.241  64.281  1.00  0.00    -0.349 C  
HETATM   21  O   UNL     1     -11.597  11.093  63.192  1.00  0.00    -0.776 OA 
HETATM   22  C   UNL     1      -9.249  11.074  63.871  1.00  0.00    -0.181 C  
HETATM   23  C   UNL     1      -7.125  10.845  66.686  1.00  0.00    -0.135 C  
HETATM   24  C   UNL     1      -8.591   9.870  64.668  1.00  0.00    -0.195 C  
HETATM   25  C   UNL     1      -9.051  11.091  62.333  1.00  0.00    -0.328 C  
HETATM   26  H   UNL     1     -11.469  10.350  62.615  1.00  0.00     0.000 HD 
HETATM   27  C   UNL     1      -8.420   8.724  63.621  1.00  0.00    -0.110 C  
HETATM   28  C   UNL     1      -8.127   7.467  64.377  1.00  0.00    -0.070 C  
HETATM   29  C   UNL     1      -8.903   7.686  65.646  1.00  0.00    -0.050 C  
HETATM   30  C   UNL     1      -9.445   9.155  65.824  1.00  0.00    -0.322 C  
HETATM   31  O   UNL     1      -9.179   6.737  66.341  1.00  0.00    -0.160 OA 
HETATM   32  C   UNL     1      -9.590   9.807  67.329  1.00  0.00    -0.194 C  
HETATM   33  C   UNL     1      -9.666   8.569  68.314  1.00  0.00    -0.171 C  
HETATM   34  C   UNL     1      -8.127  10.335  67.744  1.00  0.00    -0.103 C  
HETATM   35  C   UNL     1      -8.167  11.112  69.082  1.00  0.00    -0.007 C  
BRANCH  17  36
HETATM   36  C   UNL     1      -9.692  13.180  65.847  1.00  0.00    -0.190 C  
HETATM   37  C   UNL     1      -9.605  14.437  66.307  1.00  0.00    -0.321 C  
ENDBRANCH  17  36
ENDBRANCH  14  15
ENDBRANCH  12  14
ENDBRANCH  11  12
ENDBRANCH  10  11
ENDBRANCH   8  10
TORSDOF 6
ENDMDL
MODEL        5
REMARK 921   NORMALIZED FREE ENERGY PREDICTED BY IDOCK:   -6.39 KCAL/MOL
REMARK 922        TOTAL FREE ENERGY PREDICTED BY IDOCK:  -10.38 KCAL/MOL
REMARK 923 INTER-LIGAND FREE ENERGY PREDICTED BY IDOCK:   -8.80 KCAL/MOL
REMARK 924 INTRA-LIGAND FREE ENERGY PREDICTED BY IDOCK:   -1.58 KCAL/MOL
REMARK 927      BINDING AFFINITY PREDICTED BY RF-SCORE:    0.00 PKD
ROOT
HETATM    1  C   UNL     1     -11.424   6.553  70.931  1.00  0.00    -0.351 C  
HETATM    2  C   UNL     1     -12.697   7.290  71.395  1.00  0.00    -0.427 C  
HETATM    3  C   UNL     1     -12.221   8.166  72.555  1.00  0.00    -0.335 C  
HETATM    4  C   UNL     1     -10.715   7.855  72.682  1.00  0.00    -0.347 C  
HETATM    5  C   UNL     1      -9.787   8.785  71.832  1.00  0.00    -0.395 C  
HETATM    6  N   UNL     1     -10.733   6.465  72.214  1.00  0.00    -0.214 NA 
HETATM    7  C   UNL     1      -9.481   5.756  72.200  1.00  0.00    -0.149 C  
HETATM    8  C   UNL     1      -9.508   8.338  70.367  1.00  0.00    -0.167 C  
HETATM    9  C   UNL     1     -10.564   7.289  69.851  1.00  0.00    -0.244 C  
ENDROOT
BRANCH   8  10
HETATM   10  S   UNL     1      -7.547   8.379  69.533  1.00  0.00    -0.092 SA 
BRANCH  10  11
HETATM   11  C   UNL     1      -7.073  10.064  68.848  1.00  0.00    -0.068 C  
BRANCH  11  12
HETATM   12  C   UNL     1      -6.737  10.491  67.269  1.00  0.00    -0.077 C  
HETATM   13  O   UNL     1      -5.552  10.360  66.931  1.00  0.00    -0.044 OA 
BRANCH  12  14
HETATM   14  O   UNL     1      -7.618  11.000  66.319  1.00  0.00    -0.145 OA 
BRANCH  14  15
HETATM   15  C   UNL     1      -8.739  12.119  66.646  1.00  0.00    -0.153 C  
HETATM   16  C   UNL     1      -7.732  13.248  67.213  1.00  0.00    -0.100 C  
HETATM   17  C   UNL     1      -8.200  14.700  67.497  1.00  0.00    -0.203 C  
HETATM   18  C   UNL     1     -12.400  14.312  67.904  1.00  0.00    -0.021 C  
HETATM   19  C   UNL     1      -7.115  15.795  67.657  1.00  0.00    -0.192 C  
HETATM   20  C   UNL     1      -8.851  14.609  68.912  1.00  0.00    -0.136 C  
HETATM   21  O   UNL     1      -8.063  15.024  70.025  1.00  0.00    -0.360 OA 
HETATM   22  C   UNL     1     -10.247  15.174  68.938  1.00  0.00    -0.236 C  
HETATM   23  C   UNL     1     -12.308  13.635  66.516  1.00  0.00    -0.412 C  
HETATM   24  C   UNL     1     -11.312  13.998  68.974  1.00  0.00    -0.319 C  
HETATM   25  C   UNL     1     -10.421  16.311  69.979  1.00  0.00    -0.164 C  
HETATM   26  H   UNL     1      -8.459  14.968  70.886  1.00  0.00     0.000 HD 
HETATM   27  C   UNL     1     -11.898  14.013  70.422  1.00  0.00    -0.356 C  
HETATM   28  C   UNL     1     -12.644  12.731  70.617  1.00  0.00    -0.248 C  
HETATM   29  C   UNL     1     -11.845  11.781  69.767  1.00  0.00    -0.349 C  
HETATM   30  C   UNL     1     -10.792  12.486  68.831  1.00  0.00    -0.238 C  
HETATM   31  O   UNL     1     -11.947  10.592  69.954  1.00  0.00    -0.288 OA 
HETATM   32  C   UNL     1     -10.416  11.830  67.367  1.00  0.00    -0.238 C  
HETATM   33  C   UNL     1     -10.813  10.301  67.481  1.00  0.00    -0.355 C  
HETATM   34  C   UNL     1     -11.574  12.287  66.348  1.00  0.00    -0.445 C  
HETATM   35  C   UNL     1     -11.248  11.860  64.896  1.00  0.00    -0.350 C  
BRANCH  17  36
HETATM   36  C   UNL     1      -9.050  15.074  66.275  1.00  0.00    -0.288 C  
HETATM   37  C   UNL     1      -9.403  16.291  65.837  1.00  0.00    -0.299 C  
ENDBRANCH  17  36
ENDBRANCH  14  15
ENDBRANCH  12  14
ENDBRANCH  11  12
ENDBRANCH  10  11
ENDBRANCH   8  10
TORSDOF 6
ENDMDL
MODEL        6
REMARK 921   NORMALIZED FREE ENERGY PREDICTED BY IDOCK:   -6.36 KCAL/MOL
REMARK 922        TOTAL FREE ENERGY PREDICTED BY IDOCK:  -10.35 KCAL/MOL
REMARK 923 INTER-LIGAND FREE ENERGY PREDICTED BY IDOCK:   -9.23 KCAL/MOL
REMARK 924 INTRA-LIGAND FREE ENERGY PREDICTED BY IDOCK:   -1.12 KCAL/MOL
REMARK 927      BINDING AFFINITY PREDICTED BY RF-SCORE:    0.00 PKD
ROOT
HETATM    1  C   UNL     1      -9.754   5.613  70.185  1.00  0.00    -0.174 C  
HETATM    2  C   UNL     1      -9.740   4.071  70.215  1.00  0.00    -0.263 C  
HETATM    3  C   UNL     1      -9.882   3.723  71.698  1.00  0.00    -0.240 C  
HETATM    4  C   UNL     1      -9.948   5.090  72.411  1.00  0.00    -0.178 C  
HETATM    5  C   UNL     1     -11.395   5.660  72.588  1.00  0.00    -0.356 C  
HETATM    6  N   UNL     1      -9.126   5.870  71.479  1.00  0.00    -0.143 NA 
HETATM    7  C   UNL     1      -8.898   7.254  71.797  1.00  0.00    -0.116 C  
HETATM    8  C   UNL     1     -11.955   6.516  71.415  1.00  0.00    -0.316 C  
HETATM    9  C   UNL     1     -11.163   6.282  70.074  1.00  0.00    -0.480 C  
ENDROOT
BRANCH   8  10
HETATM   10  S   UNL     1     -12.961   8.365  71.754  1.00  0.00    -0.353 SA 
BRANCH  10  11
HETATM   11  C   UNL     1     -11.921   9.863  71.298  1.00  0.00    -0.402 C  
BRANCH  11  12
HETATM   12  C   UNL     1     -12.361  11.208  70.412  1.00  0.00    -0.344 C  
HETATM   13  O   UNL     1     -12.707  12.189  71.085  1.00  0.00    -0.358 OA 
BRANCH  12  14
HETATM   14  O   UNL     1     -12.416  11.334  69.027  1.00  0.00    -0.417 OA 
BRANCH  14  15
HETATM   15  C   UNL     1     -11.341  12.177  68.161  1.00  0.00    -0.293 C  
HETATM   16  C   UNL     1     -10.069  11.221  68.438  1.00  0.00    -0.202 C  
HETATM   17  C   UNL     1      -8.733  11.385  67.668  1.00  0.00    -0.136 C  
HETATM   18  C   UNL     1      -8.913  15.369  66.235  1.00  0.00    -0.341 C  
HETATM   19  C   UNL     1      -7.723  10.211  67.707  1.00  0.00    -0.090 C  
HETATM   20  C   UNL     1      -8.003  12.533  68.432  1.00  0.00    -0.139 C  
HETATM   21  O   UNL     1      -7.001  12.159  69.375  1.00  0.00    -0.276 OA 
HETATM   22  C   UNL     1      -7.560  13.642  67.514  1.00  0.00    -0.180 C  
HETATM   23  C   UNL     1     -10.266  14.919  65.636  1.00  0.00    -0.382 C  
HETATM   24  C   UNL     1      -8.523  14.894  67.667  1.00  0.00    -0.176 C  
HETATM   25  C   UNL     1      -6.035  13.915  67.586  1.00  0.00    -0.059 C  
HETATM   26  H   UNL     1      -6.557  12.858  69.840  1.00  0.00     0.000 HD 
HETATM   27  C   UNL     1      -7.686  15.970  68.429  1.00  0.00    -0.147 C  
HETATM   28  C   UNL     1      -8.635  17.027  68.898  1.00  0.00    -0.196 C  
HETATM   29  C   UNL     1      -9.882  16.226  69.152  1.00  0.00    -0.258 C  
HETATM   30  C   UNL     1      -9.826  14.753  68.595  1.00  0.00    -0.225 C  
HETATM   31  O   UNL     1     -10.745  16.685  69.862  1.00  0.00    -0.309 OA 
HETATM   32  C   UNL     1     -11.199  14.017  68.060  1.00  0.00    -0.302 C  
HETATM   33  C   UNL     1     -12.388  14.795  68.761  1.00  0.00    -0.019 C  
HETATM   34  C   UNL     1     -11.445  14.538  66.558  1.00  0.00    -0.366 C  
HETATM   35  C   UNL     1     -12.626  13.794  65.889  1.00  0.00    -0.494 C  
BRANCH  17  36
HETATM   36  C   UNL     1      -9.156  11.575  66.204  1.00  0.00    -0.217 C  
HETATM   37  C   UNL     1      -9.614  10.662  65.336  1.00  0.00    -0.282 C  
ENDBRANCH  17  36
ENDBRANCH  14  15
ENDBRANCH  12  14
ENDBRANCH  11  12
ENDBRANCH  10  11
ENDBRANCH   8  10
TORSDOF 6
ENDMDL
MODEL        7
REMARK 921   NORMALIZED FREE ENERGY PREDICTED BY IDOCK:   -6.29 KCAL/MOL
REMARK 922        TOTAL FREE ENERGY PREDICTED BY IDOCK:  -10.25 KCAL/MOL
REMARK 923 INTER-LIGAND FREE ENERGY PREDICTED BY IDOCK:   -9.14 KCAL/MOL
REMARK 924 INTRA-LIGAND FREE ENERGY PREDICTED BY IDOCK:   -1.10 KCAL/MOL
REMARK 927      BINDING AFFINITY PREDICTED BY RF-SCORE:    0.00 PKD
ROOT
HETATM    1  C   UNL     1     -11.960  14.138  64.706  1.00  0.00    -0.431 C  
HETATM    2  C   UNL     1     -12.199  13.262  63.459  1.00  0.00    -0.513 C  
HETATM    3  C   UNL     1     -11.049  12.255  63.482  1.00  0.00    -0.533 C  
HETATM    4  C   UNL     1     -10.225  12.638  64.729  1.00  0.00    -0.283 C  
HETATM    5  C   UNL     1     -10.659  11.905  66.043  1.00  0.00    -0.304 C  
HETATM    6  N   UNL     1     -10.502  14.078  64.748  1.00  0.00    -0.431 NA 
HETATM    7  C   UNL     1      -9.876  14.859  65.782  1.00  0.00    -0.348 C  
HETATM    8  C   UNL     1     -11.785  12.582  66.878  1.00  0.00    -0.377 C  
HETATM    9  C   UNL     1     -12.608  13.627  66.035  1.00  0.00    -0.441 C  
ENDROOT
BRANCH   8  10
HETATM   10  S   UNL     1     -11.645  12.789  68.995  1.00  0.00    -0.331 SA 
BRANCH  10  11
HETATM   11  C   UNL     1     -12.658  11.511  69.928  1.00  0.00     0.017 C  
BRANCH  11  12
HETATM   12  C   UNL     1     -12.126  10.294  70.941  1.00  0.00    -0.368 C  
HETATM   13  O   UNL     1     -13.017   9.560  71.392  1.00  0.00    -0.339 OA 
BRANCH  12  14
HETATM   14  O   UNL     1     -10.821  10.041  71.354  1.00  0.00    -0.140 OA 
BRANCH  14  15
HETATM   15  C   UNL     1      -9.899   8.864  70.737  1.00  0.00    -0.223 C  
HETATM   16  C   UNL     1     -10.517   8.890  69.245  1.00  0.00    -0.234 C  
HETATM   17  C   UNL     1      -9.869   8.107  68.073  1.00  0.00    -0.200 C  
HETATM   18  C   UNL     1      -7.550   5.152  70.034  1.00  0.00    -0.064 C  
HETATM   19  C   UNL     1     -10.280   8.489  66.629  1.00  0.00    -0.345 C  
HETATM   20  C   UNL     1     -10.420   6.657  68.247  1.00  0.00    -0.209 C  
HETATM   21  O   UNL     1     -11.521   6.271  67.427  1.00  0.00    -0.640 OA 
HETATM   22  C   UNL     1      -9.322   5.626  68.278  1.00  0.00    -0.123 C  
HETATM   23  C   UNL     1      -6.935   6.361  70.777  1.00  0.00    -0.068 C  
HETATM   24  C   UNL     1      -9.085   5.127  69.766  1.00  0.00    -0.154 C  
HETATM   25  C   UNL     1      -9.484   4.535  67.188  1.00  0.00    -0.182 C  
HETATM   26  H   UNL     1     -11.856   5.389  67.534  1.00  0.00     0.000 HD 
HETATM   27  C   UNL     1      -9.661   3.677  69.814  1.00  0.00    -0.228 C  
HETATM   28  C   UNL     1      -9.775   3.287  71.254  1.00  0.00    -0.222 C  
HETATM   29  C   UNL     1     -10.077   4.608  71.904  1.00  0.00    -0.198 C  
HETATM   30  C   UNL     1      -9.882   5.852  70.956  1.00  0.00    -0.225 C  
HETATM   31  O   UNL     1     -10.571   4.625  73.006  1.00  0.00    -0.187 OA 
HETATM   32  C   UNL     1      -9.394   7.297  71.577  1.00  0.00    -0.155 C  
HETATM   33  C   UNL     1      -9.772   7.239  73.114  1.00  0.00    -0.254 C  
HETATM   34  C   UNL     1      -7.794   7.212  71.737  1.00  0.00    -0.093 C  
HETATM   35  C   UNL     1      -7.198   8.574  72.167  1.00  0.00    -0.102 C  
BRANCH  17  36
HETATM   36  C   UNL     1      -8.366   8.386  68.209  1.00  0.00    -0.131 C  
HETATM   37  C   UNL     1      -7.646   9.389  67.687  1.00  0.00    -0.088 C  
ENDBRANCH  17  36
ENDBRANCH  14  15
ENDBRANCH  12  14
ENDBRANCH  11  12
ENDBRANCH  10  11
ENDBRANCH   8  10
TORSDOF 6
ENDMDL
MODEL        8
REMARK 921   NORMALIZED FREE ENERGY PREDICTED BY IDOCK:   -6.26 KCAL/MOL
REMARK 922        TOTAL FREE ENERGY PREDICTED BY IDOCK:  -10.20 KCAL/MOL
REMARK 923 INTER-LIGAND FREE ENERGY PREDICTED BY IDOCK:   -8.35 KCAL/MOL
REMARK 924 INTRA-LIGAND FREE ENERGY PREDICTED BY IDOCK:   -1.85 KCAL/MOL
REMARK 927      BINDING AFFINITY PREDICTED BY RF-SCORE:    0.00 PKD
ROOT
HETATM    1  C   UNL     1      -8.236   6.199  69.339  1.00  0.00    -0.113 C  
HETATM    2  C   UNL     1      -7.703   6.463  67.915  1.00  0.00    -0.104 C  
HETATM    3  C   UNL     1      -8.964   6.656  67.072  1.00  0.00    -0.120 C  
HETATM    4  C   UNL     1     -10.127   6.471  68.068  1.00  0.00    -0.150 C  
HETATM    5  C   UNL     1     -10.603   7.791  68.762  1.00  0.00    -0.161 C  
HETATM    6  N   UNL     1      -9.486   5.527  68.990  1.00  0.00    -0.124 NA 
HETATM    7  C   UNL     1     -10.268   5.052  70.101  1.00  0.00    -0.259 C  
HETATM    8  C   UNL     1      -9.865   8.194  70.072  1.00  0.00    -0.182 C  
HETATM    9  C   UNL     1      -8.477   7.465  70.224  1.00  0.00    -0.136 C  
ENDROOT
BRANCH   8  10
HETATM   10  S   UNL     1     -10.924   8.848  71.802  1.00  0.00    -0.370 SA 
BRANCH  10  11
HETATM   11  C   UNL     1     -12.366   9.985  71.397  1.00  0.00    -0.415 C  
BRANCH  11  12
HETATM   12  C   UNL     1     -12.375  11.360  70.450  1.00  0.00    -0.319 C  
HETATM   13  O   UNL     1     -12.412  12.428  71.077  1.00  0.00    -0.368 OA 
BRANCH  12  14
HETATM   14  O   UNL     1     -12.382  11.436  69.060  1.00  0.00    -0.407 OA 
BRANCH  14  15
HETATM   15  C   UNL     1     -11.291  12.267  68.203  1.00  0.00    -0.295 C  
HETATM   16  C   UNL     1     -10.020  11.329  68.540  1.00  0.00    -0.206 C  
HETATM   17  C   UNL     1      -8.664  11.485  67.802  1.00  0.00    -0.142 C  
HETATM   18  C   UNL     1      -8.837  15.430  66.263  1.00  0.00    -0.302 C  
HETATM   19  C   UNL     1      -7.645  10.323  67.899  1.00  0.00    -0.089 C  
HETATM   20  C   UNL     1      -7.965  12.659  68.556  1.00  0.00    -0.093 C  
HETATM   21  O   UNL     1      -6.987  12.319  69.536  1.00  0.00    -0.315 OA 
HETATM   22  C   UNL     1      -7.506  13.749  67.622  1.00  0.00    -0.187 C  
HETATM   23  C   UNL     1     -10.170  14.953  65.638  1.00  0.00    -0.382 C  
HETATM   24  C   UNL     1      -8.483  14.996  67.717  1.00  0.00    -0.161 C  
HETATM   25  C   UNL     1      -5.986  14.038  67.729  1.00  0.00    -0.115 C  
HETATM   26  H   UNL     1      -6.562  13.034  69.995  1.00  0.00     0.000 HD 
HETATM   27  C   UNL     1      -7.677  16.098  68.473  1.00  0.00    -0.170 C  
HETATM   28  C   UNL     1      -8.647  17.158  68.888  1.00  0.00    -0.190 C  
HETATM   29  C   UNL     1      -9.895  16.353  69.128  1.00  0.00    -0.272 C  
HETATM   30  C   UNL     1      -9.810  14.867  68.611  1.00  0.00    -0.225 C  
HETATM   31  O   UNL     1     -10.780  16.822  69.802  1.00  0.00    -0.322 OA 
HETATM   32  C   UNL     1     -11.162  14.104  68.058  1.00  0.00    -0.302 C  
HETATM   33  C   UNL     1     -12.376  14.889  68.706  1.00  0.00    -0.007 C  
HETATM   34  C   UNL     1     -11.370  14.584  66.536  1.00  0.00    -0.354 C  
HETATM   35  C   UNL     1     -12.526  13.813  65.855  1.00  0.00    -0.512 C  
BRANCH  17  36
HETATM   36  C   UNL     1      -9.047  11.634  66.323  1.00  0.00    -0.219 C  
HETATM   37  C   UNL     1      -9.513  10.704  65.477  1.00  0.00    -0.261 C  
ENDBRANCH  17  36
ENDBRANCH  14  15
ENDBRANCH  12  14
ENDBRANCH  11  12
ENDBRANCH  10  11
ENDBRANCH   8  10
TORSDOF 6
ENDMDL
MODEL        9
REMARK 921   NORMALIZED FREE ENERGY PREDICTED BY IDOCK:   -6.23 KCAL/MOL
REMARK 922        TOTAL FREE ENERGY PREDICTED BY IDOCK:  -10.17 KCAL/MOL
REMARK 923 INTER-LIGAND FREE ENERGY PREDICTED BY IDOCK:   -8.81 KCAL/MOL
REMARK 924 INTRA-LIGAND FREE ENERGY PREDICTED BY IDOCK:   -1.36 KCAL/MOL
REMARK 927      BINDING AFFINITY PREDICTED BY RF-SCORE:    0.00 PKD
ROOT
HETATM    1  C   UNL     1     -12.640  13.810  65.195  1.00  0.00    -0.433 C  
HETATM    2  C   UNL     1     -13.011  12.511  64.451  1.00  0.00    -0.248 C  
HETATM    3  C   UNL     1     -11.707  12.076  63.783  1.00  0.00    -0.575 C  
HETATM    4  C   UNL     1     -10.688  13.166  64.177  1.00  0.00    -0.374 C  
HETATM    5  C   UNL     1      -9.903  12.872  65.499  1.00  0.00    -0.159 C  
HETATM    6  N   UNL     1     -11.608  14.303  64.287  1.00  0.00    -0.326 NA 
HETATM    7  C   UNL     1     -11.041  15.582  64.624  1.00  0.00    -0.359 C  
HETATM    8  C   UNL     1     -10.564  13.352  66.823  1.00  0.00    -0.277 C  
HETATM    9  C   UNL     1     -12.105  13.634  66.653  1.00  0.00    -0.459 C  
ENDROOT
BRANCH   8  10
HETATM   10  S   UNL     1      -9.452  14.368  68.331  1.00  0.00    -0.209 SA 
BRANCH  10  11
HETATM   11  C   UNL     1      -7.695  13.722  68.511  1.00  0.00    -0.138 C  
BRANCH  11  12
HETATM   12  C   UNL     1      -7.162  12.140  68.524  1.00  0.00    -0.102 C  
HETATM   13  O   UNL     1      -6.815  11.695  67.420  1.00  0.00    -0.093 OA 
BRANCH  12  14
HETATM   14  O   UNL     1      -7.099  11.272  69.609  1.00  0.00    -0.103 OA 
BRANCH  14  15
HETATM   15  C   UNL     1      -8.090  10.009  69.805  1.00  0.00    -0.177 C  
HETATM   16  C   UNL     1      -9.474  10.802  69.553  1.00  0.00     0.053 C  
HETATM   17  C   UNL     1     -10.827  10.063  69.383  1.00  0.00    -0.270 C  
HETATM   18  C   UNL     1     -10.112   6.290  71.175  1.00  0.00    -0.218 C  
HETATM   19  C   UNL     1     -12.013  10.848  68.768  1.00  0.00    -0.230 C  
HETATM   20  C   UNL     1     -11.284   9.785  70.849  1.00  0.00    -0.359 C  
HETATM   21  O   UNL     1     -12.246  10.672  71.416  1.00  0.00    -0.350 OA 
HETATM   22  C   UNL     1     -11.615   8.334  71.082  1.00  0.00    -0.310 C  
HETATM   23  C   UNL     1      -8.911   6.238  70.200  1.00  0.00    -0.149 C  
HETATM   24  C   UNL     1     -10.447   7.631  71.894  1.00  0.00    -0.256 C  
HETATM   25  C   UNL     1     -13.061   8.118  71.601  1.00  0.00    -0.358 C  
HETATM   26  H   UNL     1     -12.524  10.503  72.308  1.00  0.00     0.000 HD 
HETATM   27  C   UNL     1     -11.021   7.396  73.327  1.00  0.00    -0.367 C  
HETATM   28  C   UNL     1      -9.870   7.055  74.220  1.00  0.00    -0.249 C  
HETATM   29  C   UNL     1      -8.757   7.856  73.603  1.00  0.00    -0.269 C  
HETATM   30  C   UNL     1      -9.109   8.466  72.193  1.00  0.00    -0.309 C  
HETATM   31  O   UNL     1      -7.770   8.097  74.256  1.00  0.00    -0.190 OA 
HETATM   32  C   UNL     1      -7.931   8.660  71.058  1.00  0.00    -0.153 C  
HETATM   33  C   UNL     1      -6.571   8.691  71.870  1.00  0.00    -0.079 C  
HETATM   34  C   UNL     1      -7.736   7.228  70.350  1.00  0.00    -0.094 C  
HETATM   35  C   UNL     1      -6.760   7.320  69.152  1.00  0.00    -0.049 C  
BRANCH  17  36
HETATM   36  C   UNL     1     -10.510   8.897  68.436  1.00  0.00    -0.230 C  
HETATM   37  C   UNL     1     -10.461   8.891  67.097  1.00  0.00    -0.344 C  
ENDBRANCH  17  36
ENDBRANCH  14  15
ENDBRANCH  12  14
ENDBRANCH  11  12
ENDBRANCH  10  11
ENDBRANCH   8  10
TORSDOF 6
ENDMDL
MODEL       10
REMARK 921   NORMALIZED FREE ENERGY PREDICTED BY IDOCK:   -6.16 KCAL/MOL
REMARK 922        TOTAL FREE ENERGY PREDICTED BY IDOCK:  -10.07 KCAL/MOL
REMARK 923 INTER-LIGAND FREE ENERGY PREDICTED BY IDOCK:   -8.93 KCAL/MOL
REMARK 924 INTRA-LIGAND FREE ENERGY PREDICTED BY IDOCK:   -1.14 KCAL/MOL
REMARK 927      BINDING AFFINITY PREDICTED BY RF-SCORE:    0.00 PKD
ROOT
HETATM    1  C   UNL     1      -8.444  17.512  66.324  1.00  0.00    -0.212 C  
HETATM    2  C   UNL     1      -8.023  18.989  66.179  1.00  0.00    -0.273 C  
HETATM    3  C   UNL     1      -9.328  19.769  66.342  1.00  0.00    -0.488 C  
HETATM    4  C   UNL     1     -10.404  18.684  66.551  1.00  0.00    -0.421 C  
HETATM    5  C   UNL     1     -10.653  18.298  68.048  1.00  0.00    -0.347 C  
HETATM    6  N   UNL     1      -9.791  17.606  65.767  1.00  0.00    -0.549 NA 
HETATM    7  C   UNL     1     -10.513  16.365  65.671  1.00  0.00    -0.347 C  
HETATM    8  C   UNL     1      -9.751  17.175  68.637  1.00  0.00    -0.293 C  
HETATM    9  C   UNL     1      -8.450  16.943  67.781  1.00  0.00    -0.198 C  
ENDROOT
BRANCH   8  10
HETATM   10  S   UNL     1     -10.556  15.587  69.810  1.00  0.00    -0.313 SA 
BRANCH  10  11
HETATM   11  C   UNL     1     -11.703  14.460  68.836  1.00  0.00    -0.322 C  
BRANCH  11  12
HETATM   12  C   UNL     1     -12.035  12.843  69.086  1.00  0.00    -0.259 C  
HETATM   13  O   UNL     1     -12.156  12.511  70.274  1.00  0.00    -0.349 OA 
BRANCH  12  14
HETATM   14  O   UNL     1     -12.153  11.841  68.129  1.00  0.00    -0.556 OA 
BRANCH  14  15
HETATM   15  C   UNL     1     -10.928  10.890  67.670  1.00  0.00    -0.293 C  
HETATM   16  C   UNL     1     -10.987   9.873  68.924  1.00  0.00    -0.214 C  
HETATM   17  C   UNL     1     -10.170   8.555  68.954  1.00  0.00    -0.221 C  
HETATM   18  C   UNL     1      -7.093   9.248  66.123  1.00  0.00    -0.091 C  
HETATM   19  C   UNL     1     -10.574   7.472  69.986  1.00  0.00    -0.242 C  
HETATM   20  C   UNL     1      -8.753   9.008  69.423  1.00  0.00    -0.142 C  
HETATM   21  O   UNL     1      -8.427   8.824  70.798  1.00  0.00    -0.138 OA 
HETATM   22  C   UNL     1      -7.663   8.539  68.494  1.00  0.00    -0.103 C  
HETATM   23  C   UNL     1      -8.268   9.576  65.171  1.00  0.00    -0.134 C  
HETATM   24  C   UNL     1      -7.152   9.746  67.599  1.00  0.00    -0.088 C  
HETATM   25  C   UNL     1      -6.582   7.687  69.209  1.00  0.00    -0.040 C  
HETATM   26  H   UNL     1      -7.564   9.100  71.084  1.00  0.00     0.000 HD 
HETATM   27  C   UNL     1      -5.735  10.100  68.150  1.00  0.00    -0.038 C  
HETATM   28  C   UNL     1      -5.352  11.429  67.581  1.00  0.00    -0.050 C  
HETATM   29  C   UNL     1      -6.688  12.111  67.472  1.00  0.00    -0.129 C  
HETATM   30  C   UNL     1      -7.919  11.153  67.695  1.00  0.00    -0.116 C  
HETATM   31  O   UNL     1      -6.732  13.314  67.378  1.00  0.00    -0.167 OA 
HETATM   32  C   UNL     1      -9.336  11.427  66.901  1.00  0.00    -0.191 C  
HETATM   33  C   UNL     1      -9.299  12.960  66.501  1.00  0.00    -0.224 C  
HETATM   34  C   UNL     1      -9.164  10.806  65.426  1.00  0.00    -0.234 C  
HETATM   35  C   UNL     1     -10.492  10.864  64.631  1.00  0.00    -0.384 C  
BRANCH  17  36
HETATM   36  C   UNL     1     -10.367   7.950  67.556  1.00  0.00    -0.329 C  
HETATM   37  C   UNL     1     -10.931   6.782  67.217  1.00  0.00    -0.433 C  
ENDBRANCH  17  36
ENDBRANCH  14  15
ENDBRANCH  12  14
ENDBRANCH  11  12
ENDBRANCH  10  11
ENDBRANCH   8  10
TORSDOF 6
ENDMDL
MODEL       11
REMARK 921   NORMALIZED FREE ENERGY PREDICTED BY IDOCK:   -6.04 KCAL/MOL
REMARK 922        TOTAL FREE ENERGY PREDICTED BY IDOCK:   -9.91 KCAL/MOL
REMARK 923 INTER-LIGAND FREE ENERGY PREDICTED BY IDOCK:   -8.93 KCAL/MOL
REMARK 924 INTRA-LIGAND FREE ENERGY PREDICTED BY IDOCK:   -0.98 KCAL/MOL
REMARK 927      BINDING AFFINITY PREDICTED BY RF-SCORE:    0.00 PKD
ROOT
HETATM    1  C   UNL     1     -11.905  12.568  66.189  1.00  0.00    -0.397 C  
HETATM    2  C   UNL     1     -12.433  12.819  64.762  1.00  0.00    -0.539 C  
HETATM    3  C   UNL     1     -12.155  14.302  64.515  1.00  0.00    -0.499 C  
HETATM    4  C   UNL     1     -11.506  14.797  65.824  1.00  0.00    -0.322 C  
HETATM    5  C   UNL     1      -9.944  14.691  65.854  1.00  0.00    -0.352 C  
HETATM    6  N   UNL     1     -12.168  13.885  66.762  1.00  0.00    -0.426 NA 
HETATM    7  C   UNL     1     -11.855  14.030  68.159  1.00  0.00    -0.367 C  
HETATM    8  C   UNL     1      -9.347  13.343  66.351  1.00  0.00    -0.172 C  
HETATM    9  C   UNL     1     -10.397  12.170  66.300  1.00  0.00    -0.250 C  
ENDROOT
BRANCH   8  10
HETATM   10  S   UNL     1      -7.733  13.274  67.742  1.00  0.00    -0.176 SA 
BRANCH  10  11
HETATM   11  C   UNL     1      -7.266  11.522  68.241  1.00  0.00    -0.084 C  
BRANCH  11  12
HETATM   12  C   UNL     1      -6.719  10.970  69.719  1.00  0.00    -0.136 C  
HETATM   13  O   UNL     1      -6.278  11.847  70.475  1.00  0.00    -0.250 OA 
BRANCH  12  14
HETATM   14  O   UNL     1      -6.673   9.655  70.172  1.00  0.00    -0.064 OA 
BRANCH  14  15
HETATM   15  C   UNL     1      -7.900   8.612  70.023  1.00  0.00    -0.103 C  
HETATM   16  C   UNL     1      -9.091   9.703  70.054  1.00  0.00    -0.269 C  
HETATM   17  C   UNL     1     -10.558   9.329  69.718  1.00  0.00    -0.244 C  
HETATM   18  C   UNL     1     -10.659   5.135  70.317  1.00  0.00    -0.230 C  
HETATM   19  C   UNL     1     -11.545  10.477  69.392  1.00  0.00    -0.318 C  
HETATM   20  C   UNL     1     -11.104   8.734  71.053  1.00  0.00    -0.270 C  
HETATM   21  O   UNL     1     -11.887   9.591  71.881  1.00  0.00    -0.373 OA 
HETATM   22  C   UNL     1     -11.723   7.374  70.866  1.00  0.00    -0.325 C  
HETATM   23  C   UNL     1      -9.465   5.130  69.333  1.00  0.00    -0.198 C  
HETATM   24  C   UNL     1     -10.742   6.249  71.404  1.00  0.00    -0.297 C  
HETATM   25  C   UNL     1     -13.197   7.308  71.343  1.00  0.00    -0.404 C  
HETATM   26  H   UNL     1     -12.219   9.230  72.694  1.00  0.00     0.000 HD 
HETATM   27  C   UNL     1     -11.393   5.727  72.723  1.00  0.00    -0.328 C  
HETATM   28  C   UNL     1     -10.360   4.921  73.444  1.00  0.00    -0.236 C  
HETATM   29  C   UNL     1      -9.092   5.628  73.052  1.00  0.00    -0.121 C  
HETATM   30  C   UNL     1      -9.274   6.678  71.892  1.00  0.00    -0.147 C  
HETATM   31  O   UNL     1      -8.097   5.469  73.718  1.00  0.00    -0.111 OA 
HETATM   32  C   UNL     1      -8.049   6.955  70.826  1.00  0.00    -0.114 C  
HETATM   33  C   UNL     1      -6.734   6.479  71.571  1.00  0.00    -0.058 C  
HETATM   34  C   UNL     1      -8.121   5.781  69.728  1.00  0.00    -0.104 C  
HETATM   35  C   UNL     1      -7.112   6.020  68.579  1.00  0.00    -0.082 C  
BRANCH  17  36
HETATM   36  C   UNL     1     -10.452   8.449  68.464  1.00  0.00    -0.201 C  
HETATM   37  C   UNL     1     -10.362   8.822  67.180  1.00  0.00    -0.364 C  
ENDBRANCH  17  36
ENDBRANCH  14  15
ENDBRANCH  12  14
ENDBRANCH  11  12
ENDBRANCH  10  11
ENDBRANCH   8  10
TORSDOF 6
ENDMDL
MODEL       12
REMARK 921   NORMALIZED FREE ENERGY PREDICTED BY IDOCK:   -5.97 KCAL/MOL
REMARK 922        TOTAL FREE ENERGY PREDICTED BY IDOCK:   -9.82 KCAL/MOL
REMARK 923 INTER-LIGAND FREE ENERGY PREDICTED BY IDOCK:   -8.80 KCAL/MOL
REMARK 924 INTRA-LIGAND FREE ENERGY PREDICTED BY IDOCK:   -1.02 KCAL/MOL
REMARK 927      BINDING AFFINITY PREDICTED BY RF-SCORE:    0.00 PKD
ROOT
HETATM    1  C   UNL     1     -12.026  13.964  64.264  1.00  0.00    -0.444 C  
HETATM    2  C   UNL     1     -12.259  12.684  63.435  1.00  0.00    -0.610 C  
HETATM    3  C   UNL     1     -11.161  11.729  63.902  1.00  0.00    -0.482 C  
HETATM    4  C   UNL     1     -10.367  12.535  64.950  1.00  0.00    -0.300 C  
HETATM    5  C   UNL     1     -10.885  12.376  66.419  1.00  0.00    -0.291 C  
HETATM    6  N   UNL     1     -10.574  13.880  64.403  1.00  0.00    -0.344 NA 
HETATM    7  C   UNL     1      -9.951  14.978  65.093  1.00  0.00    -0.234 C  
HETATM    8  C   UNL     1     -12.008  13.354  66.871  1.00  0.00    -0.385 C  
HETATM    9  C   UNL     1     -12.746  14.021  65.650  1.00  0.00    -0.515 C  
ENDROOT
BRANCH   8  10
HETATM   10  S   UNL     1     -11.937  14.353  68.753  1.00  0.00    -0.257 SA 
BRANCH  10  11
HETATM   11  C   UNL     1     -11.567  13.195  70.188  1.00  0.00    -0.074 C  
BRANCH  11  12
HETATM   12  C   UNL     1     -12.167  11.663  70.473  1.00  0.00    -0.361 C  
HETATM   13  O   UNL     1     -12.638  11.488  71.606  1.00  0.00    -0.291 OA 
BRANCH  12  14
HETATM   14  O   UNL     1     -12.163  10.573  69.609  1.00  0.00    -0.244 OA 
BRANCH  14  15
HETATM   15  C   UNL     1     -11.018   9.431  69.611  1.00  0.00    -0.197 C  
HETATM   16  C   UNL     1     -11.557   8.614  70.897  1.00  0.00    -0.307 C  
HETATM   17  C   UNL     1     -10.984   7.227  71.289  1.00  0.00    -0.264 C  
HETATM   18  C   UNL     1      -7.205   7.152  69.373  1.00  0.00    -0.084 C  
HETATM   19  C   UNL     1     -11.802   6.355  72.274  1.00  0.00    -0.315 C  
HETATM   20  C   UNL     1      -9.687   7.573  72.085  1.00  0.00    -0.164 C  
HETATM   21  O   UNL     1      -9.765   7.548  73.509  1.00  0.00    -0.261 OA 
HETATM   22  C   UNL     1      -8.476   6.854  71.550  1.00  0.00    -0.114 C  
HETATM   23  C   UNL     1      -8.025   7.477  68.102  1.00  0.00    -0.123 C  
HETATM   24  C   UNL     1      -7.573   7.855  70.714  1.00  0.00    -0.078 C  
HETATM   25  C   UNL     1      -7.761   5.992  72.623  1.00  0.00    -0.100 C  
HETATM   26  H   UNL     1      -8.976   7.759  73.993  1.00  0.00     0.000 HD 
HETATM   27  C   UNL     1      -6.313   8.116  71.598  1.00  0.00    -0.045 C  
HETATM   28  C   UNL     1      -5.599   9.298  71.024  1.00  0.00    -0.047 C  
HETATM   29  C   UNL     1      -6.741  10.109  70.477  1.00  0.00    -0.096 C  
HETATM   30  C   UNL     1      -8.117   9.342  70.446  1.00  0.00    -0.178 C  
HETATM   31  O   UNL     1      -6.577  11.284  70.251  1.00  0.00    -0.213 OA 
HETATM   32  C   UNL     1      -9.218   9.666  69.264  1.00  0.00    -0.186 C  
HETATM   33  C   UNL     1      -8.848  11.112  68.734  1.00  0.00    -0.128 C  
HETATM   34  C   UNL     1      -8.762   8.828  67.968  1.00  0.00    -0.141 C  
HETATM   35  C   UNL     1      -9.810   8.928  66.834  1.00  0.00    -0.288 C  
BRANCH  17  36
HETATM   36  C   UNL     1     -10.897   6.459  69.963  1.00  0.00    -0.366 C  
HETATM   37  C   UNL     1     -10.511   5.194  69.747  1.00  0.00    -0.274 C  
ENDBRANCH  17  36
ENDBRANCH  14  15
ENDBRANCH  12  14
ENDBRANCH  11  12
ENDBRANCH  10  11
ENDBRANCH   8  10
TORSDOF 6
ENDMDL
MODEL       13
REMARK 921   NORMALIZED FREE ENERGY PREDICTED BY IDOCK:   -5.95 KCAL/MOL
REMARK 922        TOTAL FREE ENERGY PREDICTED BY IDOCK:   -9.80 KCAL/MOL
REMARK 923 INTER-LIGAND FREE ENERGY PREDICTED BY IDOCK:   -8.62 KCAL/MOL
REMARK 924 INTRA-LIGAND FREE ENERGY PREDICTED BY IDOCK:   -1.17 KCAL/MOL
REMARK 927      BINDING AFFINITY PREDICTED BY RF-SCORE:    0.00 PKD
ROOT
HETATM    1  C   UNL     1     -11.447   6.115  71.058  1.00  0.00    -0.248 C  
HETATM    2  C   UNL     1     -12.366   7.112  71.794  1.00  0.00    -0.385 C  
HETATM    3  C   UNL     1     -11.420   8.218  72.264  1.00  0.00    -0.452 C  
HETATM    4  C   UNL     1     -10.026   7.766  71.779  1.00  0.00    -0.175 C  
HETATM    5  C   UNL     1      -9.637   8.282  70.354  1.00  0.00    -0.174 C  
HETATM    6  N   UNL     1     -10.228   6.314  71.838  1.00  0.00    -0.199 NA 
HETATM    7  C   UNL     1      -9.115   5.477  71.478  1.00  0.00    -0.139 C  
HETATM    8  C   UNL     1     -10.075   7.398  69.150  1.00  0.00    -0.189 C  
HETATM    9  C   UNL     1     -11.221   6.389  69.535  1.00  0.00    -0.477 C  
ENDROOT
BRANCH   8  10
HETATM   10  S   UNL     1      -8.745   6.943  67.547  1.00  0.00    -0.119 SA 
BRANCH  10  11
HETATM   11  C   UNL     1      -7.608   8.374  67.105  1.00  0.00    -0.093 C  
BRANCH  11  12
HETATM   12  C   UNL     1      -7.922   9.692  66.129  1.00  0.00    -0.108 C  
HETATM   13  O   UNL     1      -8.445   9.423  65.038  1.00  0.00    -0.139 OA 
BRANCH  12  14
HETATM   14  O   UNL     1      -7.634  11.029  66.386  1.00  0.00    -0.143 OA 
BRANCH  14  15
HETATM   15  C   UNL     1      -8.763  12.149  66.678  1.00  0.00    -0.153 C  
HETATM   16  C   UNL     1      -7.772  13.278  67.271  1.00  0.00    -0.100 C  
HETATM   17  C   UNL     1      -8.247  14.731  67.539  1.00  0.00    -0.201 C  
HETATM   18  C   UNL     1     -12.458  14.346  67.826  1.00  0.00     0.207 C  
HETATM   19  C   UNL     1      -7.167  15.825  67.727  1.00  0.00    -0.172 C  
HETATM   20  C   UNL     1      -8.939  14.643  68.934  1.00  0.00    -0.136 C  
HETATM   21  O   UNL     1      -8.182  15.060  70.069  1.00  0.00    -0.369 OA 
HETATM   22  C   UNL     1     -10.335  15.209  68.920  1.00  0.00    -0.243 C  
HETATM   23  C   UNL     1     -12.326  13.666  66.443  1.00  0.00    -0.441 C  
HETATM   24  C   UNL     1     -11.401  14.033  68.928  1.00  0.00    -0.314 C  
HETATM   25  C   UNL     1     -10.537  16.348  69.953  1.00  0.00    -0.245 C  
HETATM   26  H   UNL     1      -8.603  15.006  70.918  1.00  0.00     0.000 HD 
HETATM   27  C   UNL     1     -12.028  14.052  70.358  1.00  0.00    -0.398 C  
HETATM   28  C   UNL     1     -12.780  12.770  70.534  1.00  0.00    -0.077 C  
HETATM   29  C   UNL     1     -11.958  11.818  69.709  1.00  0.00    -0.322 C  
HETATM   30  C   UNL     1     -10.878  12.521  68.802  1.00  0.00    -0.276 C  
HETATM   31  O   UNL     1     -12.066  10.630  69.896  1.00  0.00    -0.303 OA 
HETATM   32  C   UNL     1     -10.460  11.862  67.351  1.00  0.00    -0.242 C  
HETATM   33  C   UNL     1     -10.861  10.333  67.457  1.00  0.00    -0.355 C  
HETATM   34  C   UNL     1     -11.589  12.317  66.298  1.00  0.00    -0.446 C  
HETATM   35  C   UNL     1     -11.222  11.887  64.857  1.00  0.00    -0.350 C  
BRANCH  17  36
HETATM   36  C   UNL     1      -9.062  15.103  66.292  1.00  0.00    -0.313 C  
HETATM   37  C   UNL     1      -9.556  16.298  65.936  1.00  0.00    -0.336 C  
ENDBRANCH  17  36
ENDBRANCH  14  15
ENDBRANCH  12  14
ENDBRANCH  11  12
ENDBRANCH  10  11
ENDBRANCH   8  10
TORSDOF 6
ENDMDL
MODEL       14
REMARK 921   NORMALIZED FREE ENERGY PREDICTED BY IDOCK:   -5.95 KCAL/MOL
REMARK 922        TOTAL FREE ENERGY PREDICTED BY IDOCK:   -9.79 KCAL/MOL
REMARK 923 INTER-LIGAND FREE ENERGY PREDICTED BY IDOCK:   -8.38 KCAL/MOL
REMARK 924 INTRA-LIGAND FREE ENERGY PREDICTED BY IDOCK:   -1.41 KCAL/MOL
REMARK 927      BINDING AFFINITY PREDICTED BY RF-SCORE:    0.00 PKD
ROOT
HETATM    1  C   UNL     1     -11.617   6.764  71.638  1.00  0.00    -0.295 C  
HETATM    2  C   UNL     1     -11.506   5.664  72.714  1.00  0.00    -0.328 C  
HETATM    3  C   UNL     1     -10.369   4.770  72.221  1.00  0.00    -0.264 C  
HETATM    4  C   UNL     1      -9.922   5.411  70.890  1.00  0.00    -0.202 C  
HETATM    5  C   UNL     1      -8.785   6.477  71.033  1.00  0.00    -0.138 C  
HETATM    6  N   UNL     1     -11.207   5.983  70.474  1.00  0.00    -0.320 NA 
HETATM    7  C   UNL     1     -11.245   6.676  69.214  1.00  0.00    -0.266 C  
HETATM    8  C   UNL     1      -9.234   7.941  71.308  1.00  0.00    -0.146 C  
HETATM    9  C   UNL     1     -10.711   8.021  71.849  1.00  0.00    -0.311 C  
ENDROOT
BRANCH   8  10
HETATM   10  S   UNL     1      -8.391   9.592  70.255  1.00  0.00    -0.188 SA 
BRANCH  10  11
HETATM   11  C   UNL     1      -7.695   9.116  68.575  1.00  0.00    -0.093 C  
BRANCH  11  12
HETATM   12  C   UNL     1      -7.017  10.101  67.410  1.00  0.00    -0.082 C  
HETATM   13  O   UNL     1      -5.786  10.229  67.484  1.00  0.00    -0.045 OA 
BRANCH  12  14
HETATM   14  O   UNL     1      -7.672  10.809  66.407  1.00  0.00    -0.134 OA 
BRANCH  14  15
HETATM   15  C   UNL     1      -8.725  12.003  66.694  1.00  0.00    -0.171 C  
HETATM   16  C   UNL     1      -7.660  13.070  67.275  1.00  0.00    -0.097 C  
HETATM   17  C   UNL     1      -8.037  14.552  67.533  1.00  0.00    -0.204 C  
HETATM   18  C   UNL     1     -12.263  14.446  67.837  1.00  0.00    -0.178 C  
HETATM   19  C   UNL     1      -6.887  15.575  67.710  1.00  0.00    -0.182 C  
HETATM   20  C   UNL     1      -8.728  14.521  68.931  1.00  0.00    -0.105 C  
HETATM   21  O   UNL     1      -7.942  14.896  70.060  1.00  0.00    -0.385 OA 
HETATM   22  C   UNL     1     -10.084  15.177  68.917  1.00  0.00    -0.238 C  
HETATM   23  C   UNL     1     -12.181  13.749  66.458  1.00  0.00    -0.475 C  
HETATM   24  C   UNL     1     -11.225  14.074  68.938  1.00  0.00    -0.303 C  
HETATM   25  C   UNL     1     -10.207  16.335  69.942  1.00  0.00    -0.092 C  
HETATM   26  H   UNL     1      -8.362  14.876  70.911  1.00  0.00     0.000 HD 
HETATM   27  C   UNL     1     -11.844  14.144  70.369  1.00  0.00    -0.367 C  
HETATM   28  C   UNL     1     -12.677  12.917  70.558  1.00  0.00    -0.090 C  
HETATM   29  C   UNL     1     -11.923  11.906  69.738  1.00  0.00    -0.307 C  
HETATM   30  C   UNL     1     -10.802  12.529  68.822  1.00  0.00    -0.276 C  
HETATM   31  O   UNL     1     -12.108  10.729  69.934  1.00  0.00    -0.309 OA 
HETATM   32  C   UNL     1     -10.434  11.833  67.375  1.00  0.00    -0.238 C  
HETATM   33  C   UNL     1     -10.934  10.335  67.495  1.00  0.00    -0.344 C  
HETATM   34  C   UNL     1     -11.534  12.354  66.322  1.00  0.00    -0.423 C  
HETATM   35  C   UNL     1     -11.201  11.889  64.883  1.00  0.00    -0.350 C  
BRANCH  17  36
HETATM   36  C   UNL     1      -8.831  14.968  66.286  1.00  0.00    -0.159 C  
HETATM   37  C   UNL     1      -9.141  16.200  65.859  1.00  0.00    -0.268 C  
ENDBRANCH  17  36
ENDBRANCH  14  15
ENDBRANCH  12  14
ENDBRANCH  11  12
ENDBRANCH  10  11
ENDBRANCH   8  10
TORSDOF 6
ENDMDL
MODEL       15
REMARK 921   NORMALIZED FREE ENERGY PREDICTED BY IDOCK:   -5.94 KCAL/MOL
REMARK 922        TOTAL FREE ENERGY PREDICTED BY IDOCK:   -9.77 KCAL/MOL
REMARK 923 INTER-LIGAND FREE ENERGY PREDICTED BY IDOCK:   -8.12 KCAL/MOL
REMARK 924 INTRA-LIGAND FREE ENERGY PREDICTED BY IDOCK:   -1.66 KCAL/MOL
REMARK 927      BINDING AFFINITY PREDICTED BY RF-SCORE:    0.00 PKD
ROOT
HETATM    1  C   UNL     1      -9.840  14.347  67.149  1.00  0.00    -0.254 C  
HETATM    2  C   UNL     1     -10.407  14.214  68.578  1.00  0.00    -0.249 C  
HETATM    3  C   UNL     1     -11.920  14.131  68.375  1.00  0.00    -0.366 C  
HETATM    4  C   UNL     1     -12.112  14.241  66.847  1.00  0.00    -0.409 C  
HETATM    5  C   UNL     1     -12.114  12.869  66.094  1.00  0.00    -0.458 C  
HETATM    6  N   UNL     1     -10.947  15.075  66.534  1.00  0.00    -0.325 NA 
HETATM    7  C   UNL     1     -10.755  15.455  65.160  1.00  0.00    -0.440 C  
HETATM    8  C   UNL     1     -10.729  12.324  65.637  1.00  0.00    -0.267 C  
HETATM    9  C   UNL     1      -9.536  13.005  66.407  1.00  0.00    -0.228 C  
ENDROOT
BRANCH   8  10
HETATM   10  S   UNL     1     -10.425  11.523  63.685  1.00  0.00    -0.462 SA 
BRANCH  10  11
HETATM   11  C   UNL     1      -9.255  10.052  63.667  1.00  0.00    -0.274 C  
BRANCH  11  12
HETATM   12  C   UNL     1      -8.816   9.053  64.931  1.00  0.00    -0.148 C  
HETATM   13  O   UNL     1      -7.616   8.744  64.962  1.00  0.00    -0.094 OA 
BRANCH  12  14
HETATM   14  O   UNL     1      -9.639   8.512  65.914  1.00  0.00    -0.197 OA 
BRANCH  14  15
HETATM   15  C   UNL     1      -9.163   8.251  67.438  1.00  0.00    -0.141 C  
HETATM   16  C   UNL     1      -8.999   6.648  67.321  1.00  0.00    -0.115 C  
HETATM   17  C   UNL     1      -8.328   5.807  68.439  1.00  0.00    -0.107 C  
HETATM   18  C   UNL     1      -8.637   8.295  71.855  1.00  0.00    -0.224 C  
HETATM   19  C   UNL     1      -7.864   4.371  68.088  1.00  0.00    -0.079 C  
HETATM   20  C   UNL     1      -9.474   5.587  69.475  1.00  0.00    -0.141 C  
HETATM   21  O   UNL     1     -10.161   4.339  69.438  1.00  0.00    -0.124 OA 
HETATM   22  C   UNL     1      -9.074   5.997  70.869  1.00  0.00    -0.161 C  
HETATM   23  C   UNL     1      -7.940   9.342  70.954  1.00  0.00    -0.161 C  
HETATM   24  C   UNL     1      -9.745   7.385  71.243  1.00  0.00    -0.171 C  
HETATM   25  C   UNL     1      -9.213   4.848  71.901  1.00  0.00    -0.171 C  
HETATM   26  H   UNL     1     -10.858   4.205  70.069  1.00  0.00     0.000 HD 
HETATM   27  C   UNL     1     -10.856   7.042  72.284  1.00  0.00    -0.262 C  
HETATM   28  C   UNL     1     -11.736   8.245  72.414  1.00  0.00    -0.463 C  
HETATM   29  C   UNL     1     -11.673   8.820  71.026  1.00  0.00    -0.282 C  
HETATM   30  C   UNL     1     -10.566   8.172  70.111  1.00  0.00    -0.237 C  
HETATM   31  O   UNL     1     -12.529   9.593  70.668  1.00  0.00    -0.212 OA 
HETATM   32  C   UNL     1      -9.813   9.076  68.958  1.00  0.00    -0.178 C  
HETATM   33  C   UNL     1     -10.797  10.283  68.666  1.00  0.00    -0.272 C  
HETATM   34  C   UNL     1      -8.656   9.907  69.709  1.00  0.00    -0.219 C  
HETATM   35  C   UNL     1      -7.772  10.680  68.700  1.00  0.00    -0.110 C  
BRANCH  17  36
HETATM   36  C   UNL     1      -7.078   6.609  68.825  1.00  0.00    -0.082 C  
HETATM   37  C   UNL     1      -5.949   6.795  68.126  1.00  0.00    -0.031 C  
ENDBRANCH  17  36
ENDBRANCH  14  15
ENDBRANCH  12  14
ENDBRANCH  11  12
ENDBRANCH  10  11
ENDBRANCH   8  10
TORSDOF 6
ENDMDL
MODEL       16
REMARK 921   NORMALIZED FREE ENERGY PREDICTED BY IDOCK:   -5.93 KCAL/MOL
REMARK 922        TOTAL FREE ENERGY PREDICTED BY IDOCK:   -9.77 KCAL/MOL
REMARK 923 INTER-LIGAND FREE ENERGY PREDICTED BY IDOCK:   -8.65 KCAL/MOL
REMARK 924 INTRA-LIGAND FREE ENERGY PREDICTED BY IDOCK:   -1.11 KCAL/MOL
REMARK 927      BINDING AFFINITY PREDICTED BY RF-SCORE:    0.00 PKD
ROOT
HETATM    1  C   UNL     1     -11.204  14.494  67.900  1.00  0.00    -0.295 C  
HETATM    2  C   UNL     1     -11.519  15.899  68.455  1.00  0.00    -0.377 C  
HETATM    3  C   UNL     1     -10.725  16.845  67.554  1.00  0.00    -0.270 C  
HETATM    4  C   UNL     1     -10.000  15.915  66.559  1.00  0.00    -0.272 C  
HETATM    5  C   UNL     1     -10.800  15.619  65.246  1.00  0.00    -0.420 C  
HETATM    6  N   UNL     1      -9.846  14.739  67.423  1.00  0.00    -0.221 NA 
HETATM    7  C   UNL     1      -9.164  13.598  66.872  1.00  0.00    -0.250 C  
HETATM    8  C   UNL     1     -11.782  14.412  65.286  1.00  0.00    -0.364 C  
HETATM    9  C   UNL     1     -12.144  13.985  66.758  1.00  0.00    -0.480 C  
ENDROOT
BRANCH   8  10
HETATM   10  S   UNL     1     -11.872  12.985  63.706  1.00  0.00    -0.513 SA 
BRANCH  10  11
HETATM   11  C   UNL     1     -10.374  11.851  63.651  1.00  0.00    -0.441 C  
BRANCH  11  12
HETATM   12  C   UNL     1      -9.808  10.812  64.829  1.00  0.00    -0.300 C  
HETATM   13  O   UNL     1      -8.661  10.382  64.642  1.00  0.00    -0.174 OA 
BRANCH  12  14
HETATM   14  O   UNL     1     -10.483  10.357  65.958  1.00  0.00    -0.219 OA 
BRANCH  14  15
HETATM   15  C   UNL     1      -9.779   9.511  67.143  1.00  0.00    -0.171 C  
HETATM   16  C   UNL     1      -9.962   8.050  66.477  1.00  0.00    -0.283 C  
HETATM   17  C   UNL     1      -9.265   6.790  67.055  1.00  0.00    -0.152 C  
HETATM   18  C   UNL     1      -8.400   7.897  71.053  1.00  0.00    -0.112 C  
HETATM   19  C   UNL     1      -9.173   5.533  66.154  1.00  0.00    -0.166 C  
HETATM   20  C   UNL     1     -10.206   6.348  68.218  1.00  0.00    -0.171 C  
HETATM   21  O   UNL     1     -11.120   5.286  67.955  1.00  0.00     0.175 OA 
HETATM   22  C   UNL     1      -9.468   6.177  69.521  1.00  0.00    -0.156 C  
HETATM   23  C   UNL     1      -7.699   9.109  70.393  1.00  0.00    -0.132 C  
HETATM   24  C   UNL     1      -9.763   7.406  70.480  1.00  0.00    -0.175 C  
HETATM   25  C   UNL     1      -9.627   4.758  70.126  1.00  0.00    -0.265 C  
HETATM   26  H   UNL     1     -11.693   5.017  68.663  1.00  0.00     0.000 HD 
HETATM   27  C   UNL     1     -10.695   6.843  71.599  1.00  0.00    -0.246 C  
HETATM   28  C   UNL     1     -11.276   8.012  72.329  1.00  0.00    -0.402 C  
HETATM   29  C   UNL     1     -11.374   9.038  71.234  1.00  0.00    -0.319 C  
HETATM   30  C   UNL     1     -10.619   8.639  69.910  1.00  0.00    -0.227 C  
HETATM   31  O   UNL     1     -12.113   9.983  71.373  1.00  0.00    -0.367 OA 
HETATM   32  C   UNL     1      -9.942   9.802  68.960  1.00  0.00    -0.189 C  
HETATM   33  C   UNL     1     -10.705  11.140  69.333  1.00  0.00    -0.220 C  
HETATM   34  C   UNL     1      -8.520  10.165  69.621  1.00  0.00    -0.172 C  
HETATM   35  C   UNL     1      -7.715  11.140  68.728  1.00  0.00    -0.136 C  
BRANCH  17  36
HETATM   36  C   UNL     1      -7.830   7.247  67.350  1.00  0.00    -0.112 C  
HETATM   37  C   UNL     1      -6.686   6.558  67.230  1.00  0.00    -0.060 C  
ENDBRANCH  17  36
ENDBRANCH  14  15
ENDBRANCH  12  14
ENDBRANCH  11  12
ENDBRANCH  10  11
ENDBRANCH   8  10
TORSDOF 6
ENDMDL
MODEL       17
REMARK 921   NORMALIZED FREE ENERGY PREDICTED BY IDOCK:   -5.85 KCAL/MOL
REMARK 922        TOTAL FREE ENERGY PREDICTED BY IDOCK:   -9.66 KCAL/MOL
REMARK 923 INTER-LIGAND FREE ENERGY PREDICTED BY IDOCK:   -8.25 KCAL/MOL
REMARK 924 INTRA-LIGAND FREE ENERGY PREDICTED BY IDOCK:   -1.40 KCAL/MOL
REMARK 927      BINDING AFFINITY PREDICTED BY RF-SCORE:    0.00 PKD
ROOT
HETATM    1  C   UNL     1     -10.039  17.162  68.053  1.00  0.00    -0.311 C  
HETATM    2  C   UNL     1      -8.611  17.472  68.548  1.00  0.00    -0.276 C  
HETATM    3  C   UNL     1      -8.040  16.106  68.928  1.00  0.00    -0.228 C  
HETATM    4  C   UNL     1      -9.188  15.115  68.642  1.00  0.00    -0.196 C  
HETATM    5  C   UNL     1      -9.182  14.517  67.195  1.00  0.00    -0.233 C  
HETATM    6  N   UNL     1     -10.324  16.006  68.899  1.00  0.00    -0.222 NA 
HETATM    7  C   UNL     1     -11.644  15.450  68.767  1.00  0.00    -0.368 C  
HETATM    8  C   UNL     1      -9.936  15.330  66.103  1.00  0.00    -0.302 C  
HETATM    9  C   UNL     1     -10.178  16.826  66.532  1.00  0.00    -0.319 C  
ENDROOT
BRANCH   8  10
HETATM   10  S   UNL     1     -11.250  14.393  64.710  1.00  0.00    -0.378 SA 
BRANCH  10  11
HETATM   11  C   UNL     1     -10.610  12.735  64.096  1.00  0.00    -0.415 C  
BRANCH  11  12
HETATM   12  C   UNL     1     -10.054  11.437  64.987  1.00  0.00    -0.274 C  
HETATM   13  O   UNL     1      -8.893  11.087  64.732  1.00  0.00    -0.144 OA 
BRANCH  12  14
HETATM   14  O   UNL     1     -10.749  10.699  65.939  1.00  0.00    -0.152 OA 
BRANCH  14  15
HETATM   15  C   UNL     1     -10.034   9.897  67.149  1.00  0.00    -0.200 C  
HETATM   16  C   UNL     1     -10.240   8.411  66.550  1.00  0.00    -0.277 C  
HETATM   17  C   UNL     1      -9.547   7.170  67.171  1.00  0.00    -0.191 C  
HETATM   18  C   UNL     1      -8.606   8.442  71.103  1.00  0.00    -0.187 C  
HETATM   19  C   UNL     1      -9.480   5.875  66.325  1.00  0.00    -0.161 C  
HETATM   20  C   UNL     1     -10.472   6.789  68.368  1.00  0.00    -0.205 C  
HETATM   21  O   UNL     1     -11.401   5.725  68.166  1.00  0.00    -0.041 OA 
HETATM   22  C   UNL     1      -9.715   6.668  69.664  1.00  0.00    -0.162 C  
HETATM   23  C   UNL     1      -7.905   9.616  70.380  1.00  0.00    -0.181 C  
HETATM   24  C   UNL     1      -9.983   7.940  70.574  1.00  0.00    -0.191 C  
HETATM   25  C   UNL     1      -9.877   5.278  70.333  1.00  0.00    -0.281 C  
HETATM   26  H   UNL     1     -11.964   5.493  68.894  1.00  0.00     0.000 HD 
HETATM   27  C   UNL     1     -10.902   7.435  71.731  1.00  0.00    -0.253 C  
HETATM   28  C   UNL     1     -11.460   8.641  72.419  1.00  0.00    -0.369 C  
HETATM   29  C   UNL     1     -11.567   9.619  71.281  1.00  0.00    -0.393 C  
HETATM   30  C   UNL     1     -10.836   9.155  69.964  1.00  0.00    -0.256 C  
HETATM   31  O   UNL     1     -12.294  10.577  71.391  1.00  0.00    -0.365 OA 
HETATM   32  C   UNL     1     -10.164  10.269  68.954  1.00  0.00    -0.220 C  
HETATM   33  C   UNL     1     -10.909  11.629  69.279  1.00  0.00    -0.203 C  
HETATM   34  C   UNL     1      -8.728  10.646  69.575  1.00  0.00     0.030 C  
HETATM   35  C   UNL     1      -7.929  11.573  68.628  1.00  0.00    -0.135 C  
BRANCH  17  36
HETATM   36  C   UNL     1      -8.102   7.625  67.424  1.00  0.00    -0.119 C  
HETATM   37  C   UNL     1      -6.966   6.924  67.302  1.00  0.00    -0.078 C  
ENDBRANCH  17  36
ENDBRANCH  14  15
ENDBRANCH  12  14
ENDBRANCH  11  12
ENDBRANCH  10  11
ENDBRANCH   8  10
TORSDOF 6
ENDMDL
MODEL       18
REMARK 921   NORMALIZED FREE ENERGY PREDICTED BY IDOCK:   -5.85 KCAL/MOL
REMARK 922        TOTAL FREE ENERGY PREDICTED BY IDOCK:   -9.66 KCAL/MOL
REMARK 923 INTER-LIGAND FREE ENERGY PREDICTED BY IDOCK:   -8.30 KCAL/MOL
REMARK 924 INTRA-LIGAND FREE ENERGY PREDICTED BY IDOCK:   -1.35 KCAL/MOL
REMARK 927      BINDING AFFINITY PREDICTED BY RF-SCORE:    0.00 PKD
ROOT
HETATM    1  C   UNL     1     -10.036   5.188  70.899  1.00  0.00    -0.210 C  
HETATM    2  C   UNL     1      -9.548   3.862  70.278  1.00  0.00    -0.271 C  
HETATM    3  C   UNL     1      -9.602   4.111  68.771  1.00  0.00    -0.210 C  
HETATM    4  C   UNL     1     -10.134   5.554  68.636  1.00  0.00    -0.183 C  
HETATM    5  C   UNL     1      -9.021   6.654  68.599  1.00  0.00    -0.124 C  
HETATM    6  N   UNL     1     -10.960   5.602  69.847  1.00  0.00    -0.313 NA 
HETATM    7  C   UNL     1     -11.690   6.816  70.102  1.00  0.00    -0.313 C  
HETATM    8  C   UNL     1      -8.550   7.214  69.973  1.00  0.00    -0.141 C  
HETATM    9  C   UNL     1      -8.933   6.263  71.169  1.00  0.00    -0.146 C  
ENDROOT
BRANCH   8  10
HETATM   10  S   UNL     1      -8.298   9.304  70.308  1.00  0.00    -0.202 SA 
BRANCH  10  11
HETATM   11  C   UNL     1      -7.196  10.127  69.027  1.00  0.00    -0.076 C  
BRANCH  11  12
HETATM   12  C   UNL     1      -7.225   9.962  67.365  1.00  0.00    -0.086 C  
HETATM   13  O   UNL     1      -6.813   8.874  66.940  1.00  0.00    -0.074 OA 
BRANCH  12  14
HETATM   14  O   UNL     1      -7.621  10.906  66.423  1.00  0.00    -0.139 OA 
BRANCH  14  15
HETATM   15  C   UNL     1      -8.739  12.040  66.705  1.00  0.00    -0.192 C  
HETATM   16  C   UNL     1      -7.731  13.185  67.236  1.00  0.00    -0.107 C  
HETATM   17  C   UNL     1      -8.194  14.647  67.467  1.00  0.00    -0.203 C  
HETATM   18  C   UNL     1     -12.398  14.288  67.870  1.00  0.00    -0.021 C  
HETATM   19  C   UNL     1      -7.107  15.743  67.594  1.00  0.00    -0.192 C  
HETATM   20  C   UNL     1      -8.852  14.608  68.882  1.00  0.00    -0.136 C  
HETATM   21  O   UNL     1      -8.067  15.059  69.983  1.00  0.00    -0.360 OA 
HETATM   22  C   UNL     1     -10.247  15.179  68.882  1.00  0.00    -0.236 C  
HETATM   23  C   UNL     1     -12.302  13.563  66.507  1.00  0.00    -0.382 C  
HETATM   24  C   UNL     1     -11.315  14.008  68.955  1.00  0.00    -0.319 C  
HETATM   25  C   UNL     1     -10.420  16.352  69.882  1.00  0.00    -0.201 C  
HETATM   26  H   UNL     1      -8.467  15.035  70.843  1.00  0.00     0.000 HD 
HETATM   27  C   UNL     1     -11.907  14.076  70.398  1.00  0.00    -0.356 C  
HETATM   28  C   UNL     1     -12.659  12.804  70.635  1.00  0.00    -0.248 C  
HETATM   29  C   UNL     1     -11.860  11.822  69.822  1.00  0.00    -0.349 C  
HETATM   30  C   UNL     1     -10.800  12.490  68.867  1.00  0.00    -0.238 C  
HETATM   31  O   UNL     1     -11.967  10.641  70.051  1.00  0.00    -0.289 OA 
HETATM   32  C   UNL     1     -10.420  11.782  67.429  1.00  0.00    -0.238 C  
HETATM   33  C   UNL     1     -10.823  10.259  67.595  1.00  0.00    -0.363 C  
HETATM   34  C   UNL     1     -11.573  12.207  66.389  1.00  0.00    -0.429 C  
HETATM   35  C   UNL     1     -11.242  11.728  64.954  1.00  0.00    -0.328 C  
BRANCH  17  36
HETATM   36  C   UNL     1      -9.039  14.981  66.229  1.00  0.00    -0.288 C  
HETATM   37  C   UNL     1      -9.513  16.170  65.831  1.00  0.00    -0.337 C  
ENDBRANCH  17  36
ENDBRANCH  14  15
ENDBRANCH  12  14
ENDBRANCH  11  12
ENDBRANCH  10  11
ENDBRANCH   8  10
TORSDOF 6
ENDMDL
MODEL       19
REMARK 921   NORMALIZED FREE ENERGY PREDICTED BY IDOCK:   -5.85 KCAL/MOL
REMARK 922        TOTAL FREE ENERGY PREDICTED BY IDOCK:   -9.65 KCAL/MOL
REMARK 923 INTER-LIGAND FREE ENERGY PREDICTED BY IDOCK:   -8.32 KCAL/MOL
REMARK 924 INTRA-LIGAND FREE ENERGY PREDICTED BY IDOCK:   -1.33 KCAL/MOL
REMARK 927      BINDING AFFINITY PREDICTED BY RF-SCORE:    0.00 PKD
ROOT
HETATM    1  C   UNL     1     -10.259   6.607  71.656  1.00  0.00    -0.192 C  
HETATM    2  C   UNL     1     -11.708   6.573  71.125  1.00  0.00    -0.392 C  
HETATM    3  C   UNL     1     -12.221   7.996  71.343  1.00  0.00    -0.335 C  
HETATM    4  C   UNL     1     -11.037   8.738  71.998  1.00  0.00    -0.371 C  
HETATM    5  C   UNL     1     -10.066   9.432  70.985  1.00  0.00    -0.353 C  
HETATM    6  N   UNL     1     -10.428   7.607  72.706  1.00  0.00    -0.280 NA 
HETATM    7  C   UNL     1      -9.260   7.877  73.502  1.00  0.00    -0.276 C  
HETATM    8  C   UNL     1      -8.900   8.562  70.431  1.00  0.00    -0.150 C  
HETATM    9  C   UNL     1      -9.162   7.021  70.621  1.00  0.00    -0.158 C  
ENDROOT
BRANCH   8  10
HETATM   10  S   UNL     1      -6.904   9.301  70.314  1.00  0.00    -0.083 SA 
BRANCH  10  11
HETATM   11  C   UNL     1      -6.814  11.095  69.762  1.00  0.00    -0.089 C  
BRANCH  11  12
HETATM   12  C   UNL     1      -6.325  11.709  68.288  1.00  0.00    -0.050 C  
HETATM   13  O   UNL     1      -5.265  11.239  67.850  1.00  0.00    -0.043 OA 
BRANCH  12  14
HETATM   14  O   UNL     1      -6.946  12.696  67.528  1.00  0.00    -0.126 OA 
BRANCH  14  15
HETATM   15  C   UNL     1      -8.514  12.668  67.132  1.00  0.00    -0.186 C  
HETATM   16  C   UNL     1      -8.409  11.529  65.992  1.00  0.00     0.042 C  
HETATM   17  C   UNL     1      -9.668  10.876  65.362  1.00  0.00    -0.287 C  
HETATM   18  C   UNL     1     -12.731  13.696  66.154  1.00  0.00    -0.295 C  
HETATM   19  C   UNL     1      -9.487   9.549  64.584  1.00  0.00    -0.133 C  
HETATM   20  C   UNL     1     -10.105  11.896  64.266  1.00  0.00    -0.295 C  
HETATM   21  O   UNL     1      -9.725  11.617  62.921  1.00  0.00    -0.505 OA 
HETATM   22  C   UNL     1     -11.553  12.294  64.396  1.00  0.00    -0.428 C  
HETATM   23  C   UNL     1     -12.260  13.550  67.621  1.00  0.00    -0.215 C  
HETATM   24  C   UNL     1     -11.665  13.749  65.018  1.00  0.00    -0.356 C  
HETATM   25  C   UNL     1     -12.376  12.013  63.111  1.00  0.00    -0.394 C  
HETATM   26  H   UNL     1      -9.991  12.238  62.254  1.00  0.00     0.000 HD 
HETATM   27  C   UNL     1     -12.116  14.670  63.841  1.00  0.00    -0.076 C  
HETATM   28  C   UNL     1     -11.911  16.087  64.276  1.00  0.00     0.005 C  
HETATM   29  C   UNL     1     -10.709  15.960  65.170  1.00  0.00    -0.429 C  
HETATM   30  C   UNL     1     -10.326  14.473  65.527  1.00  0.00    -0.379 C  
HETATM   31  O   UNL     1     -10.054  16.943  65.423  1.00  0.00    -0.586 OA 
HETATM   32  C   UNL     1      -9.646  14.121  66.985  1.00  0.00    -0.264 C  
HETATM   33  C   UNL     1      -9.015  15.483  67.491  1.00  0.00    -0.196 C  
HETATM   34  C   UNL     1     -10.854  14.027  68.045  1.00  0.00    -0.257 C  
HETATM   35  C   UNL     1     -10.354  13.544  69.428  1.00  0.00     0.306 C  
BRANCH  17  36
HETATM   36  C   UNL     1     -10.586  10.583  66.558  1.00  0.00    -0.240 C  
HETATM   37  C   UNL     1     -10.774   9.427  67.210  1.00  0.00    -0.258 C  
ENDBRANCH  17  36
ENDBRANCH  14  15
ENDBRANCH  12  14
ENDBRANCH  11  12
ENDBRANCH  10  11
ENDBRANCH   8  10
TORSDOF 6
ENDMDL
MODEL       20
REMARK 921   NORMALIZED FREE ENERGY PREDICTED BY IDOCK:   -5.80 KCAL/MOL
REMARK 922        TOTAL FREE ENERGY PREDICTED BY IDOCK:   -9.58 KCAL/MOL
REMARK 923 INTER-LIGAND FREE ENERGY PREDICTED BY IDOCK:   -8.59 KCAL/MOL
REMARK 924 INTRA-LIGAND FREE ENERGY PREDICTED BY IDOCK:   -0.99 KCAL/MOL
REMARK 927      BINDING AFFINITY PREDICTED BY RF-SCORE:    0.00 PKD
ROOT
HETATM    1  C   UNL     1      -7.531   8.198  64.077  1.00  0.00    -0.115 C  
HETATM    2  C   UNL     1      -8.024   6.873  64.693  1.00  0.00    -0.112 C  
HETATM    3  C   UNL     1      -8.574   7.276  66.061  1.00  0.00    -0.160 C  
HETATM    4  C   UNL     1      -8.340   8.800  66.138  1.00  0.00    -0.123 C  
HETATM    5  C   UNL     1      -9.528   9.667  65.602  1.00  0.00    -0.318 C  
HETATM    6  N   UNL     1      -7.135   8.884  65.305  1.00  0.00    -0.079 NA 
HETATM    7  C   UNL     1      -6.542  10.183  65.129  1.00  0.00    -0.124 C  
HETATM    8  C   UNL     1      -9.524   9.987  64.079  1.00  0.00    -0.237 C  
HETATM    9  C   UNL     1      -8.591   9.012  63.266  1.00  0.00    -0.150 C  
ENDROOT
BRANCH   8  10
HETATM   10  S   UNL     1      -9.923  11.947  63.342  1.00  0.00    -0.337 SA 
BRANCH  10  11
HETATM   11  C   UNL     1     -11.651  12.555  63.765  1.00  0.00    -0.475 C  
BRANCH  11  12
HETATM   12  C   UNL     1     -12.095  13.859  64.708  1.00  0.00    -0.419 C  
HETATM   13  O   UNL     1     -13.129  13.697  65.372  1.00  0.00    -0.704 OA 
BRANCH  12  14
HETATM   14  O   UNL     1     -11.465  15.096  64.802  1.00  0.00    -0.398 OA 
BRANCH  14  15
HETATM   15  C   UNL     1     -10.668  15.599  66.116  1.00  0.00    -0.303 C  
HETATM   16  C   UNL     1     -10.321  17.083  65.581  1.00  0.00    -0.226 C  
HETATM   17  C   UNL     1      -9.732  18.176  66.511  1.00  0.00    -0.344 C  
HETATM   18  C   UNL     1      -8.059  15.946  69.703  1.00  0.00     0.052 C  
HETATM   19  C   UNL     1      -9.795  19.648  66.034  1.00  0.00    -0.462 C  
HETATM   20  C   UNL     1      -8.204  17.857  66.537  1.00  0.00    -0.269 C  
HETATM   21  O   UNL     1      -7.359  18.628  65.686  1.00  0.00    -0.484 OA 
HETATM   22  C   UNL     1      -7.668  17.730  67.939  1.00  0.00    -0.225 C  
HETATM   23  C   UNL     1      -9.474  15.329  69.798  1.00  0.00    -0.107 C  
HETATM   24  C   UNL     1      -7.436  16.202  68.298  1.00  0.00    -0.145 C  
HETATM   25  C   UNL     1      -6.499  18.706  68.231  1.00  0.00    -0.224 C  
HETATM   26  H   UNL     1      -6.430  18.433  65.702  1.00  0.00     0.000 HD 
HETATM   27  C   UNL     1      -5.886  16.008  68.305  1.00  0.00    -0.113 C  
HETATM   28  C   UNL     1      -5.618  14.536  68.299  1.00  0.00    -0.118 C  
HETATM   29  C   UNL     1      -6.785  14.017  67.504  1.00  0.00    -0.108 C  
HETATM   30  C   UNL     1      -7.916  15.084  67.250  1.00  0.00    -0.234 C  
HETATM   31  O   UNL     1      -6.718  12.919  67.004  1.00  0.00    -0.100 OA 
HETATM   32  C   UNL     1      -9.491  14.611  67.143  1.00  0.00    -0.234 C  
HETATM   33  C   UNL     1      -9.439  13.074  66.765  1.00  0.00    -0.250 C  
HETATM   34  C   UNL     1     -10.027  14.453  68.652  1.00  0.00    -0.241 C  
HETATM   35  C   UNL     1     -11.547  14.162  68.683  1.00  0.00    -0.352 C  
BRANCH  17  36
HETATM   36  C   UNL     1     -10.566  18.076  67.796  1.00  0.00    -0.409 C  
HETATM   37  C   UNL     1     -10.500  18.830  68.902  1.00  0.00     0.054 C  
ENDBRANCH  17  36
ENDBRANCH  14  15
ENDBRANCH  12  14
ENDBRANCH  11  12
ENDBRANCH  10  11
ENDBRANCH   8  10
TORSDOF 6
ENDMDL
MODEL       21
REMARK 921   NORMALIZED FREE ENERGY PREDICTED BY IDOCK:   -5.76 KCAL/MOL
REMARK 922        TOTAL FREE ENERGY PREDICTED BY IDOCK:   -9.53 KCAL/MOL
REMARK 923 INTER-LIGAND FREE ENERGY PREDICTED BY IDOCK:   -8.85 KCAL/MOL
REMARK 924 INTRA-LIGAND FREE ENERGY PREDICTED BY IDOCK:   -0.68 KCAL/MOL
REMARK 927      BINDING AFFINITY PREDICTED BY RF-SCORE:    0.00 PKD
ROOT
HETATM    1  C   UNL     1     -10.362  18.503  67.375  1.00  0.00    -0.400 C  
HETATM    2  C   UNL     1      -9.293  19.611  67.287  1.00  0.00    -0.429 C  
HETATM    3  C   UNL     1      -8.011  18.936  67.776  1.00  0.00    -0.275 C  
HETATM    4  C   UNL     1      -8.442  17.496  68.126  1.00  0.00    -0.254 C  
HETATM    5  C   UNL     1      -8.318  16.477  66.945  1.00  0.00    -0.245 C  
HETATM    6  N   UNL     1      -9.830  17.766  68.518  1.00  0.00    -0.336 NA 
HETATM    7  C   UNL     1     -10.621  16.649  68.963  1.00  0.00    -0.340 C  
HETATM    8  C   UNL     1      -9.547  16.356  65.997  1.00  0.00    -0.319 C  
HETATM    9  C   UNL     1     -10.512  17.595  66.110  1.00  0.00    -0.295 C  
ENDROOT
BRANCH   8  10
HETATM   10  S   UNL     1     -10.306  14.463  65.377  1.00  0.00    -0.400 SA 
BRANCH  10  11
HETATM   11  C   UNL     1     -10.060  13.114  66.663  1.00  0.00    -0.264 C  
BRANCH  11  12
HETATM   12  C   UNL     1     -11.049  11.815  67.013  1.00  0.00    -0.304 C  
HETATM   13  O   UNL     1     -12.027  12.079  67.726  1.00  0.00    -0.538 OA 
BRANCH  12  14
HETATM   14  O   UNL     1     -10.878  10.488  66.630  1.00  0.00    -0.194 OA 
BRANCH  14  15
HETATM   15  C   UNL     1     -10.050   9.403  67.498  1.00  0.00    -0.215 C  
HETATM   16  C   UNL     1     -10.021   8.237  66.380  1.00  0.00    -0.264 C  
HETATM   17  C   UNL     1      -9.144   6.967  66.539  1.00  0.00    -0.183 C  
HETATM   18  C   UNL     1      -8.423   6.792  70.712  1.00  0.00    -0.133 C  
HETATM   19  C   UNL     1      -8.874   6.108  65.279  1.00  0.00     0.029 C  
HETATM   20  C   UNL     1     -10.002   6.036  67.451  1.00  0.00    -0.141 C  
HETATM   21  O   UNL     1     -10.752   5.005  66.813  1.00  0.00    -0.310 OA 
HETATM   22  C   UNL     1      -9.238   5.547  68.654  1.00  0.00    -0.140 C  
HETATM   23  C   UNL     1      -7.912   8.240  70.519  1.00  0.00    -0.099 C  
HETATM   24  C   UNL     1      -9.704   6.333  69.952  1.00  0.00    -0.191 C  
HETATM   25  C   UNL     1      -9.183   4.000  68.750  1.00  0.00    -0.211 C  
HETATM   26  H   UNL     1     -11.274   4.438  67.368  1.00  0.00     0.000 HD 
HETATM   27  C   UNL     1     -10.536   5.305  70.782  1.00  0.00    -0.298 C  
HETATM   28  C   UNL     1     -11.277   6.071  71.831  1.00  0.00    -0.338 C  
HETATM   29  C   UNL     1     -11.532   7.378  71.132  1.00  0.00    -0.279 C  
HETATM   30  C   UNL     1     -10.734   7.552  69.784  1.00  0.00    -0.249 C  
HETATM   31  O   UNL     1     -12.400   8.109  71.544  1.00  0.00    -0.294 OA 
HETATM   32  C   UNL     1     -10.242   9.048  69.301  1.00  0.00    -0.210 C  
HETATM   33  C   UNL     1     -11.190  10.064  70.061  1.00  0.00    -0.345 C  
HETATM   34  C   UNL     1      -8.884   9.366  70.104  1.00  0.00    -0.249 C  
HETATM   35  C   UNL     1      -8.237  10.685  69.618  1.00  0.00     0.046 C  
BRANCH  17  36
HETATM   36  C   UNL     1      -7.789   7.497  67.030  1.00  0.00    -0.116 C  
HETATM   37  C   UNL     1      -6.844   8.154  66.342  1.00  0.00    -0.066 C  
ENDBRANCH  17  36
ENDBRANCH  14  15
ENDBRANCH  12  14
ENDBRANCH  11  12
ENDBRANCH  10  11
ENDBRANCH   8  10
TORSDOF 6
ENDMDL
MODEL       22
REMARK 921   NORMALIZED FREE ENERGY PREDICTED BY IDOCK:   -5.74 KCAL/MOL
REMARK 922        TOTAL FREE ENERGY PREDICTED BY IDOCK:   -9.51 KCAL/MOL
REMARK 923 INTER-LIGAND FREE ENERGY PREDICTED BY IDOCK:   -8.64 KCAL/MOL
REMARK 924 INTRA-LIGAND FREE ENERGY PREDICTED BY IDOCK:   -0.87 KCAL/MOL
REMARK 927      BINDING AFFINITY PREDICTED BY RF-SCORE:    0.00 PKD
ROOT
HETATM    1  C   UNL     1      -6.566  20.507  65.669  1.00  0.00    -0.233 C  
HETATM    2  C   UNL     1      -5.981  19.901  64.376  1.00  0.00    -0.308 C  
HETATM    3  C   UNL     1      -5.481  18.520  64.802  1.00  0.00    -0.191 C  
HETATM    4  C   UNL     1      -5.800  18.442  66.310  1.00  0.00    -0.166 C  
HETATM    5  C   UNL     1      -7.206  17.841  66.646  1.00  0.00    -0.256 C  
HETATM    6  N   UNL     1      -5.682  19.867  66.638  1.00  0.00    -0.172 NA 
HETATM    7  C   UNL     1      -5.883  20.248  68.011  1.00  0.00    -0.230 C  
HETATM    8  C   UNL     1      -8.397  18.842  66.693  1.00  0.00    -0.296 C  
HETATM    9  C   UNL     1      -8.072  20.193  65.950  1.00  0.00    -0.168 C  
ENDROOT
BRANCH   8  10
HETATM   10  S   UNL     1      -9.833  18.807  68.268  1.00  0.00    -0.393 SA 
BRANCH  10  11
HETATM   11  C   UNL     1     -10.561  17.100  68.562  1.00  0.00    -0.361 C  
BRANCH  11  12
HETATM   12  C   UNL     1      -9.918  15.609  68.171  1.00  0.00    -0.217 C  
HETATM   13  O   UNL     1      -9.528  15.498  67.000  1.00  0.00    -0.216 OA 
BRANCH  12  14
HETATM   14  O   UNL     1      -9.805  14.490  68.990  1.00  0.00    -0.208 OA 
BRANCH  14  15
HETATM   15  C   UNL     1      -9.549  12.994  68.432  1.00  0.00    -0.178 C  
HETATM   16  C   UNL     1      -7.939  13.006  68.566  1.00  0.00    -0.090 C  
HETATM   17  C   UNL     1      -7.088  11.722  68.384  1.00  0.00    -0.085 C  
HETATM   18  C   UNL     1      -9.640   9.164  66.169  1.00  0.00    -0.333 C  
HETATM   19  C   UNL     1      -5.629  11.736  68.905  1.00  0.00    -0.050 C  
HETATM   20  C   UNL     1      -6.931  11.597  66.837  1.00  0.00    -0.123 C  
HETATM   21  O   UNL     1      -5.711  12.058  66.262  1.00  0.00    -0.493 OA 
HETATM   22  C   UNL     1      -7.346  10.241  66.326  1.00  0.00    -0.118 C  
HETATM   23  C   UNL     1     -10.643   9.443  67.313  1.00  0.00    -0.314 C  
HETATM   24  C   UNL     1      -8.766  10.334  65.624  1.00  0.00    -0.176 C  
HETATM   25  C   UNL     1      -6.219   9.520  65.540  1.00  0.00    -0.066 C  
HETATM   26  H   UNL     1      -5.616  11.982  65.320  1.00  0.00     0.000 HD 
HETATM   27  C   UNL     1      -8.484  10.186  64.096  1.00  0.00    -0.182 C  
HETATM   28  C   UNL     1      -9.724  10.602  63.369  1.00  0.00    -0.387 C  
HETATM   29  C   UNL     1     -10.274  11.660  64.285  1.00  0.00    -0.311 C  
HETATM   30  C   UNL     1      -9.568  11.723  65.692  1.00  0.00    -0.240 C  
HETATM   31  O   UNL     1     -11.076  12.454  63.855  1.00  0.00    -0.347 OA 
HETATM   32  C   UNL     1     -10.423  12.170  67.027  1.00  0.00    -0.244 C  
HETATM   33  C   UNL     1     -11.664  12.984  66.474  1.00  0.00    -0.437 C  
HETATM   34  C   UNL     1     -11.217  10.861  67.524  1.00  0.00    -0.364 C  
HETATM   35  C   UNL     1     -11.938  11.116  68.870  1.00  0.00    -0.367 C  
BRANCH  17  36
HETATM   36  C   UNL     1      -7.845  10.646  69.176  1.00  0.00    -0.142 C  
HETATM   37  C   UNL     1      -7.423   9.914  70.217  1.00  0.00    -0.173 C  
ENDBRANCH  17  36
ENDBRANCH  14  15
ENDBRANCH  12  14
ENDBRANCH  11  12
ENDBRANCH  10  11
ENDBRANCH   8  10
TORSDOF 6
ENDMDL
MODEL       23
REMARK 921   NORMALIZED FREE ENERGY PREDICTED BY IDOCK:   -5.71 KCAL/MOL
REMARK 922        TOTAL FREE ENERGY PREDICTED BY IDOCK:   -9.46 KCAL/MOL
REMARK 923 INTER-LIGAND FREE ENERGY PREDICTED BY IDOCK:   -7.99 KCAL/MOL
REMARK 924 INTRA-LIGAND FREE ENERGY PREDICTED BY IDOCK:   -1.47 KCAL/MOL
REMARK 927      BINDING AFFINITY PREDICTED BY RF-SCORE:    0.00 PKD
ROOT
HETATM    1  C   UNL     1     -10.363  13.070  66.534  1.00  0.00    -0.274 C  
HETATM    2  C   UNL     1     -10.629  12.569  65.099  1.00  0.00    -0.322 C  
HETATM    3  C   UNL     1     -10.298  11.077  65.155  1.00  0.00    -0.346 C  
HETATM    4  C   UNL     1      -9.851  10.835  66.612  1.00  0.00    -0.200 C  
HETATM    5  C   UNL     1     -11.008  10.435  67.588  1.00  0.00    -0.374 C  
HETATM    6  N   UNL     1      -9.282  12.157  66.895  1.00  0.00    -0.197 NA 
HETATM    7  C   UNL     1      -8.701  12.363  68.195  1.00  0.00    -0.190 C  
HETATM    8  C   UNL     1     -11.775  11.603  68.273  1.00  0.00    -0.304 C  
HETATM    9  C   UNL     1     -11.569  12.973  67.526  1.00  0.00    -0.405 C  
ENDROOT
BRANCH   8  10
HETATM   10  S   UNL     1     -12.231  11.579  70.356  1.00  0.00    -0.333 SA 
BRANCH  10  11
HETATM   11  C   UNL     1     -11.753   9.967  71.196  1.00  0.00    -0.396 C  
BRANCH  11  12
HETATM   12  C   UNL     1     -12.712   8.642  71.532  1.00  0.00    -0.316 C  
HETATM   13  O   UNL     1     -13.724   8.885  72.205  1.00  0.00    -0.424 OA 
BRANCH  12  14
HETATM   14  O   UNL     1     -12.486   7.316  71.177  1.00  0.00    -0.348 OA 
BRANCH  14  15
HETATM   15  C   UNL     1     -11.013   6.687  70.948  1.00  0.00    -0.268 C  
HETATM   16  C   UNL     1     -11.038   6.709  69.333  1.00  0.00    -0.365 C  
HETATM   17  C   UNL     1      -9.770   6.422  68.487  1.00  0.00    -0.134 C  
HETATM   18  C   UNL     1      -7.266   4.300  71.168  1.00  0.00    -0.040 C  
HETATM   19  C   UNL     1      -9.781   6.840  66.996  1.00  0.00    -0.200 C  
HETATM   20  C   UNL     1      -9.701   4.864  68.439  1.00  0.00    -0.151 C  
HETATM   21  O   UNL     1     -10.195   4.222  67.266  1.00  0.00    -0.110 OA 
HETATM   22  C   UNL     1      -8.360   4.334  68.877  1.00  0.00    -0.092 C  
HETATM   23  C   UNL     1      -7.494   5.521  72.090  1.00  0.00    -0.099 C  
HETATM   24  C   UNL     1      -8.463   3.738  70.344  1.00  0.00    -0.093 C  
HETATM   25  C   UNL     1      -7.679   3.447  67.803  1.00  0.00    -0.069 C  
HETATM   26  H   UNL     1     -10.154   3.274  67.237  1.00  0.00     0.000 HD 
HETATM   27  C   UNL     1      -8.372   2.189  70.169  1.00  0.00    -0.072 C  
HETATM   28  C   UNL     1      -8.800   1.566  71.460  1.00  0.00    -0.098 C  
HETATM   29  C   UNL     1      -9.820   2.556  71.953  1.00  0.00    -0.158 C  
HETATM   30  C   UNL     1      -9.840   3.912  71.151  1.00  0.00    -0.223 C  
HETATM   31  O   UNL     1     -10.620   2.213  72.790  1.00  0.00    -0.150 OA 
HETATM   32  C   UNL     1     -10.231   5.319  71.913  1.00  0.00    -0.264 C  
HETATM   33  C   UNL     1     -11.052   4.884  73.196  1.00  0.00    -0.396 C  
HETATM   34  C   UNL     1      -8.897   5.822  72.660  1.00  0.00    -0.125 C  
HETATM   35  C   UNL     1      -9.097   7.224  73.286  1.00  0.00    -0.201 C  
BRANCH  17  36
HETATM   36  C   UNL     1      -8.659   7.225  69.178  1.00  0.00    -0.133 C  
HETATM   37  C   UNL     1      -8.371   8.530  69.068  1.00  0.00    -0.118 C  
ENDBRANCH  17  36
ENDBRANCH  14  15
ENDBRANCH  12  14
ENDBRANCH  11  12
ENDBRANCH  10  11
ENDBRANCH   8  10
TORSDOF 6
ENDMDL
MODEL       24
REMARK 921   NORMALIZED FREE ENERGY PREDICTED BY IDOCK:   -5.68 KCAL/MOL
REMARK 922        TOTAL FREE ENERGY PREDICTED BY IDOCK:   -9.43 KCAL/MOL
REMARK 923 INTER-LIGAND FREE ENERGY PREDICTED BY IDOCK:   -7.67 KCAL/MOL
REMARK 924 INTRA-LIGAND FREE ENERGY PREDICTED BY IDOCK:   -1.76 KCAL/MOL
REMARK 927      BINDING AFFINITY PREDICTED BY RF-SCORE:    0.00 PKD
ROOT
HETATM    1  C   UNL     1     -10.699   7.337  70.191  1.00  0.00    -0.244 C  
HETATM    2  C   UNL     1     -11.712   8.370  70.728  1.00  0.00    -0.219 C  
HETATM    3  C   UNL     1     -10.895   9.230  71.692  1.00  0.00    -0.418 C  
HETATM    4  C   UNL     1      -9.479   8.618  71.652  1.00  0.00    -0.269 C  
HETATM    5  C   UNL     1      -8.533   9.243  70.572  1.00  0.00    -0.251 C  
HETATM    6  N   UNL     1      -9.844   7.226  71.370  1.00  0.00    -0.185 NA 
HETATM    7  C   UNL     1      -8.775   6.268  71.275  1.00  0.00    -0.135 C  
HETATM    8  C   UNL     1      -8.585   8.610  69.151  1.00  0.00    -0.129 C  
HETATM    9  C   UNL     1      -9.895   7.766  68.920  1.00  0.00    -0.166 C  
ENDROOT
BRANCH   8  10
HETATM   10  S   UNL     1      -6.812   8.152  68.060  1.00  0.00    -0.074 SA 
BRANCH  10  11
HETATM   11  C   UNL     1      -5.643   9.616  67.906  1.00  0.00    -0.040 C  
BRANCH  11  12
HETATM   12  C   UNL     1      -5.669  10.859  66.792  1.00  0.00    -0.080 C  
HETATM   13  O   UNL     1      -5.507  10.510  65.614  1.00  0.00    -0.078 OA 
BRANCH  12  14
HETATM   14  O   UNL     1      -5.816  12.220  67.039  1.00  0.00    -0.230 OA 
BRANCH  14  15
HETATM   15  C   UNL     1      -7.216  12.908  67.466  1.00  0.00    -0.148 C  
HETATM   16  C   UNL     1      -8.188  11.863  66.709  1.00  0.00    -0.129 C  
HETATM   17  C   UNL     1      -9.724  11.858  66.932  1.00  0.00    -0.212 C  
HETATM   18  C   UNL     1     -10.506  15.742  68.436  1.00  0.00    -0.245 C  
HETATM   19  C   UNL     1     -10.519  10.605  66.489  1.00  0.00    -0.285 C  
HETATM   20  C   UNL     1     -10.239  12.983  65.983  1.00  0.00    -0.287 C  
HETATM   21  O   UNL     1     -10.779  12.584  64.725  1.00  0.00    -0.279 OA 
HETATM   22  C   UNL     1     -11.103  13.988  66.700  1.00  0.00    -0.312 C  
HETATM   23  C   UNL     1      -9.427  15.376  69.483  1.00  0.00    -0.250 C  
HETATM   24  C   UNL     1     -10.290  15.328  66.949  1.00  0.00    -0.278 C  
HETATM   25  C   UNL     1     -12.515  14.129  66.073  1.00  0.00    -0.454 C  
HETATM   26  H   UNL     1     -11.093  13.269  64.147  1.00  0.00     0.000 HD 
HETATM   27  C   UNL     1     -10.898  16.372  65.960  1.00  0.00    -0.093 C  
HETATM   28  C   UNL     1      -9.961  17.537  65.906  1.00  0.00    -0.155 C  
HETATM   29  C   UNL     1      -8.630  16.867  66.113  1.00  0.00    -0.242 C  
HETATM   30  C   UNL     1      -8.731  15.362  66.569  1.00  0.00    -0.335 C  
HETATM   31  O   UNL     1      -7.621  17.445  65.787  1.00  0.00    -0.484 OA 
HETATM   32  C   UNL     1      -7.580  14.718  67.556  1.00  0.00    -0.215 C  
HETATM   33  C   UNL     1      -6.306  15.641  67.368  1.00  0.00    -0.144 C  
HETATM   34  C   UNL     1      -7.959  15.161  69.055  1.00  0.00    -0.188 C  
HETATM   35  C   UNL     1      -7.035  14.483  70.095  1.00  0.00     0.047 C  
BRANCH  17  36
HETATM   36  C   UNL     1      -9.890  11.990  68.453  1.00  0.00    -0.204 C  
HETATM   37  C   UNL     1     -10.994  11.823  69.196  1.00  0.00    -0.261 C  
ENDBRANCH  17  36
ENDBRANCH  14  15
ENDBRANCH  12  14
ENDBRANCH  11  12
ENDBRANCH  10  11
ENDBRANCH   8  10
TORSDOF 6
ENDMDL
MODEL       25
REMARK 921   NORMALIZED FREE ENERGY PREDICTED BY IDOCK:   -5.68 KCAL/MOL
REMARK 922        TOTAL FREE ENERGY PREDICTED BY IDOCK:   -9.42 KCAL/MOL
REMARK 923 INTER-LIGAND FREE ENERGY PREDICTED BY IDOCK:   -8.68 KCAL/MOL
REMARK 924 INTRA-LIGAND FREE ENERGY PREDICTED BY IDOCK:   -0.74 KCAL/MOL
REMARK 927      BINDING AFFINITY PREDICTED BY RF-SCORE:    0.00 PKD
ROOT
HETATM    1  C   UNL     1      -8.466  18.886  67.589  1.00  0.00    -0.280 C  
HETATM    2  C   UNL     1      -9.233  20.199  67.332  1.00  0.00    -0.495 C  
HETATM    3  C   UNL     1     -10.349  19.799  66.367  1.00  0.00    -0.619 C  
HETATM    4  C   UNL     1     -10.130  18.291  66.127  1.00  0.00    -0.346 C  
HETATM    5  C   UNL     1     -10.897  17.357  67.122  1.00  0.00    -0.090 C  
HETATM    6  N   UNL     1      -8.673  18.246  66.293  1.00  0.00    -0.450 NA 
HETATM    7  C   UNL     1      -8.026  16.973  66.116  1.00  0.00    -0.264 C  
HETATM    8  C   UNL     1     -10.167  17.005  68.450  1.00  0.00    -0.331 C  
HETATM    9  C   UNL     1      -8.993  18.006  68.770  1.00  0.00    -0.221 C  
ENDROOT
BRANCH   8  10
HETATM   10  S   UNL     1     -10.109  15.013  69.207  1.00  0.00    -0.210 SA 
BRANCH  10  11
HETATM   11  C   UNL     1     -10.644  13.729  67.943  1.00  0.00    -0.252 C  
BRANCH  11  12
HETATM   12  C   UNL     1     -11.411  12.268  68.200  1.00  0.00    -0.295 C  
HETATM   13  O   UNL     1     -12.129  11.882  67.267  1.00  0.00    -0.582 OA 
BRANCH  12  14
HETATM   14  O   UNL     1     -11.361  11.470  69.339  1.00  0.00    -0.252 OA 
BRANCH  14  15
HETATM   15  C   UNL     1     -10.553  10.071  69.418  1.00  0.00    -0.233 C  
HETATM   16  C   UNL     1     -11.494   9.362  70.524  1.00  0.00    -0.317 C  
HETATM   17  C   UNL     1     -11.360   7.857  70.874  1.00  0.00    -0.290 C  
HETATM   18  C   UNL     1      -7.443   6.894  69.575  1.00  0.00    -0.096 C  
HETATM   19  C   UNL     1     -12.528   7.182  71.635  1.00  0.00    -0.405 C  
HETATM   20  C   UNL     1     -10.178   7.817  71.892  1.00  0.00    -0.202 C  
HETATM   21  O   UNL     1     -10.507   7.745  73.277  1.00  0.00    -0.349 OA 
HETATM   22  C   UNL     1      -9.109   6.834  71.491  1.00  0.00    -0.145 C  
HETATM   23  C   UNL     1      -7.922   7.480  68.226  1.00  0.00    -0.123 C  
HETATM   24  C   UNL     1      -7.854   7.604  70.900  1.00  0.00    -0.090 C  
HETATM   25  C   UNL     1      -8.829   5.766  72.580  1.00  0.00    -0.130 C  
HETATM   26  H   UNL     1      -9.788   7.721  73.896  1.00  0.00     0.000 HD 
HETATM   27  C   UNL     1      -6.743   7.487  71.991  1.00  0.00    -0.054 C  
HETATM   28  C   UNL     1      -5.669   8.469  71.645  1.00  0.00    -0.042 C  
HETATM   29  C   UNL     1      -6.461   9.573  71.002  1.00  0.00    -0.071 C  
HETATM   30  C   UNL     1      -7.957   9.192  70.685  1.00  0.00    -0.177 C  
HETATM   31  O   UNL     1      -5.974  10.675  70.911  1.00  0.00    -0.255 OA 
HETATM   32  C   UNL     1      -8.720   9.846  69.380  1.00  0.00    -0.186 C  
HETATM   33  C   UNL     1      -7.915  11.170  69.048  1.00  0.00    -0.087 C  
HETATM   34  C   UNL     1      -8.266   8.981  68.101  1.00  0.00    -0.113 C  
HETATM   35  C   UNL     1      -9.042   9.403  66.830  1.00  0.00    -0.160 C  
BRANCH  17  36
HETATM   36  C   UNL     1     -11.236   7.157  69.514  1.00  0.00    -0.121 C  
HETATM   37  C   UNL     1     -11.120   5.847  69.249  1.00  0.00    -0.352 C  
ENDBRANCH  17  36
ENDBRANCH  14  15
ENDBRANCH  12  14
ENDBRANCH  11  12
ENDBRANCH  10  11
ENDBRANCH   8  10
TORSDOF 6
ENDMDL
MODEL       26
REMARK 921   NORMALIZED FREE ENERGY PREDICTED BY IDOCK:   -5.60 KCAL/MOL
REMARK 922        TOTAL FREE ENERGY PREDICTED BY IDOCK:   -9.32 KCAL/MOL
REMARK 923 INTER-LIGAND FREE ENERGY PREDICTED BY IDOCK:   -7.90 KCAL/MOL
REMARK 924 INTRA-LIGAND FREE ENERGY PREDICTED BY IDOCK:   -1.42 KCAL/MOL
REMARK 927      BINDING AFFINITY PREDICTED BY RF-SCORE:    0.00 PKD
ROOT
HETATM    1  C   UNL     1     -12.342  14.125  64.407  1.00  0.00    -0.381 C  
HETATM    2  C   UNL     1     -12.188  12.991  63.372  1.00  0.00    -0.552 C  
HETATM    3  C   UNL     1     -10.771  12.463  63.603  1.00  0.00    -0.497 C  
HETATM    4  C   UNL     1     -10.211  13.344  64.739  1.00  0.00    -0.318 C  
HETATM    5  C   UNL     1     -10.463  12.784  66.179  1.00  0.00    -0.284 C  
HETATM    6  N   UNL     1     -10.954  14.577  64.455  1.00  0.00    -0.310 NA 
HETATM    7  C   UNL     1     -10.698  15.713  65.300  1.00  0.00    -0.425 C  
HETATM    8  C   UNL     1     -11.805  13.186  66.856  1.00  0.00    -0.386 C  
HETATM    9  C   UNL     1     -12.870  13.698  65.815  1.00  0.00    -0.390 C  
ENDROOT
BRANCH   8  10
HETATM   10  S   UNL     1     -11.888  13.844  68.882  1.00  0.00    -0.369 SA 
BRANCH  10  11
HETATM   11  C   UNL     1     -11.977  12.427  70.114  1.00  0.00    -0.298 C  
BRANCH  11  12
HETATM   12  C   UNL     1     -11.661  10.806  69.864  1.00  0.00    -0.333 C  
HETATM   13  O   UNL     1     -11.772  10.090  70.869  1.00  0.00    -0.315 OA 
BRANCH  12  14
HETATM   14  O   UNL     1     -11.261  10.190  68.682  1.00  0.00    -0.230 OA 
BRANCH  14  15
HETATM   15  C   UNL     1      -9.852   9.417  68.508  1.00  0.00    -0.156 C  
HETATM   16  C   UNL     1      -9.581   9.843  66.973  1.00  0.00    -0.218 C  
HETATM   17  C   UNL     1      -8.221   9.581  66.274  1.00  0.00    -0.115 C  
HETATM   18  C   UNL     1      -6.497   6.496  68.612  1.00  0.00    -0.049 C  
HETATM   19  C   UNL     1      -7.916  10.353  64.966  1.00  0.00    -0.126 C  
HETATM   20  C   UNL     1      -8.321   8.093  65.815  1.00  0.00    -0.136 C  
HETATM   21  O   UNL     1      -8.664   7.848  64.453  1.00  0.00    -0.374 OA 
HETATM   22  C   UNL     1      -7.149   7.269  66.283  1.00  0.00    -0.077 C  
HETATM   23  C   UNL     1      -6.750   7.469  69.788  1.00  0.00    -0.043 C  
HETATM   24  C   UNL     1      -7.582   6.350  67.502  1.00  0.00    -0.100 C  
HETATM   25  C   UNL     1      -6.390   6.581  65.119  1.00  0.00    -0.038 C  
HETATM   26  H   UNL     1      -8.724   6.943  64.175  1.00  0.00     0.000 HD 
HETATM   27  C   UNL     1      -7.635   4.898  66.929  1.00  0.00    -0.088 C  
HETATM   28  C   UNL     1      -8.357   4.049  67.926  1.00  0.00    -0.098 C  
HETATM   29  C   UNL     1      -9.331   5.031  68.517  1.00  0.00    -0.127 C  
HETATM   30  C   UNL     1      -9.053   6.530  68.117  1.00  0.00    -0.114 C  
HETATM   31  O   UNL     1     -10.303   4.620  69.104  1.00  0.00    -0.081 OA 
HETATM   32  C   UNL     1      -9.415   7.747  69.168  1.00  0.00    -0.151 C  
HETATM   33  C   UNL     1     -10.497   7.139  70.152  1.00  0.00    -0.231 C  
HETATM   34  C   UNL     1      -8.190   7.835  70.208  1.00  0.00    -0.125 C  
HETATM   35  C   UNL     1      -8.341   9.050  71.155  1.00  0.00    -0.212 C  
BRANCH  17  36
HETATM   36  C   UNL     1      -7.170  10.004  67.310  1.00  0.00    -0.086 C  
HETATM   37  C   UNL     1      -6.590  11.201  67.480  1.00  0.00    -0.070 C  
ENDBRANCH  17  36
ENDBRANCH  14  15
ENDBRANCH  12  14
ENDBRANCH  11  12
ENDBRANCH  10  11
ENDBRANCH   8  10
TORSDOF 6
ENDMDL
MODEL       27
REMARK 921   NORMALIZED FREE ENERGY PREDICTED BY IDOCK:   -5.57 KCAL/MOL
REMARK 922        TOTAL FREE ENERGY PREDICTED BY IDOCK:   -9.27 KCAL/MOL
REMARK 923 INTER-LIGAND FREE ENERGY PREDICTED BY IDOCK:   -8.39 KCAL/MOL
REMARK 924 INTRA-LIGAND FREE ENERGY PREDICTED BY IDOCK:   -0.88 KCAL/MOL
REMARK 927      BINDING AFFINITY PREDICTED BY RF-SCORE:    0.00 PKD
ROOT
HETATM    1  C   UNL     1     -11.944  13.801  64.605  1.00  0.00    -0.416 C  
HETATM    2  C   UNL     1     -12.121  12.794  63.450  1.00  0.00    -0.619 C  
HETATM    3  C   UNL     1     -10.966  11.809  63.631  1.00  0.00    -0.513 C  
HETATM    4  C   UNL     1     -10.201  12.332  64.865  1.00  0.00    -0.281 C  
HETATM    5  C   UNL     1     -10.688  11.738  66.229  1.00  0.00    -0.312 C  
HETATM    6  N   UNL     1     -10.489  13.763  64.717  1.00  0.00    -0.422 NA 
HETATM    7  C   UNL     1      -9.915  14.656  65.688  1.00  0.00    -0.351 C  
HETATM    8  C   UNL     1     -11.855  12.486  66.937  1.00  0.00    -0.334 C  
HETATM    9  C   UNL     1     -12.647  13.427  65.952  1.00  0.00    -0.412 C  
ENDROOT
BRANCH   8  10
HETATM   10  S   UNL     1     -11.811  12.919  69.023  1.00  0.00    -0.280 SA 
BRANCH  10  11
HETATM   11  C   UNL     1     -12.408  11.487  70.085  1.00  0.00    -0.245 C  
BRANCH  11  12
HETATM   12  C   UNL     1     -11.515  10.251  70.766  1.00  0.00    -0.351 C  
HETATM   13  O   UNL     1     -11.926   9.852  71.865  1.00  0.00    -0.331 OA 
BRANCH  12  14
HETATM   14  O   UNL     1     -10.364   9.655  70.262  1.00  0.00    -0.242 OA 
BRANCH  14  15
HETATM   15  C   UNL     1      -9.763   8.258  70.811  1.00  0.00    -0.172 C  
HETATM   16  C   UNL     1      -8.269   8.791  71.117  1.00  0.00    -0.204 C  
HETATM   17  C   UNL     1      -7.235   7.939  71.899  1.00  0.00    -0.076 C  
HETATM   18  C   UNL     1      -8.709   3.988  71.481  1.00  0.00    -0.137 C  
HETATM   19  C   UNL     1      -5.992   8.657  72.479  1.00  0.00    -0.079 C  
HETATM   20  C   UNL     1      -6.644   6.986  70.814  1.00  0.00    -0.052 C  
HETATM   21  O   UNL     1      -5.387   7.342  70.243  1.00  0.00    -0.023 OA 
HETATM   22  C   UNL     1      -6.714   5.537  71.222  1.00  0.00    -0.052 C  
HETATM   23  C   UNL     1     -10.016   4.590  72.049  1.00  0.00    -0.255 C  
HETATM   24  C   UNL     1      -7.886   4.806  70.441  1.00  0.00    -0.061 C  
HETATM   25  C   UNL     1      -5.329   4.841  71.224  1.00  0.00    -0.004 C  
HETATM   26  H   UNL     1      -5.028   6.762  69.583  1.00  0.00     0.000 HD 
HETATM   27  C   UNL     1      -7.178   3.882  69.402  1.00  0.00    -0.046 C  
HETATM   28  C   UNL     1      -8.215   3.433  68.421  1.00  0.00    -0.085 C  
HETATM   29  C   UNL     1      -9.134   4.622  68.383  1.00  0.00    -0.120 C  
HETATM   30  C   UNL     1      -8.857   5.686  69.513  1.00  0.00    -0.116 C  
HETATM   31  O   UNL     1      -9.888   4.758  67.449  1.00  0.00    -0.168 OA 
HETATM   32  C   UNL     1     -10.098   6.568  70.141  1.00  0.00    -0.204 C  
HETATM   33  C   UNL     1     -11.238   6.525  69.042  1.00  0.00    -0.354 C  
HETATM   34  C   UNL     1     -10.813   5.637  71.242  1.00  0.00    -0.289 C  
HETATM   35  C   UNL     1     -11.903   6.416  72.017  1.00  0.00    -0.382 C  
BRANCH  17  36
HETATM   36  C   UNL     1      -8.027   7.368  73.083  1.00  0.00    -0.127 C  
HETATM   37  C   UNL     1      -8.085   7.810  74.348  1.00  0.00    -0.276 C  
ENDBRANCH  17  36
ENDBRANCH  14  15
ENDBRANCH  12  14
ENDBRANCH  11  12
ENDBRANCH  10  11
ENDBRANCH   8  10
TORSDOF 6
ENDMDL
MODEL       28
REMARK 921   NORMALIZED FREE ENERGY PREDICTED BY IDOCK:   -5.51 KCAL/MOL
REMARK 922        TOTAL FREE ENERGY PREDICTED BY IDOCK:   -9.19 KCAL/MOL
REMARK 923 INTER-LIGAND FREE ENERGY PREDICTED BY IDOCK:   -7.76 KCAL/MOL
REMARK 924 INTRA-LIGAND FREE ENERGY PREDICTED BY IDOCK:   -1.43 KCAL/MOL
REMARK 927      BINDING AFFINITY PREDICTED BY RF-SCORE:    0.00 PKD
ROOT
HETATM    1  C   UNL     1     -10.569  14.968  65.904  1.00  0.00    -0.329 C  
HETATM    2  C   UNL     1     -10.820  15.182  67.411  1.00  0.00    -0.302 C  
HETATM    3  C   UNL     1     -12.076  14.359  67.702  1.00  0.00    -0.312 C  
HETATM    4  C   UNL     1     -12.463  13.749  66.338  1.00  0.00    -0.355 C  
HETATM    5  C   UNL     1     -11.826  12.348  66.051  1.00  0.00    -0.459 C  
HETATM    6  N   UNL     1     -11.952  14.810  65.464  1.00  0.00    -0.250 NA 
HETATM    7  C   UNL     1     -12.140  14.648  64.047  1.00  0.00    -0.200 C  
HETATM    8  C   UNL     1     -10.421  12.346  65.381  1.00  0.00    -0.277 C  
HETATM    9  C   UNL     1      -9.688  13.732  65.527  1.00  0.00    -0.097 C  
ENDROOT
BRANCH   8  10
HETATM   10  S   UNL     1      -9.958  11.058  63.746  1.00  0.00    -0.382 SA 
BRANCH  10  11
HETATM   11  C   UNL     1      -8.908   9.582  64.247  1.00  0.00    -0.213 C  
BRANCH  11  12
HETATM   12  C   UNL     1      -7.398   9.569  64.960  1.00  0.00    -0.110 C  
HETATM   13  O   UNL     1      -6.643  10.485  64.603  1.00  0.00    -0.078 OA 
BRANCH  12  14
HETATM   14  O   UNL     1      -6.892   8.641  65.865  1.00  0.00    -0.066 OA 
BRANCH  14  15
HETATM   15  C   UNL     1      -7.503   8.406  67.343  1.00  0.00    -0.093 C  
HETATM   16  C   UNL     1      -8.380   7.096  66.988  1.00  0.00    -0.118 C  
HETATM   17  C   UNL     1      -9.054   6.234  68.087  1.00  0.00    -0.112 C  
HETATM   18  C   UNL     1      -9.272   8.870  71.399  1.00  0.00    -0.328 C  
HETATM   19  C   UNL     1      -9.533   4.811  67.704  1.00  0.00    -0.176 C  
HETATM   20  C   UNL     1     -10.376   7.001  68.400  1.00  0.00    -0.193 C  
HETATM   21  O   UNL     1     -11.573   6.522  67.791  1.00  0.00    -0.646 OA 
HETATM   22  C   UNL     1     -10.540   7.287  69.871  1.00  0.00    -0.244 C  
HETATM   23  C   UNL     1      -7.752   9.028  71.164  1.00  0.00    -0.143 C  
HETATM   24  C   UNL     1     -10.227   8.814  70.168  1.00  0.00    -0.207 C  
HETATM   25  C   UNL     1     -11.856   6.711  70.456  1.00  0.00    -0.430 C  
HETATM   26  H   UNL     1     -12.377   6.989  67.982  1.00  0.00     0.000 HD 
HETATM   27  C   UNL     1     -11.611   9.468  70.476  1.00  0.00    -0.316 C  
HETATM   28  C   UNL     1     -11.426  10.952  70.428  1.00  0.00    -0.367 C  
HETATM   29  C   UNL     1     -10.355  11.092  69.381  1.00  0.00    -0.104 C  
HETATM   30  C   UNL     1      -9.672   9.732  68.974  1.00  0.00    -0.177 C  
HETATM   31  O   UNL     1     -10.199  12.157  68.835  1.00  0.00    -0.157 OA 
HETATM   32  C   UNL     1      -8.089   9.704  68.520  1.00  0.00    -0.104 C  
HETATM   33  C   UNL     1      -7.762  11.185  68.061  1.00  0.00    -0.107 C  
HETATM   34  C   UNL     1      -7.221   9.694  69.876  1.00  0.00    -0.106 C  
HETATM   35  C   UNL     1      -5.713   9.510  69.580  1.00  0.00    -0.034 C  
BRANCH  17  36
HETATM   36  C   UNL     1      -7.975   6.078  69.167  1.00  0.00    -0.103 C  
HETATM   37  C   UNL     1      -7.717   5.022  69.953  1.00  0.00    -0.060 C  
ENDBRANCH  17  36
ENDBRANCH  14  15
ENDBRANCH  12  14
ENDBRANCH  11  12
ENDBRANCH  10  11
ENDBRANCH   8  10
TORSDOF 6
ENDMDL
MODEL       29
REMARK 921   NORMALIZED FREE ENERGY PREDICTED BY IDOCK:   -5.50 KCAL/MOL
REMARK 922        TOTAL FREE ENERGY PREDICTED BY IDOCK:   -9.19 KCAL/MOL
REMARK 923 INTER-LIGAND FREE ENERGY PREDICTED BY IDOCK:   -7.75 KCAL/MOL
REMARK 924 INTRA-LIGAND FREE ENERGY PREDICTED BY IDOCK:   -1.44 KCAL/MOL
REMARK 927      BINDING AFFINITY PREDICTED BY RF-SCORE:    0.00 PKD
ROOT
HETATM    1  C   UNL     1     -11.356  11.977  65.951  1.00  0.00    -0.337 C  
HETATM    2  C   UNL     1     -12.246  12.438  64.778  1.00  0.00    -0.493 C  
HETATM    3  C   UNL     1     -12.768  13.807  65.218  1.00  0.00    -0.481 C  
HETATM    4  C   UNL     1     -12.154  14.022  66.618  1.00  0.00    -0.456 C  
HETATM    5  C   UNL     1     -10.767  14.749  66.613  1.00  0.00    -0.309 C  
HETATM    6  N   UNL     1     -12.075  12.621  67.046  1.00  0.00    -0.486 NA 
HETATM    7  C   UNL     1     -11.563  12.361  68.366  1.00  0.00    -0.324 C  
HETATM    8  C   UNL     1      -9.509  13.846  66.466  1.00  0.00    -0.274 C  
HETATM    9  C   UNL     1      -9.859  12.422  65.889  1.00  0.00    -0.265 C  
ENDROOT
BRANCH   8  10
HETATM   10  S   UNL     1      -7.789  14.106  67.698  1.00  0.00    -0.193 SA 
BRANCH  10  11
HETATM   11  C   UNL     1      -7.654  12.814  69.057  1.00  0.00     0.149 C  
BRANCH  11  12
HETATM   12  C   UNL     1      -6.441  11.695  69.316  1.00  0.00    -0.105 C  
HETATM   13  O   UNL     1      -5.564  12.049  70.116  1.00  0.00    -0.107 OA 
BRANCH  12  14
HETATM   14  O   UNL     1      -6.292  10.448  68.716  1.00  0.00    -0.047 OA 
BRANCH  14  15
HETATM   15  C   UNL     1      -7.093   9.125  69.188  1.00  0.00    -0.062 C  
HETATM   16  C   UNL     1      -8.446   9.404  68.350  1.00  0.00    -0.120 C  
HETATM   17  C   UNL     1      -9.561   8.335  68.208  1.00  0.00    -0.158 C  
HETATM   18  C   UNL     1      -8.841   5.732  71.474  1.00  0.00    -0.139 C  
HETATM   19  C   UNL     1     -10.617   8.530  67.092  1.00  0.00    -0.314 C  
HETATM   20  C   UNL     1     -10.381   8.478  69.528  1.00  0.00    -0.218 C  
HETATM   21  O   UNL     1     -11.590   9.232  69.471  1.00  0.00    -0.427 OA 
HETATM   22  C   UNL     1     -10.542   7.165  70.249  1.00  0.00    -0.245 C  
HETATM   23  C   UNL     1      -7.414   5.650  70.883  1.00  0.00    -0.089 C  
HETATM   24  C   UNL     1      -9.572   7.108  71.503  1.00  0.00    -0.161 C  
HETATM   25  C   UNL     1     -12.026   6.785  70.491  1.00  0.00    -0.385 C  
HETATM   26  H   UNL     1     -12.088   9.319  70.274  1.00  0.00     0.000 HD 
HETATM   27  C   UNL     1     -10.499   7.249  72.752  1.00  0.00    -0.302 C  
HETATM   28  C   UNL     1      -9.624   7.542  73.929  1.00  0.00    -0.261 C  
HETATM   29  C   UNL     1      -8.513   8.333  73.294  1.00  0.00    -0.199 C  
HETATM   30  C   UNL     1      -8.523   8.305  71.719  1.00  0.00    -0.207 C  
HETATM   31  O   UNL     1      -7.811   9.027  73.989  1.00  0.00    -0.304 OA 
HETATM   32  C   UNL     1      -7.108   8.383  70.880  1.00  0.00    -0.057 C  
HETATM   33  C   UNL     1      -6.067   9.038  71.880  1.00  0.00    -0.065 C  
HETATM   34  C   UNL     1      -6.498   6.893  70.867  1.00  0.00    -0.048 C  
HETATM   35  C   UNL     1      -5.239   6.807  69.971  1.00  0.00    -0.015 C  
BRANCH  17  36
HETATM   36  C   UNL     1      -8.807   7.033  67.902  1.00  0.00    -0.124 C  
HETATM   37  C   UNL     1      -9.196   5.993  67.152  1.00  0.00    -0.117 C  
ENDBRANCH  17  36
ENDBRANCH  14  15
ENDBRANCH  12  14
ENDBRANCH  11  12
ENDBRANCH  10  11
ENDBRANCH   8  10
TORSDOF 6
ENDMDL
MODEL       30
REMARK 921   NORMALIZED FREE ENERGY PREDICTED BY IDOCK:   -5.48 KCAL/MOL
REMARK 922        TOTAL FREE ENERGY PREDICTED BY IDOCK:   -9.16 KCAL/MOL
REMARK 923 INTER-LIGAND FREE ENERGY PREDICTED BY IDOCK:   -7.84 KCAL/MOL
REMARK 924 INTRA-LIGAND FREE ENERGY PREDICTED BY IDOCK:   -1.32 KCAL/MOL
REMARK 927      BINDING AFFINITY PREDICTED BY RF-SCORE:    0.00 PKD
ROOT
HETATM    1  C   UNL     1     -11.420  12.010  65.684  1.00  0.00    -0.316 C  
HETATM    2  C   UNL     1     -12.229  12.793  64.629  1.00  0.00    -0.510 C  
HETATM    3  C   UNL     1     -12.642  14.076  65.350  1.00  0.00    -0.529 C  
HETATM    4  C   UNL     1     -12.056  13.929  66.769  1.00  0.00    -0.439 C  
HETATM    5  C   UNL     1     -10.612  14.509  66.938  1.00  0.00    -0.279 C  
HETATM    6  N   UNL     1     -12.113  12.467  66.885  1.00  0.00    -0.533 NA 
HETATM    7  C   UNL     1     -11.666  11.884  68.122  1.00  0.00    -0.320 C  
HETATM    8  C   UNL     1      -9.433  13.547  66.612  1.00  0.00    -0.265 C  
HETATM    9  C   UNL     1      -9.888  12.319  65.736  1.00  0.00    -0.260 C  
ENDROOT
BRANCH   8  10
HETATM   10  S   UNL     1      -7.735  13.377  67.890  1.00  0.00    -0.172 SA 
BRANCH  10  11
HETATM   11  C   UNL     1      -7.765  11.826  68.953  1.00  0.00    -0.041 C  
BRANCH  11  12
HETATM   12  C   UNL     1      -6.498  11.077  69.740  1.00  0.00    -0.137 C  
HETATM   13  O   UNL     1      -6.031  11.707  70.700  1.00  0.00    -0.289 OA 
BRANCH  12  14
HETATM   14  O   UNL     1      -5.897   9.863  69.421  1.00  0.00    -0.037 OA 
BRANCH  14  15
HETATM   15  C   UNL     1      -6.709   8.472  69.273  1.00  0.00    -0.050 C  
HETATM   16  C   UNL     1      -6.952   8.555  67.678  1.00  0.00    -0.078 C  
HETATM   17  C   UNL     1      -7.510   7.355  66.867  1.00  0.00    -0.097 C  
HETATM   18  C   UNL     1      -9.416   4.984  69.817  1.00  0.00    -0.215 C  
HETATM   19  C   UNL     1      -7.346   7.380  65.327  1.00  0.00    -0.076 C  
HETATM   20  C   UNL     1      -9.052   7.449  67.081  1.00  0.00    -0.130 C  
HETATM   21  O   UNL     1      -9.823   8.050  66.042  1.00  0.00    -0.459 OA 
HETATM   22  C   UNL     1      -9.644   6.155  67.576  1.00  0.00    -0.117 C  
HETATM   23  C   UNL     1      -8.042   5.051  70.525  1.00  0.00    -0.093 C  
HETATM   24  C   UNL     1      -9.975   6.263  69.124  1.00  0.00    -0.181 C  
HETATM   25  C   UNL     1     -10.765   5.609  66.653  1.00  0.00    -0.339 C  
HETATM   26  H   UNL     1     -10.761   8.108  66.173  1.00  0.00     0.000 HD 
HETATM   27  C   UNL     1     -11.532   6.339  69.210  1.00  0.00    -0.288 C  
HETATM   28  C   UNL     1     -11.883   6.780  70.596  1.00  0.00    -0.442 C  
HETATM   29  C   UNL     1     -10.721   7.672  70.935  1.00  0.00    -0.235 C  
HETATM   30  C   UNL     1      -9.523   7.584  69.916  1.00  0.00    -0.160 C  
HETATM   31  O   UNL     1     -10.834   8.472  71.833  1.00  0.00    -0.273 OA 
HETATM   32  C   UNL     1      -7.975   7.799  70.438  1.00  0.00    -0.095 C  
HETATM   33  C   UNL     1      -8.101   8.611  71.792  1.00  0.00    -0.170 C  
HETATM   34  C   UNL     1      -7.502   6.393  71.063  1.00  0.00    -0.085 C  
HETATM   35  C   UNL     1      -6.003   6.424  71.448  1.00  0.00    -0.036 C  
BRANCH  17  36
HETATM   36  C   UNL     1      -6.728   6.143  67.391  1.00  0.00    -0.061 C  
HETATM   37  C   UNL     1      -6.268   5.081  66.713  1.00  0.00    -0.032 C  
ENDBRANCH  17  36
ENDBRANCH  14  15
ENDBRANCH  12  14
ENDBRANCH  11  12
ENDBRANCH  10  11
ENDBRANCH   8  10
TORSDOF 6
ENDMDL
MODEL       31
REMARK 921   NORMALIZED FREE ENERGY PREDICTED BY IDOCK:   -5.46 KCAL/MOL
REMARK 922        TOTAL FREE ENERGY PREDICTED BY IDOCK:   -9.13 KCAL/MOL
REMARK 923 INTER-LIGAND FREE ENERGY PREDICTED BY IDOCK:   -7.73 KCAL/MOL
REMARK 924 INTRA-LIGAND FREE ENERGY PREDICTED BY IDOCK:   -1.40 KCAL/MOL
REMARK 927      BINDING AFFINITY PREDICTED BY RF-SCORE:    0.00 PKD
ROOT
HETATM    1  C   UNL     1     -11.399  12.044  65.565  1.00  0.00    -0.328 C  
HETATM    2  C   UNL     1     -12.336  12.794  64.595  1.00  0.00    -0.524 C  
HETATM    3  C   UNL     1     -12.849  13.981  65.411  1.00  0.00    -0.442 C  
HETATM    4  C   UNL     1     -12.184  13.816  66.794  1.00  0.00    -0.397 C  
HETATM    5  C   UNL     1     -10.803  14.539  66.939  1.00  0.00    -0.305 C  
HETATM    6  N   UNL     1     -12.080  12.353  66.820  1.00  0.00    -0.565 NA 
HETATM    7  C   UNL     1     -11.516  11.751  67.999  1.00  0.00    -0.319 C  
HETATM    8  C   UNL     1      -9.545  13.731  66.507  1.00  0.00    -0.285 C  
HETATM    9  C   UNL     1      -9.908  12.514  65.575  1.00  0.00    -0.197 C  
ENDROOT
BRANCH   8  10
HETATM   10  S   UNL     1      -7.781  13.674  67.701  1.00  0.00    -0.186 SA 
BRANCH  10  11
HETATM   11  C   UNL     1      -7.611  12.083  68.689  1.00  0.00    -0.112 C  
BRANCH  11  12
HETATM   12  C   UNL     1      -6.404  10.932  68.613  1.00  0.00    -0.050 C  
HETATM   13  O   UNL     1      -5.276  11.334  68.936  1.00  0.00    -0.041 OA 
BRANCH  12  14
HETATM   14  O   UNL     1      -6.515   9.608  68.202  1.00  0.00    -0.056 OA 
BRANCH  14  15
HETATM   15  C   UNL     1      -7.814   8.687  68.486  1.00  0.00    -0.108 C  
HETATM   16  C   UNL     1      -7.727   8.716  70.099  1.00  0.00    -0.081 C  
HETATM   17  C   UNL     1      -8.872   8.173  70.994  1.00  0.00    -0.163 C  
HETATM   18  C   UNL     1     -10.990   5.573  68.403  1.00  0.00     0.097 C  
HETATM   19  C   UNL     1      -8.886   8.586  72.487  1.00  0.00    -0.245 C  
HETATM   20  C   UNL     1      -8.613   6.635  71.034  1.00  0.00    -0.137 C  
HETATM   21  O   UNL     1      -7.948   6.111  72.181  1.00  0.00    -0.107 OA 
HETATM   22  C   UNL     1      -9.832   5.837  70.647  1.00  0.00    -0.240 C  
HETATM   23  C   UNL     1     -11.059   6.813  67.481  1.00  0.00    -0.340 C  
HETATM   24  C   UNL     1      -9.669   5.273  69.173  1.00  0.00    -0.231 C  
HETATM   25  C   UNL     1     -10.268   4.829  71.742  1.00  0.00    -0.258 C  
HETATM   26  H   UNL     1      -7.790   5.175  72.205  1.00  0.00     0.000 HD 
HETATM   27  C   UNL     1      -9.428   3.739  69.340  1.00  0.00    -0.257 C  
HETATM   28  C   UNL     1      -8.934   3.217  68.028  1.00  0.00    -0.188 C  
HETATM   29  C   UNL     1      -8.165   4.397  67.501  1.00  0.00    -0.099 C  
HETATM   30  C   UNL     1      -8.392   5.728  68.312  1.00  0.00    -0.107 C  
HETATM   31  O   UNL     1      -7.345   4.226  66.630  1.00  0.00    -0.077 OA 
HETATM   32  C   UNL     1      -8.335   7.185  67.545  1.00  0.00    -0.116 C  
HETATM   33  C   UNL     1      -7.496   6.928  66.226  1.00  0.00    -0.077 C  
HETATM   34  C   UNL     1      -9.774   7.399  66.857  1.00  0.00    -0.265 C  
HETATM   35  C   UNL     1      -9.896   8.810  66.233  1.00  0.00    -0.342 C  
BRANCH  17  36
HETATM   36  C   UNL     1     -10.153   8.727  70.355  1.00  0.00    -0.223 C  
HETATM   37  C   UNL     1     -11.295   9.102  70.949  1.00  0.00    -0.359 C  
ENDBRANCH  17  36
ENDBRANCH  14  15
ENDBRANCH  12  14
ENDBRANCH  11  12
ENDBRANCH  10  11
ENDBRANCH   8  10
TORSDOF 6
ENDMDL
MODEL       32
REMARK 921   NORMALIZED FREE ENERGY PREDICTED BY IDOCK:   -5.46 KCAL/MOL
REMARK 922        TOTAL FREE ENERGY PREDICTED BY IDOCK:   -9.13 KCAL/MOL
REMARK 923 INTER-LIGAND FREE ENERGY PREDICTED BY IDOCK:   -8.23 KCAL/MOL
REMARK 924 INTRA-LIGAND FREE ENERGY PREDICTED BY IDOCK:   -0.89 KCAL/MOL
REMARK 927      BINDING AFFINITY PREDICTED BY RF-SCORE:    0.00 PKD
ROOT
HETATM    1  C   UNL     1     -11.933  14.061  64.539  1.00  0.00    -0.448 C  
HETATM    2  C   UNL     1     -12.077  13.055  63.379  1.00  0.00    -0.591 C  
HETATM    3  C   UNL     1     -10.921  12.076  63.585  1.00  0.00    -0.517 C  
HETATM    4  C   UNL     1     -10.188  12.602  64.837  1.00  0.00    -0.272 C  
HETATM    5  C   UNL     1     -10.703  12.003  66.189  1.00  0.00    -0.312 C  
HETATM    6  N   UNL     1     -10.480  14.031  64.685  1.00  0.00    -0.430 NA 
HETATM    7  C   UNL     1      -9.935  14.927  65.671  1.00  0.00    -0.358 C  
HETATM    8  C   UNL     1     -11.891  12.743  66.870  1.00  0.00    -0.371 C  
HETATM    9  C   UNL     1     -12.665  13.681  65.868  1.00  0.00    -0.428 C  
ENDROOT
BRANCH   8  10
HETATM   10  S   UNL     1     -11.898  13.173  68.958  1.00  0.00    -0.295 SA 
BRANCH  10  11
HETATM   11  C   UNL     1     -11.635  11.648  70.025  1.00  0.00    -0.255 C  
BRANCH  11  12
HETATM   12  C   UNL     1     -10.701  10.301  69.706  1.00  0.00    -0.285 C  
HETATM   13  O   UNL     1      -9.587  10.539  69.217  1.00  0.00    -0.208 OA 
BRANCH  12  14
HETATM   14  O   UNL     1     -11.042   8.965  69.893  1.00  0.00    -0.226 OA 
BRANCH  14  15
HETATM   15  C   UNL     1      -9.985   7.822  70.330  1.00  0.00    -0.189 C  
HETATM   16  C   UNL     1      -9.769   7.181  68.863  1.00  0.00    -0.146 C  
HETATM   17  C   UNL     1      -8.654   6.142  68.575  1.00  0.00    -0.113 C  
HETATM   18  C   UNL     1      -7.755   4.584  72.412  1.00  0.00    -0.085 C  
HETATM   19  C   UNL     1      -8.269   5.879  67.098  1.00  0.00    -0.105 C  
HETATM   20  C   UNL     1      -9.277   4.791  69.045  1.00  0.00    -0.123 C  
HETATM   21  O   UNL     1      -9.833   3.942  68.043  1.00  0.00    -0.110 OA 
HETATM   22  C   UNL     1      -8.386   4.053  70.011  1.00  0.00    -0.077 C  
HETATM   23  C   UNL     1      -7.546   6.070  72.787  1.00  0.00    -0.095 C  
HETATM   24  C   UNL     1      -8.948   4.195  71.488  1.00  0.00    -0.163 C  
HETATM   25  C   UNL     1      -8.025   2.623  69.531  1.00  0.00    -0.053 C  
HETATM   26  H   UNL     1     -10.213   3.120  68.330  1.00  0.00     0.000 HD 
HETATM   27  C   UNL     1      -9.530   2.792  71.848  1.00  0.00    -0.200 C  
HETATM   28  C   UNL     1     -10.367   2.955  73.077  1.00  0.00    -0.238 C  
HETATM   29  C   UNL     1     -10.900   4.350  72.900  1.00  0.00    -0.176 C  
HETATM   30  C   UNL     1     -10.204   5.162  71.743  1.00  0.00    -0.271 C  
HETATM   31  O   UNL     1     -11.879   4.691  73.520  1.00  0.00    -0.159 OA 
HETATM   32  C   UNL     1     -10.034   6.796  71.866  1.00  0.00    -0.187 C  
HETATM   33  C   UNL     1     -11.134   7.252  72.910  1.00  0.00    -0.369 C  
HETATM   34  C   UNL     1      -8.735   7.055  72.781  1.00  0.00    -0.136 C  
HETATM   35  C   UNL     1      -8.379   8.561  72.841  1.00  0.00    -0.122 C  
BRANCH  17  36
HETATM   36  C   UNL     1      -7.412   6.708  69.277  1.00  0.00    -0.095 C  
HETATM   37  C   UNL     1      -6.139   6.717  68.857  1.00  0.00    -0.026 C  
ENDBRANCH  17  36
ENDBRANCH  14  15
ENDBRANCH  12  14
ENDBRANCH  11  12
ENDBRANCH  10  11
ENDBRANCH   8  10
TORSDOF 6
ENDMDL
MODEL       33
REMARK 921   NORMALIZED FREE ENERGY PREDICTED BY IDOCK:   -5.32 KCAL/MOL
REMARK 922        TOTAL FREE ENERGY PREDICTED BY IDOCK:   -8.94 KCAL/MOL
REMARK 923 INTER-LIGAND FREE ENERGY PREDICTED BY IDOCK:   -8.22 KCAL/MOL
REMARK 924 INTRA-LIGAND FREE ENERGY PREDICTED BY IDOCK:   -0.72 KCAL/MOL
REMARK 927      BINDING AFFINITY PREDICTED BY RF-SCORE:    0.00 PKD
ROOT
HETATM    1  C   UNL     1     -10.907   5.881  70.922  1.00  0.00    -0.279 C  
HETATM    2  C   UNL     1     -11.863   6.457  71.987  1.00  0.00    -0.382 C  
HETATM    3  C   UNL     1     -11.180   7.745  72.447  1.00  0.00    -0.392 C  
HETATM    4  C   UNL     1      -9.875   7.804  71.626  1.00  0.00    -0.163 C  
HETATM    5  C   UNL     1      -9.999   8.566  70.264  1.00  0.00    -0.196 C  
HETATM    6  N   UNL     1      -9.642   6.365  71.468  1.00  0.00    -0.159 NA 
HETATM    7  C   UNL     1      -8.460   5.960  70.755  1.00  0.00    -0.129 C  
HETATM    8  C   UNL     1     -10.449   7.724  69.034  1.00  0.00    -0.205 C  
HETATM    9  C   UNL     1     -11.140   6.373  69.456  1.00  0.00    -0.460 C  
ENDROOT
BRANCH   8  10
HETATM   10  S   UNL     1      -9.471   7.881  67.147  1.00  0.00    -0.171 SA 
BRANCH  10  11
HETATM   11  C   UNL     1     -10.246   9.173  66.021  1.00  0.00    -0.023 C  
BRANCH  11  12
HETATM   12  C   UNL     1      -9.520  10.082  64.824  1.00  0.00    -0.304 C  
HETATM   13  O   UNL     1      -8.851   9.434  64.007  1.00  0.00    -0.215 OA 
BRANCH  12  14
HETATM   14  O   UNL     1      -9.555  11.465  64.666  1.00  0.00    -0.232 OA 
BRANCH  14  15
HETATM   15  C   UNL     1     -10.047  12.486  65.820  1.00  0.00    -0.262 C  
HETATM   16  C   UNL     1     -10.310  13.757  64.859  1.00  0.00    -0.420 C  
HETATM   17  C   UNL     1     -11.032  15.034  65.363  1.00  0.00    -0.380 C  
HETATM   18  C   UNL     1     -10.572  14.821  69.570  1.00  0.00    -0.200 C  
HETATM   19  C   UNL     1     -11.584  16.023  64.306  1.00  0.00    -0.139 C  
HETATM   20  C   UNL     1      -9.903  15.841  66.076  1.00  0.00    -0.337 C  
HETATM   21  O   UNL     1      -9.295  16.904  65.346  1.00  0.00    -0.296 OA 
HETATM   22  C   UNL     1     -10.278  16.234  67.482  1.00  0.00    -0.270 C  
HETATM   23  C   UNL     1     -11.203  13.418  69.404  1.00  0.00    -0.235 C  
HETATM   24  C   UNL     1      -9.523  15.309  68.527  1.00  0.00    -0.200 C  
HETATM   25  C   UNL     1     -10.210  17.765  67.721  1.00  0.00    -0.362 C  
HETATM   26  H   UNL     1      -8.607  17.394  65.780  1.00  0.00     0.000 HD 
HETATM   27  C   UNL     1      -8.435  16.220  69.177  1.00  0.00    -0.218 C  
HETATM   28  C   UNL     1      -7.483  15.329  69.910  1.00  0.00    -0.038 C  
HETATM   29  C   UNL     1      -7.508  14.090  69.058  1.00  0.00    -0.060 C  
HETATM   30  C   UNL     1      -8.653  14.077  67.975  1.00  0.00    -0.179 C  
HETATM   31  O   UNL     1      -6.606  13.292  69.148  1.00  0.00    -0.101 OA 
HETATM   32  C   UNL     1      -9.348  12.654  67.522  1.00  0.00    -0.188 C  
HETATM   33  C   UNL     1      -8.291  11.536  67.899  1.00  0.00    -0.136 C  
HETATM   34  C   UNL     1     -10.452  12.305  68.641  1.00  0.00    -0.228 C  
HETATM   35  C   UNL     1     -11.285  11.064  68.243  1.00  0.00    -0.340 C  
BRANCH  17  36
HETATM   36  C   UNL     1     -12.231  14.506  66.164  1.00  0.00    -0.268 C  
HETATM   37  C   UNL     1     -13.158  13.609  65.797  1.00  0.00    -0.053 C  
ENDBRANCH  17  36
ENDBRANCH  14  15
ENDBRANCH  12  14
ENDBRANCH  11  12
ENDBRANCH  10  11
ENDBRANCH   8  10
TORSDOF 6
ENDMDL
MODEL       34
REMARK 921   NORMALIZED FREE ENERGY PREDICTED BY IDOCK:   -5.30 KCAL/MOL
REMARK 922        TOTAL FREE ENERGY PREDICTED BY IDOCK:   -8.92 KCAL/MOL
REMARK 923 INTER-LIGAND FREE ENERGY PREDICTED BY IDOCK:   -7.85 KCAL/MOL
REMARK 924 INTRA-LIGAND FREE ENERGY PREDICTED BY IDOCK:   -1.07 KCAL/MOL
REMARK 927      BINDING AFFINITY PREDICTED BY RF-SCORE:    0.00 PKD
ROOT
HETATM    1  C   UNL     1     -10.911  14.299  67.982  1.00  0.00    -0.239 C  
HETATM    2  C   UNL     1     -11.317  15.785  68.063  1.00  0.00    -0.310 C  
HETATM    3  C   UNL     1     -10.435  16.473  67.021  1.00  0.00    -0.289 C  
HETATM    4  C   UNL     1      -9.576  15.335  66.430  1.00  0.00    -0.292 C  
HETATM    5  C   UNL     1     -10.202  14.633  65.179  1.00  0.00    -0.414 C  
HETATM    6  N   UNL     1      -9.508  14.469  67.611  1.00  0.00    -0.206 NA 
HETATM    7  C   UNL     1      -8.743  13.255  67.499  1.00  0.00    -0.202 C  
HETATM    8  C   UNL     1     -11.159  13.438  65.458  1.00  0.00    -0.282 C  
HETATM    9  C   UNL     1     -11.693  13.433  66.940  1.00  0.00    -0.434 C  
ENDROOT
BRANCH   8  10
HETATM   10  S   UNL     1     -11.028  11.613  64.364  1.00  0.00    -0.326 SA 
BRANCH  10  11
HETATM   11  C   UNL     1     -10.128  10.255  65.303  1.00  0.00    -0.289 C  
BRANCH  11  12
HETATM   12  C   UNL     1     -10.517   9.571  66.775  1.00  0.00    -0.193 C  
HETATM   13  O   UNL     1     -10.709  10.379  67.695  1.00  0.00    -0.243 OA 
BRANCH  12  14
HETATM   14  O   UNL     1     -10.614   8.218  67.085  1.00  0.00    -0.317 OA 
BRANCH  14  15
HETATM   15  C   UNL     1      -9.776   7.508  68.273  1.00  0.00    -0.155 C  
HETATM   16  C   UNL     1      -9.382   6.167  67.463  1.00  0.00    -0.113 C  
HETATM   17  C   UNL     1      -8.352   5.146  68.014  1.00  0.00    -0.097 C  
HETATM   18  C   UNL     1      -8.299   5.959  72.173  1.00  0.00    -0.118 C  
HETATM   19  C   UNL     1      -7.749   4.117  67.026  1.00  0.00    -0.092 C  
HETATM   20  C   UNL     1      -9.188   4.273  69.000  1.00  0.00    -0.145 C  
HETATM   21  O   UNL     1      -9.652   3.011  68.527  1.00  0.00    -0.170 OA 
HETATM   22  C   UNL     1      -8.561   4.192  70.368  1.00  0.00    -0.107 C  
HETATM   23  C   UNL     1      -7.999   7.407  71.720  1.00  0.00    -0.092 C  
HETATM   24  C   UNL     1      -9.350   5.120  71.385  1.00  0.00    -0.189 C  
HETATM   25  C   UNL     1      -8.278   2.735  70.820  1.00  0.00    -0.070 C  
HETATM   26  H   UNL     1     -10.161   2.479  69.127  1.00  0.00     0.000 HD 
HETATM   27  C   UNL     1     -10.132   4.142  72.318  1.00  0.00    -0.247 C  
HETATM   28  C   UNL     1     -11.145   4.950  73.066  1.00  0.00    -0.368 C  
HETATM   29  C   UNL     1     -11.487   6.016  72.061  1.00  0.00    -0.287 C  
HETATM   30  C   UNL     1     -10.520   6.062  70.818  1.00  0.00    -0.298 C  
HETATM   31  O   UNL     1     -12.516   6.637  72.185  1.00  0.00    -0.277 OA 
HETATM   32  C   UNL     1     -10.199   7.495  70.072  1.00  0.00    -0.215 C  
HETATM   33  C   UNL     1     -11.407   8.445  70.457  1.00  0.00    -0.228 C  
HETATM   34  C   UNL     1      -9.056   8.221  70.943  1.00  0.00    -0.176 C  
HETATM   35  C   UNL     1      -8.557   9.513  70.253  1.00  0.00    -0.258 C  
BRANCH  17  36
HETATM   36  C   UNL     1      -7.196   6.012  68.534  1.00  0.00    -0.084 C  
HETATM   37  C   UNL     1      -6.135   6.488  67.867  1.00  0.00    -0.027 C  
ENDBRANCH  17  36
ENDBRANCH  14  15
ENDBRANCH  12  14
ENDBRANCH  11  12
ENDBRANCH  10  11
ENDBRANCH   8  10
TORSDOF 6
ENDMDL
MODEL       35
REMARK 921   NORMALIZED FREE ENERGY PREDICTED BY IDOCK:   -5.29 KCAL/MOL
REMARK 922        TOTAL FREE ENERGY PREDICTED BY IDOCK:   -8.90 KCAL/MOL
REMARK 923 INTER-LIGAND FREE ENERGY PREDICTED BY IDOCK:   -8.36 KCAL/MOL
REMARK 924 INTRA-LIGAND FREE ENERGY PREDICTED BY IDOCK:   -0.54 KCAL/MOL
REMARK 927      BINDING AFFINITY PREDICTED BY RF-SCORE:    0.00 PKD
ROOT
HETATM    1  C   UNL     1     -10.455  18.306  67.236  1.00  0.00    -0.398 C  
HETATM    2  C   UNL     1      -9.504  19.498  67.001  1.00  0.00    -0.426 C  
HETATM    3  C   UNL     1      -8.248  19.139  67.795  1.00  0.00    -0.319 C  
HETATM    4  C   UNL     1      -8.576  17.776  68.442  1.00  0.00    -0.292 C  
HETATM    5  C   UNL     1      -8.171  16.535  67.578  1.00  0.00    -0.170 C  
HETATM    6  N   UNL     1     -10.027  17.938  68.583  1.00  0.00    -0.371 NA 
HETATM    7  C   UNL     1     -10.756  16.860  69.196  1.00  0.00    -0.298 C  
HETATM    8  C   UNL     1      -9.225  16.028  66.551  1.00  0.00    -0.276 C  
HETATM    9  C   UNL     1     -10.319  17.115  66.232  1.00  0.00    -0.315 C  
ENDROOT
BRANCH   8  10
HETATM   10  S   UNL     1      -9.683  13.957  66.339  1.00  0.00    -0.287 SA 
BRANCH  10  11
HETATM   11  C   UNL     1      -8.293  12.832  66.920  1.00  0.00    -0.058 C  
BRANCH  11  12
HETATM   12  C   UNL     1      -7.580  12.749  68.428  1.00  0.00    -0.133 C  
HETATM   13  O   UNL     1      -7.312  13.844  68.943  1.00  0.00    -0.109 OA 
BRANCH  12  14
HETATM   14  O   UNL     1      -7.229  11.606  69.141  1.00  0.00    -0.112 OA 
BRANCH  14  15
HETATM   15  C   UNL     1      -8.231  10.360  69.387  1.00  0.00    -0.151 C  
HETATM   16  C   UNL     1      -9.612  11.187  69.250  1.00  0.00     0.066 C  
HETATM   17  C   UNL     1     -10.990  10.479  69.166  1.00  0.00    -0.286 C  
HETATM   18  C   UNL     1     -10.229   6.659  70.836  1.00  0.00    -0.219 C  
HETATM   19  C   UNL     1     -12.199  11.299  68.651  1.00  0.00    -0.035 C  
HETATM   20  C   UNL     1     -11.345  10.183  70.656  1.00  0.00    -0.352 C  
HETATM   21  O   UNL     1     -12.244  11.078  71.306  1.00  0.00    -0.330 OA 
HETATM   22  C   UNL     1     -11.690   8.734  70.887  1.00  0.00    -0.299 C  
HETATM   23  C   UNL     1      -9.104   6.600  69.775  1.00  0.00    -0.143 C  
HETATM   24  C   UNL     1     -10.482   7.993  71.600  1.00  0.00    -0.272 C  
HETATM   25  C   UNL     1     -13.099   8.539  71.506  1.00  0.00    -0.325 C  
HETATM   26  H   UNL     1     -12.460  10.898  72.213  1.00  0.00     0.000 HD 
HETATM   27  C   UNL     1     -10.956   7.742  73.066  1.00  0.00    -0.442 C  
HETATM   28  C   UNL     1      -9.751   7.361  73.868  1.00  0.00    -0.287 C  
HETATM   29  C   UNL     1      -8.668   8.150  73.185  1.00  0.00    -0.240 C  
HETATM   30  C   UNL     1      -9.108   8.794  71.816  1.00  0.00    -0.305 C  
HETATM   31  O   UNL     1      -7.632   8.359  73.769  1.00  0.00    -0.262 OA 
HETATM   32  C   UNL     1      -8.011   8.985  70.601  1.00  0.00    -0.159 C  
HETATM   33  C   UNL     1      -6.596   8.973  71.312  1.00  0.00    -0.086 C  
HETATM   34  C   UNL     1      -7.899   7.563  69.856  1.00  0.00    -0.107 C  
HETATM   35  C   UNL     1      -7.011   7.657  68.592  1.00  0.00    -0.075 C  
BRANCH  17  36
HETATM   36  C   UNL     1     -10.768   9.324  68.178  1.00  0.00    -0.205 C  
HETATM   37  C   UNL     1     -10.482   9.380  66.870  1.00  0.00    -0.281 C  
ENDBRANCH  17  36
ENDBRANCH  14  15
ENDBRANCH  12  14
ENDBRANCH  11  12
ENDBRANCH  10  11
ENDBRANCH   8  10
TORSDOF 6
ENDMDL
MODEL       36
REMARK 921   NORMALIZED FREE ENERGY PREDICTED BY IDOCK:   -5.23 KCAL/MOL
REMARK 922        TOTAL FREE ENERGY PREDICTED BY IDOCK:   -8.82 KCAL/MOL
REMARK 923 INTER-LIGAND FREE ENERGY PREDICTED BY IDOCK:   -8.13 KCAL/MOL
REMARK 924 INTRA-LIGAND FREE ENERGY PREDICTED BY IDOCK:   -0.68 KCAL/MOL
REMARK 927      BINDING AFFINITY PREDICTED BY RF-SCORE:    0.00 PKD
ROOT
HETATM    1  C   UNL     1     -10.080  18.396  68.023  1.00  0.00    -0.368 C  
HETATM    2  C   UNL     1      -8.802  19.250  68.157  1.00  0.00    -0.373 C  
HETATM    3  C   UNL     1      -7.661  18.235  68.073  1.00  0.00    -0.267 C  
HETATM    4  C   UNL     1      -8.368  16.872  67.915  1.00  0.00    -0.198 C  
HETATM    5  C   UNL     1      -8.623  16.443  66.431  1.00  0.00    -0.358 C  
HETATM    6  N   UNL     1      -9.599  17.170  68.655  1.00  0.00    -0.273 NA 
HETATM    7  C   UNL     1     -10.567  16.113  68.780  1.00  0.00    -0.279 C  
HETATM    8  C   UNL     1      -9.950  16.933  65.783  1.00  0.00    -0.184 C  
HETATM    9  C   UNL     1     -10.584  18.146  66.564  1.00  0.00    -0.290 C  
ENDROOT
BRANCH   8  10
HETATM   10  S   UNL     1     -11.193  15.629  64.643  1.00  0.00    -0.274 SA 
BRANCH  10  11
HETATM   11  C   UNL     1     -10.945  13.815  65.072  1.00  0.00    -0.357 C  
BRANCH  11  12
HETATM   12  C   UNL     1     -12.055  12.727  65.683  1.00  0.00    -0.459 C  
HETATM   13  O   UNL     1     -13.093  12.607  65.016  1.00  0.00    -0.808 OA 
BRANCH  12  14
HETATM   14  O   UNL     1     -11.960  11.981  66.854  1.00  0.00    -0.612 OA 
BRANCH  14  15
HETATM   15  C   UNL     1     -10.703  11.026  67.208  1.00  0.00    -0.265 C  
HETATM   16  C   UNL     1     -11.404  10.220  68.420  1.00  0.00    -0.244 C  
HETATM   17  C   UNL     1     -10.755   8.962  69.054  1.00  0.00    -0.148 C  
HETATM   18  C   UNL     1      -6.666   9.336  68.006  1.00  0.00    -0.060 C  
HETATM   19  C   UNL     1     -11.651   8.039  69.918  1.00  0.00     0.258 C  
HETATM   20  C   UNL     1      -9.729   9.547  70.073  1.00  0.00    -0.236 C  
HETATM   21  O   UNL     1     -10.121   9.599  71.443  1.00  0.00    -0.214 OA 
HETATM   22  C   UNL     1      -8.344   8.987  69.879  1.00  0.00    -0.134 C  
HETATM   23  C   UNL     1      -7.215   9.454  66.564  1.00  0.00    -0.089 C  
HETATM   24  C   UNL     1      -7.417  10.058  69.165  1.00  0.00    -0.092 C  
HETATM   25  C   UNL     1      -7.781   8.309  71.156  1.00  0.00    -0.097 C  
HETATM   26  H   UNL     1      -9.496   9.956  72.062  1.00  0.00     0.000 HD 
HETATM   27  C   UNL     1      -6.435  10.559  70.270  1.00  0.00    -0.140 C  
HETATM   28  C   UNL     1      -5.773  11.797  69.754  1.00  0.00    -0.102 C  
HETATM   29  C   UNL     1      -6.860  12.392  68.902  1.00  0.00    -0.099 C  
HETATM   30  C   UNL     1      -8.079  11.426  68.648  1.00  0.00    -0.141 C  
HETATM   31  O   UNL     1      -6.807  13.562  68.606  1.00  0.00    -0.085 OA 
HETATM   32  C   UNL     1      -8.919  11.507  67.234  1.00  0.00    -0.162 C  
HETATM   33  C   UNL     1      -8.634  12.956  66.662  1.00  0.00     0.007 C  
HETATM   34  C   UNL     1      -8.075  10.668  66.150  1.00  0.00    -0.154 C  
HETATM   35  C   UNL     1      -8.845  10.539  64.813  1.00  0.00    -0.211 C  
BRANCH  17  36
HETATM   36  C   UNL     1     -10.271   8.135  67.855  1.00  0.00    -0.274 C  
HETATM   37  C   UNL     1     -10.590   6.877  67.516  1.00  0.00    -0.351 C  
ENDBRANCH  17  36
ENDBRANCH  14  15
ENDBRANCH  12  14
ENDBRANCH  11  12
ENDBRANCH  10  11
ENDBRANCH   8  10
TORSDOF 6
ENDMDL
MODEL       37
REMARK 921   NORMALIZED FREE ENERGY PREDICTED BY IDOCK:   -5.22 KCAL/MOL
REMARK 922        TOTAL FREE ENERGY PREDICTED BY IDOCK:   -8.80 KCAL/MOL
REMARK 923 INTER-LIGAND FREE ENERGY PREDICTED BY IDOCK:   -7.98 KCAL/MOL
REMARK 924 INTRA-LIGAND FREE ENERGY PREDICTED BY IDOCK:   -0.82 KCAL/MOL
REMARK 927      BINDING AFFINITY PREDICTED BY RF-SCORE:    0.00 PKD
ROOT
HETATM    1  C   UNL     1     -10.183  18.322  68.002  1.00  0.00    -0.385 C  
HETATM    2  C   UNL     1      -8.787  18.866  68.370  1.00  0.00    -0.379 C  
HETATM    3  C   UNL     1      -7.951  17.612  68.627  1.00  0.00    -0.275 C  
HETATM    4  C   UNL     1      -8.932  16.442  68.405  1.00  0.00    -0.214 C  
HETATM    5  C   UNL     1      -8.974  15.899  66.938  1.00  0.00    -0.257 C  
HETATM    6  N   UNL     1     -10.173  17.109  68.814  1.00  0.00    -0.314 NA 
HETATM    7  C   UNL     1     -11.383  16.330  68.785  1.00  0.00    -0.329 C  
HETATM    8  C   UNL     1      -9.967  16.598  65.965  1.00  0.00    -0.324 C  
HETATM    9  C   UNL     1     -10.419  18.013  66.487  1.00  0.00    -0.341 C  
ENDROOT
BRANCH   8  10
HETATM   10  S   UNL     1     -11.235  15.484  64.662  1.00  0.00    -0.290 SA 
BRANCH  10  11
HETATM   11  C   UNL     1     -10.776  13.664  64.566  1.00  0.00    -0.407 C  
BRANCH  11  12
HETATM   12  C   UNL     1     -11.046  12.459  65.690  1.00  0.00    -0.306 C  
HETATM   13  O   UNL     1     -12.156  11.914  65.617  1.00  0.00    -0.439 OA 
BRANCH  12  14
HETATM   14  O   UNL     1     -10.191  12.033  66.702  1.00  0.00    -0.201 OA 
BRANCH  14  15
HETATM   15  C   UNL     1      -9.185  10.775  66.554  1.00  0.00    -0.168 C  
HETATM   16  C   UNL     1      -8.920  10.920  64.967  1.00  0.00    -0.184 C  
HETATM   17  C   UNL     1      -7.820  10.102  64.239  1.00  0.00    -0.140 C  
HETATM   18  C   UNL     1      -7.138   6.836  66.852  1.00  0.00    -0.075 C  
HETATM   19  C   UNL     1      -7.375  10.574  62.832  1.00  0.00    -0.061 C  
HETATM   20  C   UNL     1      -8.499   8.723  63.973  1.00  0.00    -0.107 C  
HETATM   21  O   UNL     1      -9.032   8.494  62.671  1.00  0.00    -0.422 OA 
HETATM   22  C   UNL     1      -7.673   7.569  64.481  1.00  0.00    -0.123 C  
HETATM   23  C   UNL     1      -6.907   7.942  67.910  1.00  0.00    -0.072 C  
HETATM   24  C   UNL     1      -8.297   7.000  65.824  1.00  0.00    -0.143 C  
HETATM   25  C   UNL     1      -7.328   6.539  63.374  1.00  0.00    -0.067 C  
HETATM   26  H   UNL     1      -9.445   7.654  62.510  1.00  0.00     0.000 HD 
HETATM   27  C   UNL     1      -8.931   5.627  65.438  1.00  0.00    -0.079 C  
HETATM   28  C   UNL     1      -9.818   5.209  66.567  1.00  0.00    -0.210 C  
HETATM   29  C   UNL     1     -10.306   6.536  67.079  1.00  0.00    -0.253 C  
HETATM   30  C   UNL     1      -9.538   7.777  66.485  1.00  0.00    -0.270 C  
HETATM   31  O   UNL     1     -11.303   6.577  67.760  1.00  0.00    -0.258 OA 
HETATM   32  C   UNL     1      -9.331   9.135  67.393  1.00  0.00    -0.161 C  
HETATM   33  C   UNL     1     -10.465   9.075  68.497  1.00  0.00    -0.232 C  
HETATM   34  C   UNL     1      -8.069   8.858  68.352  1.00  0.00    -0.109 C  
HETATM   35  C   UNL     1      -7.676  10.126  69.148  1.00  0.00    -0.112 C  
BRANCH  17  36
HETATM   36  C   UNL     1      -6.597  10.199  65.162  1.00  0.00    -0.124 C  
HETATM   37  C   UNL     1      -5.341  10.554  64.858  1.00  0.00    -0.147 C  
ENDBRANCH  17  36
ENDBRANCH  14  15
ENDBRANCH  12  14
ENDBRANCH  11  12
ENDBRANCH  10  11
ENDBRANCH   8  10
TORSDOF 6
ENDMDL
MODEL       38
REMARK 921   NORMALIZED FREE ENERGY PREDICTED BY IDOCK:   -5.21 KCAL/MOL
REMARK 922        TOTAL FREE ENERGY PREDICTED BY IDOCK:   -8.79 KCAL/MOL
REMARK 923 INTER-LIGAND FREE ENERGY PREDICTED BY IDOCK:   -7.96 KCAL/MOL
REMARK 924 INTRA-LIGAND FREE ENERGY PREDICTED BY IDOCK:   -0.83 KCAL/MOL
REMARK 927      BINDING AFFINITY PREDICTED BY RF-SCORE:    0.00 PKD
ROOT
HETATM    1  C   UNL     1     -10.862   9.450  68.493  1.00  0.00    -0.105 C  
HETATM    2  C   UNL     1     -10.034   9.846  69.733  1.00  0.00    -0.275 C  
HETATM    3  C   UNL     1      -8.615   9.383  69.401  1.00  0.00    -0.148 C  
HETATM    4  C   UNL     1      -8.736   8.739  68.003  1.00  0.00    -0.141 C  
HETATM    5  C   UNL     1      -8.502   9.727  66.812  1.00  0.00    -0.125 C  
HETATM    6  N   UNL     1     -10.118   8.257  68.097  1.00  0.00    -0.192 NA 
HETATM    7  C   UNL     1     -10.646   7.540  66.967  1.00  0.00    -0.339 C  
HETATM    8  C   UNL     1      -9.749  10.503  66.296  1.00  0.00    -0.205 C  
HETATM    9  C   UNL     1     -10.924  10.510  67.345  1.00  0.00    -0.352 C  
ENDROOT
BRANCH   8  10
HETATM   10  S   UNL     1     -10.173  10.694  64.216  1.00  0.00    -0.232 SA 
BRANCH  10  11
HETATM   11  C   UNL     1     -10.827  12.394  63.751  1.00  0.00    -0.454 C  
BRANCH  11  12
HETATM   12  C   UNL     1     -11.444  13.583  64.748  1.00  0.00    -0.346 C  
HETATM   13  O   UNL     1     -12.359  13.214  65.498  1.00  0.00    -0.438 OA 
BRANCH  12  14
HETATM   14  O   UNL     1     -11.074  14.923  64.803  1.00  0.00    -0.391 OA 
BRANCH  14  15
HETATM   15  C   UNL     1     -10.384  15.610  66.095  1.00  0.00    -0.316 C  
HETATM   16  C   UNL     1     -10.224  17.091  65.469  1.00  0.00    -0.111 C  
HETATM   17  C   UNL     1      -9.809  18.309  66.334  1.00  0.00    -0.358 C  
HETATM   18  C   UNL     1      -7.935  16.530  69.693  1.00  0.00     0.417 C  
HETATM   19  C   UNL     1     -10.056  19.727  65.760  1.00  0.00    -0.423 C  
HETATM   20  C   UNL     1      -8.254  18.200  66.406  1.00  0.00    -0.253 C  
HETATM   21  O   UNL     1      -7.497  19.023  65.521  1.00  0.00    -0.476 OA 
HETATM   22  C   UNL     1      -7.740  18.235  67.822  1.00  0.00    -0.239 C  
HETATM   23  C   UNL     1      -9.258  15.736  69.805  1.00  0.00    -0.025 C  
HETATM   24  C   UNL     1      -7.316  16.778  68.285  1.00  0.00    -0.183 C  
HETATM   25  C   UNL     1      -6.719  19.376  68.068  1.00  0.00    -0.272 C  
HETATM   26  H   UNL     1      -6.551  18.956  65.564  1.00  0.00     0.000 HD 
HETATM   27  C   UNL     1      -5.756  16.795  68.329  1.00  0.00    -0.118 C  
HETATM   28  C   UNL     1      -5.295  15.375  68.425  1.00  0.00    -0.104 C  
HETATM   29  C   UNL     1      -6.361  14.655  67.647  1.00  0.00    -0.111 C  
HETATM   30  C   UNL     1      -7.618  15.542  67.305  1.00  0.00    -0.252 C  
HETATM   31  O   UNL     1      -6.137  13.547  67.222  1.00  0.00    -0.327 OA 
HETATM   32  C   UNL     1      -9.112  14.857  67.204  1.00  0.00    -0.236 C  
HETATM   33  C   UNL     1      -8.847  13.319  66.929  1.00  0.00    -0.186 C  
HETATM   34  C   UNL     1      -9.660  14.723  68.711  1.00  0.00    -0.215 C  
HETATM   35  C   UNL     1     -11.128  14.234  68.736  1.00  0.00    -0.276 C  
BRANCH  17  36
HETATM   36  C   UNL     1     -10.654  18.179  67.609  1.00  0.00    -0.424 C  
HETATM   37  C   UNL     1     -10.691  18.986  68.680  1.00  0.00     0.273 C  
ENDBRANCH  17  36
ENDBRANCH  14  15
ENDBRANCH  12  14
ENDBRANCH  11  12
ENDBRANCH  10  11
ENDBRANCH   8  10
TORSDOF 6
ENDMDL
MODEL       39
REMARK 921   NORMALIZED FREE ENERGY PREDICTED BY IDOCK:   -5.20 KCAL/MOL
REMARK 922        TOTAL FREE ENERGY PREDICTED BY IDOCK:   -8.78 KCAL/MOL
REMARK 923 INTER-LIGAND FREE ENERGY PREDICTED BY IDOCK:   -7.17 KCAL/MOL
REMARK 924 INTRA-LIGAND FREE ENERGY PREDICTED BY IDOCK:   -1.61 KCAL/MOL
REMARK 927      BINDING AFFINITY PREDICTED BY RF-SCORE:    0.00 PKD
ROOT
HETATM    1  C   UNL     1      -8.474   5.836  68.143  1.00  0.00    -0.109 C  
HETATM    2  C   UNL     1      -9.994   5.690  68.359  1.00  0.00    -0.201 C  
HETATM    3  C   UNL     1     -10.181   5.896  69.863  1.00  0.00    -0.280 C  
HETATM    4  C   UNL     1      -8.754   6.127  70.402  1.00  0.00    -0.142 C  
HETATM    5  C   UNL     1      -8.306   7.627  70.431  1.00  0.00    -0.124 C  
HETATM    6  N   UNL     1      -8.013   5.317  69.429  1.00  0.00    -0.087 NA 
HETATM    7  C   UNL     1      -6.585   5.232  69.590  1.00  0.00    -0.043 C  
HETATM    8  C   UNL     1      -7.646   8.181  69.136  1.00  0.00    -0.096 C  
HETATM    9  C   UNL     1      -7.957   7.288  67.877  1.00  0.00    -0.119 C  
ENDROOT
BRANCH   8  10
HETATM   10  S   UNL     1      -5.873   9.364  69.195  1.00  0.00    -0.035 SA 
BRANCH  10  11
HETATM   11  C   UNL     1      -6.124  11.025  70.039  1.00  0.00    -0.128 C  
BRANCH  11  12
HETATM   12  C   UNL     1      -6.519  12.495  69.352  1.00  0.00    -0.102 C  
HETATM   13  O   UNL     1      -6.394  13.474  70.102  1.00  0.00    -0.111 OA 
BRANCH  12  14
HETATM   14  O   UNL     1      -6.996  12.732  68.067  1.00  0.00    -0.083 OA 
BRANCH  14  15
HETATM   15  C   UNL     1      -8.568  12.757  67.685  1.00  0.00    -0.181 C  
HETATM   16  C   UNL     1      -8.567  11.433  66.760  1.00  0.00    -0.166 C  
HETATM   17  C   UNL     1      -9.882  10.781  66.256  1.00  0.00    -0.262 C  
HETATM   18  C   UNL     1     -12.709  13.924  66.553  1.00  0.00    -0.074 C  
HETATM   19  C   UNL     1      -9.814   9.329  65.719  1.00  0.00    -0.302 C  
HETATM   20  C   UNL     1     -10.257  11.627  65.000  1.00  0.00    -0.275 C  
HETATM   21  O   UNL     1      -9.920  11.090  63.723  1.00  0.00    -0.285 OA 
HETATM   22  C   UNL     1     -11.668  12.152  65.062  1.00  0.00    -0.371 C  
HETATM   23  C   UNL     1     -12.228  13.998  68.021  1.00  0.00    -0.188 C  
HETATM   24  C   UNL     1     -11.661  13.697  65.422  1.00  0.00    -0.334 C  
HETATM   25  C   UNL     1     -12.530  11.717  63.847  1.00  0.00    -0.380 C  
HETATM   26  H   UNL     1     -10.148  11.605  62.959  1.00  0.00     0.000 HD 
HETATM   27  C   UNL     1     -12.058  14.432  64.104  1.00  0.00    -0.405 C  
HETATM   28  C   UNL     1     -11.740  15.883  64.286  1.00  0.00    -0.132 C  
HETATM   29  C   UNL     1     -10.537  15.820  65.186  1.00  0.00    -0.411 C  
HETATM   30  C   UNL     1     -10.262  14.393  65.795  1.00  0.00    -0.355 C  
HETATM   31  O   UNL     1      -9.805  16.778  65.263  1.00  0.00    -0.485 OA 
HETATM   32  C   UNL     1      -9.589  14.246  67.291  1.00  0.00    -0.232 C  
HETATM   33  C   UNL     1      -8.848  15.622  67.550  1.00  0.00    -0.190 C  
HETATM   34  C   UNL     1     -10.783  14.430  68.353  1.00  0.00    -0.250 C  
HETATM   35  C   UNL     1     -10.300  14.158  69.798  1.00  0.00     0.370 C  
BRANCH  17  36
HETATM   36  C   UNL     1     -10.800  10.771  67.486  1.00  0.00    -0.342 C  
HETATM   37  C   UNL     1     -10.781   9.946  68.543  1.00  0.00    -0.260 C  
ENDBRANCH  17  36
ENDBRANCH  14  15
ENDBRANCH  12  14
ENDBRANCH  11  12
ENDBRANCH  10  11
ENDBRANCH   8  10
TORSDOF 6
ENDMDL
MODEL       40
REMARK 921   NORMALIZED FREE ENERGY PREDICTED BY IDOCK:   -5.18 KCAL/MOL
REMARK 922        TOTAL FREE ENERGY PREDICTED BY IDOCK:   -8.75 KCAL/MOL
REMARK 923 INTER-LIGAND FREE ENERGY PREDICTED BY IDOCK:   -7.89 KCAL/MOL
REMARK 924 INTRA-LIGAND FREE ENERGY PREDICTED BY IDOCK:   -0.86 KCAL/MOL
REMARK 927      BINDING AFFINITY PREDICTED BY RF-SCORE:    0.00 PKD
ROOT
HETATM    1  C   UNL     1     -10.001   7.331  67.374  1.00  0.00    -0.174 C  
HETATM    2  C   UNL     1     -10.974   6.190  67.734  1.00  0.00    -0.400 C  
HETATM    3  C   UNL     1     -11.110   6.279  69.255  1.00  0.00    -0.461 C  
HETATM    4  C   UNL     1     -10.192   7.452  69.657  1.00  0.00    -0.210 C  
HETATM    5  C   UNL     1     -10.901   8.848  69.688  1.00  0.00    -0.186 C  
HETATM    6  N   UNL     1      -9.193   7.331  68.590  1.00  0.00    -0.137 NA 
HETATM    7  C   UNL     1      -8.092   8.258  68.606  1.00  0.00    -0.120 C  
HETATM    8  C   UNL     1     -10.929   9.645  68.352  1.00  0.00    -0.113 C  
HETATM    9  C   UNL     1     -10.655   8.726  67.102  1.00  0.00    -0.303 C  
ENDROOT
BRANCH   8  10
HETATM   10  S   UNL     1     -10.463  11.723  68.272  1.00  0.00    -0.213 SA 
BRANCH  10  11
HETATM   11  C   UNL     1      -8.624  12.073  68.445  1.00  0.00    -0.147 C  
BRANCH  11  12
HETATM   12  C   UNL     1      -7.509  12.408  67.248  1.00  0.00    -0.135 C  
HETATM   13  O   UNL     1      -7.147  11.428  66.581  1.00  0.00    -0.140 OA 
BRANCH  12  14
HETATM   14  O   UNL     1      -6.928  13.636  66.946  1.00  0.00     0.155 OA 
BRANCH  14  15
HETATM   15  C   UNL     1      -7.567  15.059  67.372  1.00  0.00    -0.205 C  
HETATM   16  C   UNL     1      -9.023  14.826  66.714  1.00  0.00    -0.292 C  
HETATM   17  C   UNL     1     -10.211  15.787  66.984  1.00  0.00    -0.280 C  
HETATM   18  C   UNL     1      -8.313  19.353  68.263  1.00  0.00    -0.379 C  
HETATM   19  C   UNL     1     -11.639  15.291  66.644  1.00  0.00    -0.036 C  
HETATM   20  C   UNL     1      -9.975  16.959  65.982  1.00  0.00    -0.293 C  
HETATM   21  O   UNL     1     -10.724  16.946  64.769  1.00  0.00    -0.758 OA 
HETATM   22  C   UNL     1      -9.980  18.304  66.660  1.00  0.00    -0.370 C  
HETATM   23  C   UNL     1      -7.632  18.426  69.297  1.00  0.00     0.014 C  
HETATM   24  C   UNL     1      -8.496  18.851  66.799  1.00  0.00    -0.304 C  
HETATM   25  C   UNL     1     -11.034  19.276  66.070  1.00  0.00    -0.193 C  
HETATM   26  H   UNL     1     -10.580  17.660  64.159  1.00  0.00     0.000 HD 
HETATM   27  C   UNL     1      -8.385  20.016  65.766  1.00  0.00    -0.055 C  
HETATM   28  C   UNL     1      -6.933  20.339  65.610  1.00  0.00    -0.292 C  
HETATM   29  C   UNL     1      -6.296  18.992  65.817  1.00  0.00    -0.235 C  
HETATM   30  C   UNL     1      -7.281  17.894  66.370  1.00  0.00    -0.298 C  
HETATM   31  O   UNL     1      -5.169  18.804  65.424  1.00  0.00    -0.142 OA 
HETATM   32  C   UNL     1      -6.720  16.702  67.359  1.00  0.00    -0.199 C  
HETATM   33  C   UNL     1      -5.164  16.622  67.075  1.00  0.00    -0.115 C  
HETATM   34  C   UNL     1      -6.647  17.329  68.839  1.00  0.00    -0.212 C  
HETATM   35  C   UNL     1      -6.280  16.254  69.890  1.00  0.00    -0.161 C  
BRANCH  17  36
HETATM   36  C   UNL     1     -10.163  16.040  68.497  1.00  0.00    -0.236 C  
HETATM   37  C   UNL     1     -10.798  15.385  69.480  1.00  0.00    -0.268 C  
ENDBRANCH  17  36
ENDBRANCH  14  15
ENDBRANCH  12  14
ENDBRANCH  11  12
ENDBRANCH  10  11
ENDBRANCH   8  10
TORSDOF 6
ENDMDL
MODEL       41
REMARK 921   NORMALIZED FREE ENERGY PREDICTED BY IDOCK:   -5.18 KCAL/MOL
REMARK 922        TOTAL FREE ENERGY PREDICTED BY IDOCK:   -8.75 KCAL/MOL
REMARK 923 INTER-LIGAND FREE ENERGY PREDICTED BY IDOCK:   -7.52 KCAL/MOL
REMARK 924 INTRA-LIGAND FREE ENERGY PREDICTED BY IDOCK:   -1.23 KCAL/MOL
REMARK 927      BINDING AFFINITY PREDICTED BY RF-SCORE:    0.00 PKD
ROOT
HETATM    1  C   UNL     1      -5.874   4.384  72.521  1.00  0.00    -0.015 C  
HETATM    2  C   UNL     1      -6.841   3.977  73.652  1.00  0.00    -0.054 C  
HETATM    3  C   UNL     1      -7.957   5.019  73.584  1.00  0.00    -0.106 C  
HETATM    4  C   UNL     1      -7.541   5.957  72.431  1.00  0.00    -0.101 C  
HETATM    5  C   UNL     1      -8.088   5.538  71.025  1.00  0.00    -0.118 C  
HETATM    6  N   UNL     1      -6.085   5.828  72.552  1.00  0.00    -0.039 NA 
HETATM    7  C   UNL     1      -5.276   6.595  71.642  1.00  0.00    -0.027 C  
HETATM    8  C   UNL     1      -7.215   4.542  70.208  1.00  0.00    -0.049 C  
HETATM    9  C   UNL     1      -6.177   3.776  71.112  1.00  0.00    -0.015 C  
ENDROOT
BRANCH   8  10
HETATM   10  S   UNL     1      -6.812   4.840  68.136  1.00  0.00    -0.057 SA 
BRANCH  10  11
HETATM   11  C   UNL     1      -7.744   6.301  67.407  1.00  0.00    -0.097 C  
BRANCH  11  12
HETATM   12  C   UNL     1      -9.324   6.368  66.871  1.00  0.00    -0.134 C  
HETATM   13  O   UNL     1      -9.917   5.280  66.850  1.00  0.00    -0.155 OA 
BRANCH  12  14
HETATM   14  O   UNL     1     -10.023   7.484  66.421  1.00  0.00    -0.164 OA 
BRANCH  14  15
HETATM   15  C   UNL     1      -9.893   8.952  67.087  1.00  0.00    -0.207 C  
HETATM   16  C   UNL     1     -10.704   8.626  68.445  1.00  0.00    -0.098 C  
HETATM   17  C   UNL     1     -10.736   9.613  69.641  1.00  0.00    -0.260 C  
HETATM   18  C   UNL     1      -9.724  13.328  67.871  1.00  0.00    -0.224 C  
HETATM   19  C   UNL     1     -11.194   9.071  71.019  1.00  0.00    -0.361 C  
HETATM   20  C   UNL     1     -11.851  10.632  69.251  1.00  0.00    -0.237 C  
HETATM   21  O   UNL     1     -13.141  10.446  69.829  1.00  0.00    -0.577 OA 
HETATM   22  C   UNL     1     -11.376  12.060  69.324  1.00  0.00    -0.330 C  
HETATM   23  C   UNL     1      -8.486  12.558  67.353  1.00  0.00    -0.181 C  
HETATM   24  C   UNL     1     -11.114  12.623  67.863  1.00  0.00    -0.285 C  
HETATM   25  C   UNL     1     -12.235  12.937  70.272  1.00  0.00    -0.362 C  
HETATM   26  H   UNL     1     -13.820  11.067  69.591  1.00  0.00     0.000 HD 
HETATM   27  C   UNL     1     -12.275  13.630  67.593  1.00  0.00    -0.224 C  
HETATM   28  C   UNL     1     -12.276  13.930  66.127  1.00  0.00    -0.498 C  
HETATM   29  C   UNL     1     -11.797  12.628  65.548  1.00  0.00    -0.431 C  
HETATM   30  C   UNL     1     -11.234  11.617  66.618  1.00  0.00    -0.362 C  
HETATM   31  O   UNL     1     -12.002  12.388  64.383  1.00  0.00    -0.368 OA 
HETATM   32  C   UNL     1     -10.021  10.578  66.218  1.00  0.00    -0.276 C  
HETATM   33  C   UNL     1     -10.076  10.462  64.639  1.00  0.00    -0.378 C  
HETATM   34  C   UNL     1      -8.647  11.409  66.334  1.00  0.00    -0.174 C  
HETATM   35  C   UNL     1      -7.415  10.494  66.131  1.00  0.00    -0.136 C  
BRANCH  17  36
HETATM   36  C   UNL     1      -9.281  10.078  69.794  1.00  0.00    -0.227 C  
HETATM   37  C   UNL     1      -8.218   9.385  70.228  1.00  0.00    -0.194 C  
ENDBRANCH  17  36
ENDBRANCH  14  15
ENDBRANCH  12  14
ENDBRANCH  11  12
ENDBRANCH  10  11
ENDBRANCH   8  10
TORSDOF 6
ENDMDL
MODEL       42
REMARK 921   NORMALIZED FREE ENERGY PREDICTED BY IDOCK:   -5.12 KCAL/MOL
REMARK 922        TOTAL FREE ENERGY PREDICTED BY IDOCK:   -8.67 KCAL/MOL
REMARK 923 INTER-LIGAND FREE ENERGY PREDICTED BY IDOCK:   -7.42 KCAL/MOL
REMARK 924 INTRA-LIGAND FREE ENERGY PREDICTED BY IDOCK:   -1.25 KCAL/MOL
REMARK 927      BINDING AFFINITY PREDICTED BY RF-SCORE:    0.00 PKD
ROOT
HETATM    1  C   UNL     1     -11.440  13.812  64.147  1.00  0.00    -0.293 C  
HETATM    2  C   UNL     1     -11.491  14.939  65.199  1.00  0.00    -0.357 C  
HETATM    3  C   UNL     1     -12.042  14.257  66.452  1.00  0.00    -0.442 C  
HETATM    4  C   UNL     1     -12.283  12.795  66.022  1.00  0.00    -0.314 C  
HETATM    5  C   UNL     1     -11.064  11.841  66.254  1.00  0.00    -0.364 C  
HETATM    6  N   UNL     1     -12.581  13.024  64.604  1.00  0.00    -0.659 NA 
HETATM    7  C   UNL     1     -12.906  11.874  63.803  1.00  0.00    -0.278 C  
HETATM    8  C   UNL     1     -10.021  11.752  65.103  1.00  0.00    -0.253 C  
HETATM    9  C   UNL     1     -10.122  12.970  64.109  1.00  0.00    -0.146 C  
ENDROOT
BRANCH   8  10
HETATM   10  S   UNL     1      -9.247   9.884  64.428  1.00  0.00    -0.249 SA 
BRANCH  10  11
HETATM   11  C   UNL     1      -8.966   8.656  65.824  1.00  0.00    -0.197 C  
BRANCH  11  12
HETATM   12  C   UNL     1      -7.627   7.704  66.120  1.00  0.00    -0.088 C  
HETATM   13  O   UNL     1      -7.384   6.855  65.250  1.00  0.00    -0.076 OA 
BRANCH  12  14
HETATM   14  O   UNL     1      -6.790   7.734  67.232  1.00  0.00    -0.066 OA 
BRANCH  14  15
HETATM   15  C   UNL     1      -7.320   7.612  68.755  1.00  0.00    -0.091 C  
HETATM   16  C   UNL     1      -7.879   6.100  68.649  1.00  0.00    -0.101 C  
HETATM   17  C   UNL     1      -8.331   5.300  69.899  1.00  0.00    -0.094 C  
HETATM   18  C   UNL     1      -9.113   8.324  72.764  1.00  0.00    -0.332 C  
HETATM   19  C   UNL     1      -8.477   3.764  69.765  1.00  0.00    -0.092 C  
HETATM   20  C   UNL     1      -9.790   5.795  70.148  1.00  0.00    -0.184 C  
HETATM   21  O   UNL     1     -10.852   4.969  69.676  1.00  0.00     0.003 OA 
HETATM   22  C   UNL     1     -10.002   6.271  71.561  1.00  0.00    -0.208 C  
HETATM   23  C   UNL     1      -7.670   8.776  72.439  1.00  0.00     0.069 C  
HETATM   24  C   UNL     1     -10.041   7.857  71.602  1.00  0.00    -0.228 C  
HETATM   25  C   UNL     1     -11.147   5.521  72.289  1.00  0.00    -0.297 C  
HETATM   26  H   UNL     1     -11.740   5.270  69.827  1.00  0.00     0.000 HD 
HETATM   27  C   UNL     1     -11.534   8.228  71.866  1.00  0.00    -0.372 C  
HETATM   28  C   UNL     1     -11.691   9.688  71.578  1.00  0.00    -0.472 C  
HETATM   29  C   UNL     1     -10.689   9.891  70.475  1.00  0.00    -0.317 C  
HETATM   30  C   UNL     1      -9.718   8.669  70.255  1.00  0.00    -0.191 C  
HETATM   31  O   UNL     1     -10.783  10.861  69.762  1.00  0.00    -0.225 OA 
HETATM   32  C   UNL     1      -8.174   8.921  69.740  1.00  0.00    -0.119 C  
HETATM   33  C   UNL     1      -8.196  10.343  69.040  1.00  0.00    -0.141 C  
HETATM   34  C   UNL     1      -7.316   9.325  71.040  1.00  0.00    -0.091 C  
HETATM   35  C   UNL     1      -5.808   9.436  70.708  1.00  0.00    -0.058 C  
BRANCH  17  36
HETATM   36  C   UNL     1      -7.235   5.566  70.940  1.00  0.00    -0.078 C  
HETATM   37  C   UNL     1      -6.010   5.027  71.029  1.00  0.00    -0.017 C  
ENDBRANCH  17  36
ENDBRANCH  14  15
ENDBRANCH  12  14
ENDBRANCH  11  12
ENDBRANCH  10  11
ENDBRANCH   8  10
TORSDOF 6
ENDMDL
MODEL       43
REMARK 921   NORMALIZED FREE ENERGY PREDICTED BY IDOCK:   -5.10 KCAL/MOL
REMARK 922        TOTAL FREE ENERGY PREDICTED BY IDOCK:   -8.64 KCAL/MOL
REMARK 923 INTER-LIGAND FREE ENERGY PREDICTED BY IDOCK:   -7.77 KCAL/MOL
REMARK 924 INTRA-LIGAND FREE ENERGY PREDICTED BY IDOCK:   -0.87 KCAL/MOL
REMARK 927      BINDING AFFINITY PREDICTED BY RF-SCORE:    0.00 PKD
ROOT
HETATM    1  C   UNL     1      -9.232  18.939  68.446  1.00  0.00    -0.347 C  
HETATM    2  C   UNL     1      -9.325  20.122  67.460  1.00  0.00    -0.507 C  
HETATM    3  C   UNL     1      -8.601  19.626  66.209  1.00  0.00    -0.393 C  
HETATM    4  C   UNL     1      -8.130  18.202  66.574  1.00  0.00    -0.269 C  
HETATM    5  C   UNL     1      -9.151  17.070  66.217  1.00  0.00    -0.279 C  
HETATM    6  N   UNL     1      -7.949  18.389  68.017  1.00  0.00    -0.268 NA 
HETATM    7  C   UNL     1      -7.470  17.263  68.775  1.00  0.00    -0.260 C  
HETATM    8  C   UNL     1     -10.220  16.732  67.296  1.00  0.00    -0.292 C  
HETATM    9  C   UNL     1     -10.383  17.884  68.358  1.00  0.00    -0.380 C  
ENDROOT
BRANCH   8  10
HETATM   10  S   UNL     1     -10.689  14.720  67.822  1.00  0.00    -0.274 SA 
BRANCH  10  11
HETATM   11  C   UNL     1     -10.808  13.578  66.333  1.00  0.00    -0.290 C  
BRANCH  11  12
HETATM   12  C   UNL     1     -11.165  11.948  66.295  1.00  0.00    -0.337 C  
HETATM   13  O   UNL     1     -12.083  11.595  67.049  1.00  0.00    -0.547 OA 
BRANCH  12  14
HETATM   14  O   UNL     1     -10.534  10.955  65.551  1.00  0.00    -0.261 OA 
BRANCH  14  15
HETATM   15  C   UNL     1      -9.421   9.951  66.158  1.00  0.00    -0.200 C  
HETATM   16  C   UNL     1     -10.445   8.818  66.685  1.00  0.00    -0.240 C  
HETATM   17  C   UNL     1      -9.954   7.435  67.188  1.00  0.00    -0.281 C  
HETATM   18  C   UNL     1      -5.892   8.140  68.172  1.00  0.00    -0.041 C  
HETATM   19  C   UNL     1     -10.992   6.291  67.300  1.00  0.00    -0.455 C  
HETATM   20  C   UNL     1      -9.535   7.706  68.666  1.00  0.00    -0.151 C  
HETATM   21  O   UNL     1     -10.464   7.349  69.687  1.00  0.00    -0.221 OA 
HETATM   22  C   UNL     1      -8.132   7.240  68.960  1.00  0.00    -0.124 C  
HETATM   23  C   UNL     1      -5.803   8.670  66.722  1.00  0.00    -0.052 C  
HETATM   24  C   UNL     1      -7.148   8.483  69.029  1.00  0.00    -0.065 C  
HETATM   25  C   UNL     1      -8.065   6.224  70.130  1.00  0.00    -0.116 C  
HETATM   26  H   UNL     1     -10.209   7.515  70.587  1.00  0.00     0.000 HD 
HETATM   27  C   UNL     1      -6.793   8.647  70.541  1.00  0.00    -0.042 C  
HETATM   28  C   UNL     1      -6.153   9.989  70.708  1.00  0.00    -0.092 C  
HETATM   29  C   UNL     1      -6.857  10.796  69.653  1.00  0.00    -0.133 C  
HETATM   30  C   UNL     1      -7.716   9.936  68.650  1.00  0.00    -0.081 C  
HETATM   31  O   UNL     1      -6.846  12.002  69.726  1.00  0.00    -0.003 OA 
HETATM   32  C   UNL     1      -7.894  10.420  67.086  1.00  0.00    -0.110 C  
HETATM   33  C   UNL     1      -7.597  11.976  67.095  1.00  0.00    -0.146 C  
HETATM   34  C   UNL     1      -6.570   9.944  66.304  1.00  0.00    -0.078 C  
HETATM   35  C   UNL     1      -6.688  10.205  64.783  1.00  0.00    -0.121 C  
BRANCH  17  36
HETATM   36  C   UNL     1      -8.906   7.001  66.153  1.00  0.00    -0.165 C  
HETATM   37  C   UNL     1      -8.594   5.764  65.740  1.00  0.00    -0.149 C  
ENDBRANCH  17  36
ENDBRANCH  14  15
ENDBRANCH  12  14
ENDBRANCH  11  12
ENDBRANCH  10  11
ENDBRANCH   8  10
TORSDOF 6
ENDMDL
MODEL       44
REMARK 921   NORMALIZED FREE ENERGY PREDICTED BY IDOCK:   -5.08 KCAL/MOL
REMARK 922        TOTAL FREE ENERGY PREDICTED BY IDOCK:   -8.61 KCAL/MOL
REMARK 923 INTER-LIGAND FREE ENERGY PREDICTED BY IDOCK:   -7.40 KCAL/MOL
REMARK 924 INTRA-LIGAND FREE ENERGY PREDICTED BY IDOCK:   -1.21 KCAL/MOL
REMARK 927      BINDING AFFINITY PREDICTED BY RF-SCORE:    0.00 PKD
ROOT
HETATM    1  C   UNL     1     -12.155  14.196  64.383  1.00  0.00    -0.463 C  
HETATM    2  C   UNL     1     -12.171  13.142  63.256  1.00  0.00    -0.438 C  
HETATM    3  C   UNL     1     -10.861  12.375  63.440  1.00  0.00    -0.417 C  
HETATM    4  C   UNL     1     -10.181  13.056  64.647  1.00  0.00    -0.302 C  
HETATM    5  C   UNL     1     -10.540  12.425  66.034  1.00  0.00    -0.286 C  
HETATM    6  N   UNL     1     -10.713  14.411  64.469  1.00  0.00    -0.319 NA 
HETATM    7  C   UNL     1     -10.289  15.416  65.408  1.00  0.00    -0.394 C  
HETATM    8  C   UNL     1     -11.809  12.980  66.744  1.00  0.00    -0.388 C  
HETATM    9  C   UNL     1     -12.764  13.743  65.750  1.00  0.00    -0.494 C  
ENDROOT
BRANCH   8  10
HETATM   10  S   UNL     1     -11.813  13.471  68.818  1.00  0.00    -0.352 SA 
BRANCH  10  11
HETATM   11  C   UNL     1     -11.729  11.959  69.933  1.00  0.00    -0.308 C  
BRANCH  11  12
HETATM   12  C   UNL     1     -11.463  10.366  69.510  1.00  0.00    -0.246 C  
HETATM   13  O   UNL     1     -11.563   9.554  70.441  1.00  0.00    -0.258 OA 
BRANCH  12  14
HETATM   14  O   UNL     1     -11.114   9.863  68.261  1.00  0.00    -0.230 OA 
BRANCH  14  15
HETATM   15  C   UNL     1      -9.792   8.973  67.990  1.00  0.00    -0.166 C  
HETATM   16  C   UNL     1     -10.549   7.569  67.732  1.00  0.00    -0.274 C  
HETATM   17  C   UNL     1      -9.806   6.322  67.184  1.00  0.00    -0.173 C  
HETATM   18  C   UNL     1      -5.745   7.128  68.088  1.00  0.00    -0.022 C  
HETATM   19  C   UNL     1     -10.657   5.164  66.606  1.00  0.00    -0.295 C  
HETATM   20  C   UNL     1      -9.140   5.701  68.451  1.00  0.00    -0.117 C  
HETATM   21  O   UNL     1      -9.801   4.596  69.064  1.00  0.00    -0.175 OA 
HETATM   22  C   UNL     1      -7.662   5.473  68.269  1.00  0.00    -0.085 C  
HETATM   23  C   UNL     1      -6.006   8.447  67.323  1.00  0.00    -0.051 C  
HETATM   24  C   UNL     1      -6.839   6.581  69.053  1.00  0.00    -0.066 C  
HETATM   25  C   UNL     1      -7.244   3.997  68.495  1.00  0.00    -0.055 C  
HETATM   26  H   UNL     1      -9.396   4.218  69.835  1.00  0.00     0.000 HD 
HETATM   27  C   UNL     1      -6.217   5.845  70.281  1.00  0.00    -0.031 C  
HETATM   28  C   UNL     1      -5.721   6.891  71.228  1.00  0.00    -0.035 C  
HETATM   29  C   UNL     1      -6.711   8.001  71.001  1.00  0.00    -0.041 C  
HETATM   30  C   UNL     1      -7.641   7.787  69.746  1.00  0.00    -0.091 C  
HETATM   31  O   UNL     1      -6.831   8.866  71.835  1.00  0.00    -0.202 OA 
HETATM   32  C   UNL     1      -8.179   9.083  68.885  1.00  0.00    -0.120 C  
HETATM   33  C   UNL     1      -8.076  10.315  69.876  1.00  0.00    -0.071 C  
HETATM   34  C   UNL     1      -6.987   9.499  67.886  1.00  0.00    -0.079 C  
HETATM   35  C   UNL     1      -7.433  10.613  66.909  1.00  0.00    -0.115 C  
BRANCH  17  36
HETATM   36  C   UNL     1      -8.938   6.866  66.040  1.00  0.00    -0.131 C  
HETATM   37  C   UNL     1      -8.348   6.196  65.040  1.00  0.00    -0.112 C  
ENDBRANCH  17  36
ENDBRANCH  14  15
ENDBRANCH  12  14
ENDBRANCH  11  12
ENDBRANCH  10  11
ENDBRANCH   8  10
TORSDOF 6
ENDMDL
MODEL       45
REMARK 921   NORMALIZED FREE ENERGY PREDICTED BY IDOCK:   -5.08 KCAL/MOL
REMARK 922        TOTAL FREE ENERGY PREDICTED BY IDOCK:   -8.61 KCAL/MOL
REMARK 923 INTER-LIGAND FREE ENERGY PREDICTED BY IDOCK:   -7.46 KCAL/MOL
REMARK 924 INTRA-LIGAND FREE ENERGY PREDICTED BY IDOCK:   -1.15 KCAL/MOL
REMARK 927      BINDING AFFINITY PREDICTED BY RF-SCORE:    0.00 PKD
ROOT
HETATM    1  C   UNL     1     -10.884   5.343  71.853  1.00  0.00    -0.186 C  
HETATM    2  C   UNL     1      -9.574   4.998  72.591  1.00  0.00    -0.165 C  
HETATM    3  C   UNL     1      -8.638   6.159  72.257  1.00  0.00    -0.119 C  
HETATM    4  C   UNL     1      -9.472   7.077  71.339  1.00  0.00    -0.159 C  
HETATM    5  C   UNL     1     -10.286   8.181  72.093  1.00  0.00    -0.342 C  
HETATM    6  N   UNL     1     -10.319   6.057  70.711  1.00  0.00    -0.213 NA 
HETATM    7  C   UNL     1     -11.266   6.500  69.723  1.00  0.00    -0.395 C  
HETATM    8  C   UNL     1     -11.709   7.784  72.584  1.00  0.00    -0.309 C  
HETATM    9  C   UNL     1     -11.904   6.223  72.648  1.00  0.00    -0.108 C  
ENDROOT
BRANCH   8  10
HETATM   10  S   UNL     1     -13.392   9.062  72.302  1.00  0.00    -0.477 SA 
BRANCH  10  11
HETATM   11  C   UNL     1     -12.931  10.744  71.601  1.00  0.00    -0.476 C  
BRANCH  11  12
HETATM   12  C   UNL     1     -12.218  11.103  70.134  1.00  0.00    -0.337 C  
HETATM   13  O   UNL     1     -12.543  10.358  69.198  1.00  0.00    -0.058 OA 
BRANCH  12  14
HETATM   14  O   UNL     1     -11.291  12.104  69.860  1.00  0.00    -0.173 OA 
BRANCH  14  15
HETATM   15  C   UNL     1     -10.323  12.099  68.565  1.00  0.00    -0.221 C  
HETATM   16  C   UNL     1     -11.340  12.847  67.556  1.00  0.00    -0.354 C  
HETATM   17  C   UNL     1     -10.890  13.354  66.161  1.00  0.00    -0.287 C  
HETATM   18  C   UNL     1      -7.418  11.058  65.360  1.00  0.00     0.262 C  
HETATM   19  C   UNL     1     -11.792  14.383  65.435  1.00  0.00    -0.366 C  
HETATM   20  C   UNL     1     -10.974  12.082  65.260  1.00  0.00    -0.308 C  
HETATM   21  O   UNL     1     -12.130  11.935  64.440  1.00  0.00    -0.300 OA 
HETATM   22  C   UNL     1      -9.690  11.819  64.517  1.00  0.00    -0.165 C  
HETATM   23  C   UNL     1      -6.942  11.601  66.728  1.00  0.00    -0.080 C  
HETATM   24  C   UNL     1      -8.904  10.618  65.194  1.00  0.00    -0.207 C  
HETATM   25  C   UNL     1      -9.882  11.755  62.980  1.00  0.00    -0.264 C  
HETATM   26  H   UNL     1     -12.181  11.161  63.892  1.00  0.00     0.000 HD 
HETATM   27  C   UNL     1      -9.048   9.418  64.206  1.00  0.00    -0.159 C  
HETATM   28  C   UNL     1      -8.628   8.182  64.936  1.00  0.00    -0.039 C  
HETATM   29  C   UNL     1      -9.053   8.500  66.343  1.00  0.00    -0.184 C  
HETATM   30  C   UNL     1      -9.471  10.003  66.565  1.00  0.00    -0.222 C  
HETATM   31  O   UNL     1      -9.186   7.600  67.138  1.00  0.00    -0.125 OA 
HETATM   32  C   UNL     1      -9.209  10.730  68.019  1.00  0.00    -0.150 C  
HETATM   33  C   UNL     1      -9.088   9.543  69.062  1.00  0.00    -0.144 C  
HETATM   34  C   UNL     1      -7.668  11.195  68.029  1.00  0.00    -0.107 C  
HETATM   35  C   UNL     1      -7.340  12.033  69.288  1.00  0.00     0.126 C  
BRANCH  17  36
HETATM   36  C   UNL     1      -9.537  14.033  66.418  1.00  0.00    -0.299 C  
HETATM   37  C   UNL     1      -9.185  15.310  66.211  1.00  0.00    -0.350 C  
ENDBRANCH  17  36
ENDBRANCH  14  15
ENDBRANCH  12  14
ENDBRANCH  11  12
ENDBRANCH  10  11
ENDBRANCH   8  10
TORSDOF 6
ENDMDL
MODEL       46
REMARK 921   NORMALIZED FREE ENERGY PREDICTED BY IDOCK:   -5.06 KCAL/MOL
REMARK 922        TOTAL FREE ENERGY PREDICTED BY IDOCK:   -8.58 KCAL/MOL
REMARK 923 INTER-LIGAND FREE ENERGY PREDICTED BY IDOCK:   -7.62 KCAL/MOL
REMARK 924 INTRA-LIGAND FREE ENERGY PREDICTED BY IDOCK:   -0.97 KCAL/MOL
REMARK 927      BINDING AFFINITY PREDICTED BY RF-SCORE:    0.00 PKD
ROOT
HETATM    1  C   UNL     1      -9.472   4.342  68.135  1.00  0.00    -0.157 C  
HETATM    2  C   UNL     1      -9.409   2.863  67.700  1.00  0.00    -0.234 C  
HETATM    3  C   UNL     1      -9.367   2.923  66.173  1.00  0.00    -0.053 C  
HETATM    4  C   UNL     1      -9.427   4.429  65.843  1.00  0.00    -0.174 C  
HETATM    5  C   UNL     1      -8.028   5.125  65.733  1.00  0.00    -0.108 C  
HETATM    6  N   UNL     1     -10.212   4.881  66.997  1.00  0.00    -0.204 NA 
HETATM    7  C   UNL     1     -10.534   6.281  67.070  1.00  0.00    -0.278 C  
HETATM    8  C   UNL     1      -7.424   5.685  67.053  1.00  0.00    -0.084 C  
HETATM    9  C   UNL     1      -8.095   5.056  68.332  1.00  0.00    -0.086 C  
ENDROOT
BRANCH   8  10
HETATM   10  S   UNL     1      -6.543   7.623  67.152  1.00  0.00    -0.064 SA 
BRANCH  10  11
HETATM   11  C   UNL     1      -6.800   8.630  65.585  1.00  0.00    -0.071 C  
BRANCH  11  12
HETATM   12  C   UNL     1      -7.407  10.177  65.427  1.00  0.00    -0.144 C  
HETATM   13  O   UNL     1      -7.968  10.412  64.347  1.00  0.00    -0.154 OA 
BRANCH  12  14
HETATM   14  O   UNL     1      -7.324  11.222  66.343  1.00  0.00    -0.131 OA 
BRANCH  14  15
HETATM   15  C   UNL     1      -8.536  12.250  66.642  1.00  0.00    -0.056 C  
HETATM   16  C   UNL     1      -7.634  13.450  67.239  1.00  0.00    -0.076 C  
HETATM   17  C   UNL     1      -8.219  14.860  67.515  1.00  0.00    -0.199 C  
HETATM   18  C   UNL     1     -12.387  14.149  67.807  1.00  0.00    -0.050 C  
HETATM   19  C   UNL     1      -7.227  16.033  67.708  1.00  0.00    -0.161 C  
HETATM   20  C   UNL     1      -8.899  14.712  68.911  1.00  0.00    -0.136 C  
HETATM   21  O   UNL     1      -8.175  15.180  70.047  1.00  0.00    -0.332 OA 
HETATM   22  C   UNL     1     -10.335  15.169  68.902  1.00  0.00    -0.243 C  
HETATM   23  C   UNL     1     -12.206  13.489  66.420  1.00  0.00    -0.454 C  
HETATM   24  C   UNL     1     -11.307  13.914  68.905  1.00  0.00    -0.319 C  
HETATM   25  C   UNL     1     -10.623  16.284  69.941  1.00  0.00    -0.280 C  
HETATM   26  H   UNL     1      -8.589  15.090  70.896  1.00  0.00     0.000 HD 
HETATM   27  C   UNL     1     -11.931  13.877  70.336  1.00  0.00    -0.393 C  
HETATM   28  C   UNL     1     -12.581  12.541  70.507  1.00  0.00    -0.177 C  
HETATM   29  C   UNL     1     -11.690  11.659  69.676  1.00  0.00    -0.350 C  
HETATM   30  C   UNL     1     -10.669  12.447  68.771  1.00  0.00    -0.242 C  
HETATM   31  O   UNL     1     -11.706  10.465  69.857  1.00  0.00    -0.258 OA 
HETATM   32  C   UNL     1     -10.204  11.829  67.317  1.00  0.00    -0.226 C  
HETATM   33  C   UNL     1     -10.486  10.274  67.415  1.00  0.00    -0.303 C  
HETATM   34  C   UNL     1     -11.366  12.202  66.267  1.00  0.00    -0.411 C  
HETATM   35  C   UNL     1     -10.970  11.808  64.824  1.00  0.00    -0.360 C  
BRANCH  17  36
HETATM   36  C   UNL     1      -9.062  15.174  66.272  1.00  0.00    -0.313 C  
HETATM   37  C   UNL     1      -9.605  16.341  65.897  1.00  0.00    -0.336 C  
ENDBRANCH  17  36
ENDBRANCH  14  15
ENDBRANCH  12  14
ENDBRANCH  11  12
ENDBRANCH  10  11
ENDBRANCH   8  10
TORSDOF 6
ENDMDL
MODEL       47
REMARK 921   NORMALIZED FREE ENERGY PREDICTED BY IDOCK:   -5.05 KCAL/MOL
REMARK 922        TOTAL FREE ENERGY PREDICTED BY IDOCK:   -8.57 KCAL/MOL
REMARK 923 INTER-LIGAND FREE ENERGY PREDICTED BY IDOCK:   -7.87 KCAL/MOL
REMARK 924 INTRA-LIGAND FREE ENERGY PREDICTED BY IDOCK:   -0.71 KCAL/MOL
REMARK 927      BINDING AFFINITY PREDICTED BY RF-SCORE:    0.00 PKD
ROOT
HETATM    1  C   UNL     1      -9.794   5.060  69.569  1.00  0.00    -0.211 C  
HETATM    2  C   UNL     1      -9.598   4.201  68.302  1.00  0.00    -0.191 C  
HETATM    3  C   UNL     1     -10.058   5.108  67.160  1.00  0.00    -0.244 C  
HETATM    4  C   UNL     1     -10.500   6.412  67.856  1.00  0.00    -0.222 C  
HETATM    5  C   UNL     1      -9.366   7.481  68.012  1.00  0.00    -0.142 C  
HETATM    6  N   UNL     1     -10.945   5.845  69.134  1.00  0.00    -0.341 NA 
HETATM    7  C   UNL     1     -11.482   6.756  70.110  1.00  0.00    -0.349 C  
HETATM    8  C   UNL     1      -8.487   7.381  69.292  1.00  0.00    -0.136 C  
HETATM    9  C   UNL     1      -8.584   5.965  69.975  1.00  0.00    -0.130 C  
ENDROOT
BRANCH   8  10
HETATM   10  S   UNL     1      -7.999   9.098  70.458  1.00  0.00    -0.168 SA 
BRANCH  10  11
HETATM   11  C   UNL     1      -6.739  10.218  69.627  1.00  0.00    -0.085 C  
BRANCH  11  12
HETATM   12  C   UNL     1      -6.774  11.878  69.453  1.00  0.00    -0.081 C  
HETATM   13  O   UNL     1      -6.425  12.518  70.455  1.00  0.00     0.014 OA 
BRANCH  12  14
HETATM   14  O   UNL     1      -7.177  12.608  68.339  1.00  0.00    -0.097 OA 
BRANCH  14  15
HETATM   15  C   UNL     1      -8.712  12.706  67.839  1.00  0.00    -0.181 C  
HETATM   16  C   UNL     1      -8.676  11.434  66.843  1.00  0.00    -0.165 C  
HETATM   17  C   UNL     1      -9.965  10.854  66.203  1.00  0.00    -0.282 C  
HETATM   18  C   UNL     1     -12.715  14.068  66.457  1.00  0.00    -0.037 C  
HETATM   19  C   UNL     1      -9.896   9.432  65.592  1.00  0.00    -0.294 C  
HETATM   20  C   UNL     1     -10.216  11.778  64.971  1.00  0.00    -0.272 C  
HETATM   21  O   UNL     1      -9.794  11.300  63.696  1.00  0.00    -0.274 OA 
HETATM   22  C   UNL     1     -11.612  12.345  64.954  1.00  0.00    -0.392 C  
HETATM   23  C   UNL     1     -12.350  14.047  67.960  1.00  0.00    -0.011 C  
HETATM   24  C   UNL     1     -11.588  13.868  65.400  1.00  0.00    -0.331 C  
HETATM   25  C   UNL     1     -12.387  12.005  63.654  1.00  0.00    -0.648 C  
HETATM   26  H   UNL     1      -9.947  11.863  62.947  1.00  0.00     0.000 HD 
HETATM   27  C   UNL     1     -11.859  14.686  64.098  1.00  0.00    -0.263 C  
HETATM   28  C   UNL     1     -11.514  16.113  64.386  1.00  0.00    -0.197 C  
HETATM   29  C   UNL     1     -10.389  15.962  65.372  1.00  0.00    -0.372 C  
HETATM   30  C   UNL     1     -10.204  14.496  65.918  1.00  0.00    -0.339 C  
HETATM   31  O   UNL     1      -9.638  16.890  65.558  1.00  0.00    -0.519 OA 
HETATM   32  C   UNL     1      -9.655  14.247  67.451  1.00  0.00    -0.214 C  
HETATM   33  C   UNL     1      -8.898  15.582  67.844  1.00  0.00    -0.171 C  
HETATM   34  C   UNL     1     -10.925  14.413  68.427  1.00  0.00    -0.261 C  
HETATM   35  C   UNL     1     -10.565  14.046  69.887  1.00  0.00     0.378 C  
BRANCH  17  36
HETATM   36  C   UNL     1     -10.977  10.808  67.356  1.00  0.00    -0.361 C  
HETATM   37  C   UNL     1     -10.919  10.111  68.500  1.00  0.00    -0.278 C  
ENDBRANCH  17  36
ENDBRANCH  14  15
ENDBRANCH  12  14
ENDBRANCH  11  12
ENDBRANCH  10  11
ENDBRANCH   8  10
TORSDOF 6
ENDMDL
MODEL       48
REMARK 921   NORMALIZED FREE ENERGY PREDICTED BY IDOCK:   -5.05 KCAL/MOL
REMARK 922        TOTAL FREE ENERGY PREDICTED BY IDOCK:   -8.57 KCAL/MOL
REMARK 923 INTER-LIGAND FREE ENERGY PREDICTED BY IDOCK:   -6.75 KCAL/MOL
REMARK 924 INTRA-LIGAND FREE ENERGY PREDICTED BY IDOCK:   -1.82 KCAL/MOL
REMARK 927      BINDING AFFINITY PREDICTED BY RF-SCORE:    0.00 PKD
ROOT
HETATM    1  C   UNL     1      -9.787   4.626  68.625  1.00  0.00    -0.120 C  
HETATM    2  C   UNL     1     -10.487   5.138  69.901  1.00  0.00    -0.296 C  
HETATM    3  C   UNL     1      -9.371   5.194  70.944  1.00  0.00    -0.199 C  
HETATM    4  C   UNL     1      -8.117   4.695  70.197  1.00  0.00    -0.068 C  
HETATM    5  C   UNL     1      -7.283   5.823  69.502  1.00  0.00    -0.066 C  
HETATM    6  N   UNL     1      -8.769   3.785  69.248  1.00  0.00    -0.079 NA 
HETATM    7  C   UNL     1      -7.921   3.058  68.341  1.00  0.00    -0.057 C  
HETATM    8  C   UNL     1      -7.700   6.204  68.052  1.00  0.00    -0.102 C  
HETATM    9  C   UNL     1      -9.159   5.723  67.703  1.00  0.00    -0.106 C  
ENDROOT
BRANCH   8  10
HETATM   10  S   UNL     1      -6.261   6.463  66.501  1.00  0.00    -0.038 SA 
BRANCH  10  11
HETATM   11  C   UNL     1      -6.946   7.371  65.005  1.00  0.00    -0.051 C  
BRANCH  11  12
HETATM   12  C   UNL     1      -8.409   8.161  64.844  1.00  0.00    -0.123 C  
HETATM   13  O   UNL     1      -8.614   8.660  63.728  1.00  0.00    -0.123 OA 
BRANCH  12  14
HETATM   14  O   UNL     1      -9.387   8.346  65.816  1.00  0.00    -0.168 OA 
BRANCH  14  15
HETATM   15  C   UNL     1      -9.397   9.588  66.852  1.00  0.00    -0.146 C  
HETATM   16  C   UNL     1     -10.335   8.902  67.974  1.00  0.00    -0.271 C  
HETATM   17  C   UNL     1     -10.542   9.537  69.374  1.00  0.00    -0.235 C  
HETATM   18  C   UNL     1      -9.515  13.603  68.764  1.00  0.00     0.010 C  
HETATM   19  C   UNL     1     -11.120   8.643  70.499  1.00  0.00    -0.268 C  
HETATM   20  C   UNL     1     -11.653  10.605  69.136  1.00  0.00    -0.271 C  
HETATM   21  O   UNL     1     -12.988  10.253  69.491  1.00  0.00    -0.458 OA 
HETATM   22  C   UNL     1     -11.255  11.970  69.634  1.00  0.00    -0.168 C  
HETATM   23  C   UNL     1      -8.195  13.017  68.211  1.00  0.00    -0.150 C  
HETATM   24  C   UNL     1     -10.862  12.903  68.411  1.00  0.00    -0.276 C  
HETATM   25  C   UNL     1     -12.250  12.552  70.671  1.00  0.00    -0.365 C  
HETATM   26  H   UNL     1     -13.665  10.903  69.346  1.00  0.00     0.000 HD 
HETATM   27  C   UNL     1     -12.033  13.928  68.279  1.00  0.00    -0.392 C  
HETATM   28  C   UNL     1     -11.888  14.605  66.953  1.00  0.00    -0.345 C  
HETATM   29  C   UNL     1     -11.290  13.509  66.115  1.00  0.00    -0.308 C  
HETATM   30  C   UNL     1     -10.801  12.260  66.942  1.00  0.00    -0.290 C  
HETATM   31  O   UNL     1     -11.357  13.583  64.911  1.00  0.00    -0.315 OA 
HETATM   32  C   UNL     1      -9.505  11.384  66.428  1.00  0.00    -0.224 C  
HETATM   33  C   UNL     1      -9.383  11.688  64.878  1.00  0.00    -0.024 C  
HETATM   34  C   UNL     1      -8.192  12.176  66.916  1.00  0.00    -0.134 C  
HETATM   35  C   UNL     1      -6.904  11.367  66.627  1.00  0.00    -0.108 C  
BRANCH  17  36
HETATM   36  C   UNL     1      -9.134   9.968  69.811  1.00  0.00    -0.219 C  
HETATM   37  C   UNL     1      -8.186   9.245  70.424  1.00  0.00    -0.199 C  
ENDBRANCH  17  36
ENDBRANCH  14  15
ENDBRANCH  12  14
ENDBRANCH  11  12
ENDBRANCH  10  11
ENDBRANCH   8  10
TORSDOF 6
ENDMDL
MODEL       49
REMARK 921   NORMALIZED FREE ENERGY PREDICTED BY IDOCK:   -5.04 KCAL/MOL
REMARK 922        TOTAL FREE ENERGY PREDICTED BY IDOCK:   -8.56 KCAL/MOL
REMARK 923 INTER-LIGAND FREE ENERGY PREDICTED BY IDOCK:   -6.66 KCAL/MOL
REMARK 924 INTRA-LIGAND FREE ENERGY PREDICTED BY IDOCK:   -1.90 KCAL/MOL
REMARK 927      BINDING AFFINITY PREDICTED BY RF-SCORE:    0.00 PKD
ROOT
HETATM    1  C   UNL     1     -11.848  14.703  66.959  1.00  0.00    -0.337 C  
HETATM    2  C   UNL     1     -10.811  14.924  65.838  1.00  0.00    -0.336 C  
HETATM    3  C   UNL     1      -9.470  14.973  66.571  1.00  0.00    -0.306 C  
HETATM    4  C   UNL     1      -9.836  14.794  68.059  1.00  0.00    -0.218 C  
HETATM    5  C   UNL     1      -9.849  13.307  68.549  1.00  0.00    -0.169 C  
HETATM    6  N   UNL     1     -11.166  15.412  68.039  1.00  0.00    -0.315 NA 
HETATM    7  C   UNL     1     -11.882  15.483  69.286  1.00  0.00    -0.353 C  
HETATM    8  C   UNL     1     -11.186  12.529  68.377  1.00  0.00    -0.272 C  
HETATM    9  C   UNL     1     -12.144  13.213  67.331  1.00  0.00    -0.316 C  
ENDROOT
BRANCH   8  10
HETATM   10  S   UNL     1     -11.993  11.323  69.938  1.00  0.00    -0.378 SA 
BRANCH  10  11
HETATM   11  C   UNL     1     -10.835   9.944  70.478  1.00  0.00    -0.326 C  
BRANCH  11  12
HETATM   12  C   UNL     1     -10.789   8.358  69.958  1.00  0.00    -0.225 C  
HETATM   13  O   UNL     1     -10.874   7.509  70.857  1.00  0.00    -0.233 OA 
BRANCH  12  14
HETATM   14  O   UNL     1     -10.634   7.894  68.655  1.00  0.00    -0.190 OA 
BRANCH  14  15
HETATM   15  C   UNL     1      -9.304   8.140  67.769  1.00  0.00    -0.134 C  
HETATM   16  C   UNL     1      -9.909   9.303  66.824  1.00  0.00    -0.289 C  
HETATM   17  C   UNL     1      -9.014  10.138  65.871  1.00  0.00    -0.182 C  
HETATM   18  C   UNL     1      -5.579   7.705  65.375  1.00  0.00    -0.033 C  
HETATM   19  C   UNL     1      -9.588  11.461  65.308  1.00  0.00    -0.256 C  
HETATM   20  C   UNL     1      -8.864   9.229  64.612  1.00  0.00    -0.178 C  
HETATM   21  O   UNL     1      -9.704   9.512  63.495  1.00  0.00    -0.417 OA 
HETATM   22  C   UNL     1      -7.424   9.016  64.224  1.00  0.00    -0.106 C  
HETATM   23  C   UNL     1      -5.540   7.728  66.922  1.00  0.00    -0.032 C  
HETATM   24  C   UNL     1      -6.952   7.563  64.653  1.00  0.00    -0.052 C  
HETATM   25  C   UNL     1      -7.117   9.454  62.768  1.00  0.00    -0.101 C  
HETATM   26  H   UNL     1      -9.613   8.959  62.729  1.00  0.00     0.000 HD 
HETATM   27  C   UNL     1      -6.828   6.757  63.322  1.00  0.00    -0.047 C  
HETATM   28  C   UNL     1      -6.722   5.309  63.682  1.00  0.00    -0.041 C  
HETATM   29  C   UNL     1      -7.558   5.243  64.930  1.00  0.00    -0.083 C  
HETATM   30  C   UNL     1      -7.956   6.651  65.513  1.00  0.00    -0.118 C  
HETATM   31  O   UNL     1      -7.980   4.174  65.302  1.00  0.00    -0.095 OA 
HETATM   32  C   UNL     1      -8.138   6.852  67.138  1.00  0.00    -0.117 C  
HETATM   33  C   UNL     1      -8.412   5.400  67.709  1.00  0.00    -0.105 C  
HETATM   34  C   UNL     1      -6.662   7.057  67.745  1.00  0.00    -0.071 C  
HETATM   35  C   UNL     1      -6.715   7.413  69.250  1.00  0.00    -0.041 C  
BRANCH  17  36
HETATM   36  C   UNL     1      -7.784  10.497  66.717  1.00  0.00    -0.118 C  
HETATM   37  C   UNL     1      -6.976  11.562  66.617  1.00  0.00    -0.069 C  
ENDBRANCH  17  36
ENDBRANCH  14  15
ENDBRANCH  12  14
ENDBRANCH  11  12
ENDBRANCH  10  11
ENDBRANCH   8  10
TORSDOF 6
ENDMDL
MODEL       50
REMARK 921   NORMALIZED FREE ENERGY PREDICTED BY IDOCK:   -5.04 KCAL/MOL
REMARK 922        TOTAL FREE ENERGY PREDICTED BY IDOCK:   -8.56 KCAL/MOL
REMARK 923 INTER-LIGAND FREE ENERGY PREDICTED BY IDOCK:   -7.83 KCAL/MOL
REMARK 924 INTRA-LIGAND FREE ENERGY PREDICTED BY IDOCK:   -0.73 KCAL/MOL
REMARK 927      BINDING AFFINITY PREDICTED BY RF-SCORE:    0.00 PKD
ROOT
HETATM    1  C   UNL     1     -11.320   8.315  72.462  1.00  0.00    -0.385 C  
HETATM    2  C   UNL     1     -10.369   7.505  73.368  1.00  0.00    -0.405 C  
HETATM    3  C   UNL     1     -10.340   6.114  72.733  1.00  0.00    -0.220 C  
HETATM    4  C   UNL     1     -11.289   6.223  71.521  1.00  0.00    -0.296 C  
HETATM    5  C   UNL     1     -10.592   6.653  70.187  1.00  0.00    -0.264 C  
HETATM    6  N   UNL     1     -12.212   7.235  72.048  1.00  0.00    -0.295 NA 
HETATM    7  C   UNL     1     -13.315   7.624  71.211  1.00  0.00    -0.219 C  
HETATM    8  C   UNL     1     -10.474   8.183  69.925  1.00  0.00    -0.226 C  
HETATM    9  C   UNL     1     -10.657   9.030  71.240  1.00  0.00    -0.378 C  
ENDROOT
BRANCH   8  10
HETATM   10  S   UNL     1     -10.944   9.037  68.029  1.00  0.00     0.202 SA 
BRANCH  10  11
HETATM   11  C   UNL     1     -10.079  10.679  67.727  1.00  0.00    -0.174 C  
BRANCH  11  12
HETATM   12  C   UNL     1      -8.563  10.956  67.083  1.00  0.00    -0.130 C  
HETATM   13  O   UNL     1      -7.806   9.975  67.085  1.00  0.00    -0.098 OA 
BRANCH  12  14
HETATM   14  O   UNL     1      -8.055  12.152  66.588  1.00  0.00    -0.108 OA 
BRANCH  14  15
HETATM   15  C   UNL     1      -8.551  13.610  67.083  1.00  0.00    -0.192 C  
HETATM   16  C   UNL     1      -9.859  13.704  66.140  1.00  0.00    -0.304 C  
HETATM   17  C   UNL     1     -10.922  14.820  66.316  1.00  0.00    -0.330 C  
HETATM   18  C   UNL     1      -8.823  17.847  68.412  1.00  0.00    -0.293 C  
HETATM   19  C   UNL     1     -12.307  14.617  65.652  1.00  0.00    -0.151 C  
HETATM   20  C   UNL     1     -10.315  16.036  65.550  1.00  0.00    -0.390 C  
HETATM   21  O   UNL     1     -10.792  16.283  64.229  1.00  0.00    -1.005 OA 
HETATM   22  C   UNL     1     -10.260  17.280  66.397  1.00  0.00    -0.333 C  
HETATM   23  C   UNL     1      -8.514  16.711  69.415  1.00  0.00     0.141 C  
HETATM   24  C   UNL     1      -8.773  17.545  66.884  1.00  0.00    -0.269 C  
HETATM   25  C   UNL     1     -11.016  18.477  65.764  1.00  0.00     0.145 C  
HETATM   26  H   UNL     1     -10.422  17.023  63.763  1.00  0.00     0.000 HD 
HETATM   27  C   UNL     1      -8.281  18.778  66.062  1.00  0.00    -0.113 C  
HETATM   28  C   UNL     1      -6.796  18.861  66.225  1.00  0.00    -0.248 C  
HETATM   29  C   UNL     1      -6.422  17.411  66.356  1.00  0.00    -0.248 C  
HETATM   30  C   UNL     1      -7.651  16.445  66.558  1.00  0.00    -0.258 C  
HETATM   31  O   UNL     1      -5.279  17.075  66.157  1.00  0.00    -0.360 OA 
HETATM   32  C   UNL     1      -7.487  15.074  67.457  1.00  0.00    -0.226 C  
HETATM   33  C   UNL     1      -5.935  14.759  67.458  1.00  0.00     0.051 C  
HETATM   34  C   UNL     1      -7.628  15.516  68.998  1.00  0.00    -0.180 C  
HETATM   35  C   UNL     1      -7.648  14.287  69.938  1.00  0.00     0.430 C  
BRANCH  17  36
HETATM   36  C   UNL     1     -11.149  14.896  67.833  1.00  0.00    -0.304 C  
HETATM   37  C   UNL     1     -11.844  14.064  68.622  1.00  0.00    -0.396 C  
ENDBRANCH  17  36
ENDBRANCH  14  15
ENDBRANCH  12  14
ENDBRANCH  11  12
ENDBRANCH  10  11
ENDBRANCH   8  10
TORSDOF 6
ENDMDL
MODEL       51
REMARK 921   NORMALIZED FREE ENERGY PREDICTED BY IDOCK:   -5.03 KCAL/MOL
REMARK 922        TOTAL FREE ENERGY PREDICTED BY IDOCK:   -8.55 KCAL/MOL
REMARK 923 INTER-LIGAND FREE ENERGY PREDICTED BY IDOCK:   -7.57 KCAL/MOL
REMARK 924 INTRA-LIGAND FREE ENERGY PREDICTED BY IDOCK:   -0.98 KCAL/MOL
REMARK 927      BINDING AFFINITY PREDICTED BY RF-SCORE:    0.00 PKD
ROOT
HETATM    1  C   UNL     1     -12.541  13.640  65.281  1.00  0.00    -0.469 C  
HETATM    2  C   UNL     1     -12.355  14.758  64.235  1.00  0.00    -0.345 C  
HETATM    3  C   UNL     1     -11.132  15.533  64.728  1.00  0.00    -0.421 C  
HETATM    4  C   UNL     1     -10.718  14.814  66.029  1.00  0.00    -0.312 C  
HETATM    5  C   UNL     1      -9.683  13.656  65.830  1.00  0.00    -0.162 C  
HETATM    6  N   UNL     1     -12.040  14.345  66.458  1.00  0.00    -0.406 NA 
HETATM    7  C   UNL     1     -12.115  13.620  67.698  1.00  0.00    -0.293 C  
HETATM    8  C   UNL     1     -10.267  12.247  65.523  1.00  0.00    -0.269 C  
HETATM    9  C   UNL     1     -11.755  12.314  65.013  1.00  0.00    -0.405 C  
ENDROOT
BRANCH   8  10
HETATM   10  S   UNL     1      -9.553  10.496  66.508  1.00  0.00    -0.181 SA 
BRANCH  10  11
HETATM   11  C   UNL     1      -7.889  10.749  67.345  1.00  0.00    -0.111 C  
BRANCH  11  12
HETATM   12  C   UNL     1      -7.486  10.533  68.951  1.00  0.00    -0.104 C  
HETATM   13  O   UNL     1      -6.308  10.792  69.235  1.00  0.00    -0.050 OA 
BRANCH  12  14
HETATM   14  O   UNL     1      -8.303  10.070  69.978  1.00  0.00    -0.188 OA 
BRANCH  14  15
HETATM   15  C   UNL     1      -8.491   8.504  70.337  1.00  0.00    -0.137 C  
HETATM   16  C   UNL     1     -10.046   8.587  70.767  1.00  0.00    -0.237 C  
HETATM   17  C   UNL     1     -10.899   7.315  71.017  1.00  0.00    -0.258 C  
HETATM   18  C   UNL     1      -7.994   4.322  71.768  1.00  0.00    -0.087 C  
HETATM   19  C   UNL     1     -12.440   7.466  71.038  1.00  0.00    -0.285 C  
HETATM   20  C   UNL     1     -10.542   6.910  72.481  1.00  0.00    -0.222 C  
HETATM   21  O   UNL     1     -11.455   7.291  73.507  1.00  0.00    -0.542 OA 
HETATM   22  C   UNL     1     -10.104   5.473  72.589  1.00  0.00    -0.211 C  
HETATM   23  C   UNL     1      -7.409   4.780  70.412  1.00  0.00    -0.050 C  
HETATM   24  C   UNL     1      -8.529   5.394  72.765  1.00  0.00    -0.116 C  
HETATM   25  C   UNL     1     -10.964   4.650  73.583  1.00  0.00    -0.392 C  
HETATM   26  H   UNL     1     -11.237   7.045  74.398  1.00  0.00     0.000 HD 
HETATM   27  C   UNL     1      -8.298   4.974  74.251  1.00  0.00    -0.105 C  
HETATM   28  C   UNL     1      -6.855   5.213  74.565  1.00  0.00    -0.077 C  
HETATM   29  C   UNL     1      -6.549   6.407  73.703  1.00  0.00    -0.070 C  
HETATM   30  C   UNL     1      -7.674   6.749  72.654  1.00  0.00    -0.099 C  
HETATM   31  O   UNL     1      -5.582   7.086  73.955  1.00  0.00    -0.050 OA 
HETATM   32  C   UNL     1      -7.277   7.411  71.200  1.00  0.00    -0.071 C  
HETATM   33  C   UNL     1      -5.855   8.074  71.419  1.00  0.00    -0.034 C  
HETATM   34  C   UNL     1      -6.813   6.195  70.252  1.00  0.00    -0.054 C  
HETATM   35  C   UNL     1      -6.562   6.674  68.802  1.00  0.00    -0.051 C  
BRANCH  17  36
HETATM   36  C   UNL     1     -10.548   6.383  69.848  1.00  0.00    -0.298 C  
HETATM   37  C   UNL     1     -11.110   6.309  68.633  1.00  0.00    -0.409 C  
ENDBRANCH  17  36
ENDBRANCH  14  15
ENDBRANCH  12  14
ENDBRANCH  11  12
ENDBRANCH  10  11
ENDBRANCH   8  10
TORSDOF 6
ENDMDL
MODEL       52
REMARK 921   NORMALIZED FREE ENERGY PREDICTED BY IDOCK:   -5.02 KCAL/MOL
REMARK 922        TOTAL FREE ENERGY PREDICTED BY IDOCK:   -8.53 KCAL/MOL
REMARK 923 INTER-LIGAND FREE ENERGY PREDICTED BY IDOCK:   -7.58 KCAL/MOL
REMARK 924 INTRA-LIGAND FREE ENERGY PREDICTED BY IDOCK:   -0.95 KCAL/MOL
REMARK 927      BINDING AFFINITY PREDICTED BY RF-SCORE:    0.00 PKD
ROOT
HETATM    1  C   UNL     1      -9.553  17.897  66.448  1.00  0.00    -0.286 C  
HETATM    2  C   UNL     1      -8.675  19.164  66.384  1.00  0.00    -0.336 C  
HETATM    3  C   UNL     1      -8.164  19.340  67.814  1.00  0.00    -0.322 C  
HETATM    4  C   UNL     1      -8.800  18.172  68.598  1.00  0.00    -0.262 C  
HETATM    5  C   UNL     1      -7.933  16.869  68.636  1.00  0.00    -0.256 C  
HETATM    6  N   UNL     1     -10.035  18.026  67.821  1.00  0.00    -0.311 NA 
HETATM    7  C   UNL     1     -10.971  17.021  68.249  1.00  0.00    -0.269 C  
HETATM    8  C   UNL     1      -8.128  15.868  67.460  1.00  0.00    -0.151 C  
HETATM    9  C   UNL     1      -8.813  16.540  66.211  1.00  0.00    -0.364 C  
ENDROOT
BRANCH   8  10
HETATM   10  S   UNL     1      -8.331  13.772  67.791  1.00  0.00    -0.196 SA 
BRANCH  10  11
HETATM   11  C   UNL     1      -6.835  12.788  67.218  1.00  0.00    -0.080 C  
BRANCH  11  12
HETATM   12  C   UNL     1      -6.380  11.239  67.643  1.00  0.00    -0.059 C  
HETATM   13  O   UNL     1      -5.514  10.729  66.917  1.00  0.00    -0.043 OA 
BRANCH  12  14
HETATM   14  O   UNL     1      -6.881  10.460  68.682  1.00  0.00    -0.056 OA 
BRANCH  14  15
HETATM   15  C   UNL     1      -8.172   9.496  68.537  1.00  0.00    -0.113 C  
HETATM   16  C   UNL     1      -9.095  10.236  69.637  1.00  0.00    -0.149 C  
HETATM   17  C   UNL     1     -10.599   9.899  69.809  1.00  0.00    -0.296 C  
HETATM   18  C   UNL     1     -10.944   6.048  68.075  1.00  0.00    -0.340 C  
HETATM   19  C   UNL     1     -11.484  10.902  70.591  1.00  0.00    -0.227 C  
HETATM   20  C   UNL     1     -10.594   8.625  70.709  1.00  0.00    -0.210 C  
HETATM   21  O   UNL     1     -10.841   8.804  72.101  1.00  0.00    -0.354 OA 
HETATM   22  C   UNL     1     -11.394   7.496  70.111  1.00  0.00    -0.170 C  
HETATM   23  C   UNL     1     -10.291   6.722  66.845  1.00  0.00    -0.324 C  
HETATM   24  C   UNL     1     -10.422   6.401  69.500  1.00  0.00    -0.279 C  
HETATM   25  C   UNL     1     -12.522   6.991  71.049  1.00  0.00    -0.373 C  
HETATM   26  H   UNL     1     -10.837   8.028  72.649  1.00  0.00     0.000 HD 
HETATM   27  C   UNL     1     -10.508   5.182  70.471  1.00  0.00    -0.278 C  
HETATM   28  C   UNL     1      -9.373   4.265  70.141  1.00  0.00    -0.228 C  
HETATM   29  C   UNL     1      -8.317   5.237  69.693  1.00  0.00    -0.098 C  
HETATM   30  C   UNL     1      -8.845   6.704  69.469  1.00  0.00    -0.139 C  
HETATM   31  O   UNL     1      -7.160   4.888  69.681  1.00  0.00    -0.052 OA 
HETATM   32  C   UNL     1      -8.165   7.662  68.315  1.00  0.00    -0.125 C  
HETATM   33  C   UNL     1      -6.727   7.049  68.059  1.00  0.00    -0.065 C  
HETATM   34  C   UNL     1      -8.839   7.243  66.915  1.00  0.00    -0.138 C  
HETATM   35  C   UNL     1      -8.393   8.184  65.770  1.00  0.00    -0.140 C  
BRANCH  17  36
HETATM   36  C   UNL     1     -11.143   9.833  68.375  1.00  0.00    -0.142 C  
HETATM   37  C   UNL     1     -11.256  10.817  67.472  1.00  0.00    -0.346 C  
ENDBRANCH  17  36
ENDBRANCH  14  15
ENDBRANCH  12  14
ENDBRANCH  11  12
ENDBRANCH  10  11
ENDBRANCH   8  10
TORSDOF 6
ENDMDL
MODEL       53
REMARK 921   NORMALIZED FREE ENERGY PREDICTED BY IDOCK:   -4.99 KCAL/MOL
REMARK 922        TOTAL FREE ENERGY PREDICTED BY IDOCK:   -8.50 KCAL/MOL
REMARK 923 INTER-LIGAND FREE ENERGY PREDICTED BY IDOCK:   -7.13 KCAL/MOL
REMARK 924 INTRA-LIGAND FREE ENERGY PREDICTED BY IDOCK:   -1.37 KCAL/MOL
REMARK 927      BINDING AFFINITY PREDICTED BY RF-SCORE:    0.00 PKD
ROOT
HETATM    1  C   UNL     1     -10.736   6.657  67.426  1.00  0.00    -0.339 C  
HETATM    2  C   UNL     1     -10.781   6.580  68.966  1.00  0.00    -0.324 C  
HETATM    3  C   UNL     1      -9.311   6.528  69.382  1.00  0.00    -0.143 C  
HETATM    4  C   UNL     1      -8.531   6.560  68.051  1.00  0.00    -0.119 C  
HETATM    5  C   UNL     1      -8.156   7.996  67.554  1.00  0.00    -0.123 C  
HETATM    6  N   UNL     1      -9.516   5.888  67.197  1.00  0.00    -0.115 NA 
HETATM    7  C   UNL     1      -9.162   5.677  65.819  1.00  0.00    -0.096 C  
HETATM    8  C   UNL     1      -9.211   8.726  66.674  1.00  0.00    -0.177 C  
HETATM    9  C   UNL     1     -10.647   8.094  66.815  1.00  0.00    -0.223 C  
ENDROOT
BRANCH   8  10
HETATM   10  S   UNL     1      -8.667   9.754  64.887  1.00  0.00    -0.200 SA 
BRANCH  10  11
HETATM   11  C   UNL     1     -10.149  10.411  63.936  1.00  0.00    -0.102 C  
BRANCH  11  12
HETATM   12  C   UNL     1     -11.195  11.644  64.356  1.00  0.00    -0.291 C  
HETATM   13  O   UNL     1     -11.432  12.460  63.454  1.00  0.00    -0.457 OA 
BRANCH  12  14
HETATM   14  O   UNL     1     -11.791  11.870  65.593  1.00  0.00    -0.398 OA 
BRANCH  14  15
HETATM   15  C   UNL     1     -11.032  12.567  66.839  1.00  0.00    -0.257 C  
HETATM   16  C   UNL     1     -12.123  12.192  67.970  1.00  0.00    -0.043 C  
HETATM   17  C   UNL     1     -11.847  12.405  69.482  1.00  0.00    -0.368 C  
HETATM   18  C   UNL     1      -8.736  15.282  69.513  1.00  0.00    -0.178 C  
HETATM   19  C   UNL     1     -12.760  11.673  70.497  1.00  0.00    -0.157 C  
HETATM   20  C   UNL     1     -12.170  13.914  69.709  1.00  0.00    -0.332 C  
HETATM   21  O   UNL     1     -13.444  14.237  70.260  1.00  0.00    -0.278 OA 
HETATM   22  C   UNL     1     -11.038  14.649  70.379  1.00  0.00    -0.106 C  
HETATM   23  C   UNL     1      -8.017  14.276  68.584  1.00  0.00    -0.139 C  
HETATM   24  C   UNL     1     -10.261  15.538  69.319  1.00  0.00    -0.252 C  
HETATM   25  C   UNL     1     -11.463  15.341  71.700  1.00  0.00    -0.471 C  
HETATM   26  H   UNL     1     -13.640  15.156  70.397  1.00  0.00     0.000 HD 
HETATM   27  C   UNL     1     -10.650  17.013  69.650  1.00  0.00    -0.087 C  
HETATM   28  C   UNL     1     -10.229  17.860  68.491  1.00  0.00    -0.393 C  
HETATM   29  C   UNL     1     -10.410  16.911  67.339  1.00  0.00    -0.309 C  
HETATM   30  C   UNL     1     -10.665  15.417  67.770  1.00  0.00    -0.289 C  
HETATM   31  O   UNL     1     -10.496  17.352  66.218  1.00  0.00    -0.336 OA 
HETATM   32  C   UNL     1     -10.128  14.179  66.824  1.00  0.00    -0.262 C  
HETATM   33  C   UNL     1      -9.951  14.805  65.380  1.00  0.00    -0.369 C  
HETATM   34  C   UNL     1      -8.571  13.976  67.174  1.00  0.00    -0.220 C  
HETATM   35  C   UNL     1      -7.990  12.732  66.459  1.00  0.00     0.482 C  
BRANCH  17  36
HETATM   36  C   UNL     1     -10.420  11.878  69.688  1.00  0.00     0.478 C  
HETATM   37  C   UNL     1      -9.956  10.627  69.548  1.00  0.00    -0.138 C  
ENDBRANCH  17  36
ENDBRANCH  14  15
ENDBRANCH  12  14
ENDBRANCH  11  12
ENDBRANCH  10  11
ENDBRANCH   8  10
TORSDOF 6
ENDMDL
MODEL       54
REMARK 921   NORMALIZED FREE ENERGY PREDICTED BY IDOCK:   -4.99 KCAL/MOL
REMARK 922        TOTAL FREE ENERGY PREDICTED BY IDOCK:   -8.50 KCAL/MOL
REMARK 923 INTER-LIGAND FREE ENERGY PREDICTED BY IDOCK:   -7.88 KCAL/MOL
REMARK 924 INTRA-LIGAND FREE ENERGY PREDICTED BY IDOCK:   -0.61 KCAL/MOL
REMARK 927      BINDING AFFINITY PREDICTED BY RF-SCORE:    0.00 PKD
ROOT
HETATM    1  C   UNL     1      -8.303   5.759  73.081  1.00  0.00    -0.117 C  
HETATM    2  C   UNL     1      -8.057   4.467  73.888  1.00  0.00    -0.096 C  
HETATM    3  C   UNL     1      -9.399   4.185  74.564  1.00  0.00    -0.125 C  
HETATM    4  C   UNL     1     -10.311   5.345  74.111  1.00  0.00    -0.280 C  
HETATM    5  C   UNL     1     -11.114   5.063  72.797  1.00  0.00    -0.310 C  
HETATM    6  N   UNL     1      -9.290   6.386  73.956  1.00  0.00    -0.150 NA 
HETATM    7  C   UNL     1      -9.735   7.695  73.555  1.00  0.00    -0.299 C  
HETATM    8  C   UNL     1     -10.405   5.418  71.458  1.00  0.00    -0.225 C  
HETATM    9  C   UNL     1      -8.846   5.564  71.628  1.00  0.00    -0.141 C  
ENDROOT
BRANCH   8  10
HETATM   10  S   UNL     1     -11.412   6.460  69.895  1.00  0.00    -0.329 SA 
BRANCH  10  11
HETATM   11  C   UNL     1     -10.608   8.104  69.468  1.00  0.00    -0.213 C  
BRANCH  11  12
HETATM   12  C   UNL     1     -11.055   9.640  69.949  1.00  0.00    -0.235 C  
HETATM   13  O   UNL     1     -10.940   9.864  71.162  1.00  0.00    -0.333 OA 
BRANCH  12  14
HETATM   14  O   UNL     1     -11.567  10.663  69.157  1.00  0.00    -0.274 OA 
BRANCH  14  15
HETATM   15  C   UNL     1     -10.644  11.705  68.332  1.00  0.00    -0.211 C  
HETATM   16  C   UNL     1      -9.220  11.025  68.680  1.00  0.00    -0.186 C  
HETATM   17  C   UNL     1      -7.909  11.454  67.970  1.00  0.00    -0.121 C  
HETATM   18  C   UNL     1      -8.819  15.317  66.485  1.00  0.00    -0.335 C  
HETATM   19  C   UNL     1      -6.686  10.509  68.070  1.00  0.00    -0.065 C  
HETATM   20  C   UNL     1      -7.463  12.727  68.754  1.00  0.00    -0.048 C  
HETATM   21  O   UNL     1      -6.453  12.565  69.748  1.00  0.00    -0.272 OA 
HETATM   22  C   UNL     1      -7.209  13.902  67.845  1.00  0.00    -0.162 C  
HETATM   23  C   UNL     1     -10.024  14.602  65.828  1.00  0.00    -0.365 C  
HETATM   24  C   UNL     1      -8.411  14.934  67.939  1.00  0.00    -0.149 C  
HETATM   25  C   UNL     1      -5.775  14.477  67.985  1.00  0.00    -0.140 C  
HETATM   26  H   UNL     1      -6.182  13.340  70.225  1.00  0.00     0.000 HD 
HETATM   27  C   UNL     1      -7.845  16.158  68.727  1.00  0.00    -0.203 C  
HETATM   28  C   UNL     1      -9.009  17.002  69.138  1.00  0.00    -0.050 C  
HETATM   29  C   UNL     1     -10.080  15.967  69.343  1.00  0.00    -0.267 C  
HETATM   30  C   UNL     1      -9.701  14.534  68.806  1.00  0.00    -0.210 C  
HETATM   31  O   UNL     1     -11.051  16.243  70.007  1.00  0.00    -0.341 OA 
HETATM   32  C   UNL     1     -10.871  13.535  68.217  1.00  0.00    -0.277 C  
HETATM   33  C   UNL     1     -12.224  14.058  68.853  1.00  0.00    -0.261 C  
HETATM   34  C   UNL     1     -11.144  13.993  66.699  1.00  0.00    -0.312 C  
HETATM   35  C   UNL     1     -12.118  13.025  65.984  1.00  0.00    -0.493 C  
BRANCH  17  36
HETATM   36  C   UNL     1      -8.291  11.552  66.487  1.00  0.00    -0.147 C  
HETATM   37  C   UNL     1      -8.202  10.615  65.532  1.00  0.00    -0.141 C  
ENDBRANCH  17  36
ENDBRANCH  14  15
ENDBRANCH  12  14
ENDBRANCH  11  12
ENDBRANCH  10  11
ENDBRANCH   8  10
TORSDOF 6
ENDMDL
MODEL       55
REMARK 921   NORMALIZED FREE ENERGY PREDICTED BY IDOCK:   -4.98 KCAL/MOL
REMARK 922        TOTAL FREE ENERGY PREDICTED BY IDOCK:   -8.48 KCAL/MOL
REMARK 923 INTER-LIGAND FREE ENERGY PREDICTED BY IDOCK:   -7.21 KCAL/MOL
REMARK 924 INTRA-LIGAND FREE ENERGY PREDICTED BY IDOCK:   -1.27 KCAL/MOL
REMARK 927      BINDING AFFINITY PREDICTED BY RF-SCORE:    0.00 PKD
ROOT
HETATM    1  C   UNL     1     -12.436   8.608  71.261  1.00  0.00    -0.252 C  
HETATM    2  C   UNL     1     -13.864   8.503  71.836  1.00  0.00    -0.473 C  
HETATM    3  C   UNL     1     -14.052   7.009  72.103  1.00  0.00    -0.149 C  
HETATM    4  C   UNL     1     -12.727   6.364  71.645  1.00  0.00     0.047 C  
HETATM    5  C   UNL     1     -11.641   6.248  72.767  1.00  0.00    -0.141 C  
HETATM    6  N   UNL     1     -12.370   7.314  70.586  1.00  0.00    -0.172 NA 
HETATM    7  C   UNL     1     -11.161   7.058  69.849  1.00  0.00    -0.264 C  
HETATM    8  C   UNL     1     -10.700   7.473  72.955  1.00  0.00    -0.358 C  
HETATM    9  C   UNL     1     -11.289   8.783  72.309  1.00  0.00    -0.356 C  
ENDROOT
BRANCH   8  10
HETATM   10  S   UNL     1      -8.593   7.246  73.181  1.00  0.00    -0.142 SA 
BRANCH  10  11
HETATM   11  C   UNL     1      -7.635   7.671  71.620  1.00  0.00    -0.085 C  
BRANCH  11  12
HETATM   12  C   UNL     1      -8.107   8.625  70.334  1.00  0.00    -0.107 C  
HETATM   13  O   UNL     1      -7.846   8.161  69.214  1.00  0.00    -0.105 OA 
BRANCH  12  14
HETATM   14  O   UNL     1      -8.719   9.874  70.380  1.00  0.00    -0.138 OA 
BRANCH  14  15
HETATM   15  C   UNL     1      -8.813  10.873  69.111  1.00  0.00    -0.037 C  
HETATM   16  C   UNL     1      -7.374  11.580  69.310  1.00  0.00    -0.009 C  
HETATM   17  C   UNL     1      -6.762  12.516  68.234  1.00  0.00    -0.079 C  
HETATM   18  C   UNL     1     -10.129  13.728  65.963  1.00  0.00    -0.320 C  
HETATM   19  C   UNL     1      -5.248  12.831  68.321  1.00  0.00    -0.069 C  
HETATM   20  C   UNL     1      -7.447  13.892  68.508  1.00  0.00    -0.122 C  
HETATM   21  O   UNL     1      -6.707  14.855  69.256  1.00  0.00    -0.119 OA 
HETATM   22  C   UNL     1      -8.085  14.472  67.273  1.00  0.00    -0.219 C  
HETATM   23  C   UNL     1     -10.375  12.207  65.820  1.00  0.00    -0.289 C  
HETATM   24  C   UNL     1      -9.660  14.294  67.337  1.00  0.00    -0.214 C  
HETATM   25  C   UNL     1      -7.550  15.885  66.922  1.00  0.00    -0.255 C  
HETATM   26  H   UNL     1      -7.124  15.691  69.423  1.00  0.00     0.000 HD 
HETATM   27  C   UNL     1     -10.228  15.724  67.602  1.00  0.00    -0.266 C  
HETATM   28  C   UNL     1     -11.660  15.570  68.008  1.00  0.00    -0.276 C  
HETATM   29  C   UNL     1     -11.632  14.251  68.729  1.00  0.00    -0.322 C  
HETATM   30  C   UNL     1     -10.289  13.446  68.547  1.00  0.00    -0.240 C  
HETATM   31  O   UNL     1     -12.530  13.973  69.487  1.00  0.00    -0.299 OA 
HETATM   32  C   UNL     1     -10.306  11.799  68.539  1.00  0.00    -0.228 C  
HETATM   33  C   UNL     1     -11.642  11.393  69.286  1.00  0.00    -0.384 C  
HETATM   34  C   UNL     1     -10.735  11.351  67.054  1.00  0.00    -0.304 C  
HETATM   35  C   UNL     1     -10.634   9.817  66.876  1.00  0.00    -0.243 C  
BRANCH  17  36
HETATM   36  C   UNL     1      -7.001  11.783  66.907  1.00  0.00    -0.101 C  
HETATM   37  C   UNL     1      -6.301  10.777  66.364  1.00  0.00    -0.122 C  
ENDBRANCH  17  36
ENDBRANCH  14  15
ENDBRANCH  12  14
ENDBRANCH  11  12
ENDBRANCH  10  11
ENDBRANCH   8  10
TORSDOF 6
ENDMDL
MODEL       56
REMARK 921   NORMALIZED FREE ENERGY PREDICTED BY IDOCK:   -4.96 KCAL/MOL
REMARK 922        TOTAL FREE ENERGY PREDICTED BY IDOCK:   -8.45 KCAL/MOL
REMARK 923 INTER-LIGAND FREE ENERGY PREDICTED BY IDOCK:   -7.73 KCAL/MOL
REMARK 924 INTRA-LIGAND FREE ENERGY PREDICTED BY IDOCK:   -0.72 KCAL/MOL
REMARK 927      BINDING AFFINITY PREDICTED BY RF-SCORE:    0.00 PKD
ROOT
HETATM    1  C   UNL     1      -6.953  20.230  67.371  1.00  0.00    -0.269 C  
HETATM    2  C   UNL     1      -5.950  21.309  67.829  1.00  0.00    -0.413 C  
HETATM    3  C   UNL     1      -5.583  20.899  69.256  1.00  0.00    -0.391 C  
HETATM    4  C   UNL     1      -6.415  19.626  69.518  1.00  0.00    -0.339 C  
HETATM    5  C   UNL     1      -5.694  18.290  69.138  1.00  0.00    -0.215 C  
HETATM    6  N   UNL     1      -7.567  19.930  68.662  1.00  0.00    -0.264 NA 
HETATM    7  C   UNL     1      -8.641  18.973  68.634  1.00  0.00    -0.354 C  
HETATM    8  C   UNL     1      -5.860  17.803  67.669  1.00  0.00    -0.141 C  
HETATM    9  C   UNL     1      -6.332  18.958  66.707  1.00  0.00    -0.200 C  
ENDROOT
BRANCH   8  10
HETATM   10  S   UNL     1      -6.308  15.772  67.202  1.00  0.00     0.177 SA 
BRANCH  10  11
HETATM   11  C   UNL     1      -6.046  14.608  68.654  1.00  0.00    -0.087 C  
BRANCH  11  12
HETATM   12  C   UNL     1      -6.421  12.985  68.770  1.00  0.00    -0.085 C  
HETATM   13  O   UNL     1      -5.527  12.212  68.398  1.00  0.00    -0.052 OA 
BRANCH  12  14
HETATM   14  O   UNL     1      -7.618  12.416  69.198  1.00  0.00     0.049 OA 
BRANCH  14  15
HETATM   15  C   UNL     1      -9.012  12.548  68.388  1.00  0.00    -0.130 C  
HETATM   16  C   UNL     1      -8.730  11.371  67.318  1.00  0.00    -0.148 C  
HETATM   17  C   UNL     1      -9.836  10.842  66.367  1.00  0.00    -0.254 C  
HETATM   18  C   UNL     1     -12.659  14.001  66.297  1.00  0.00    -0.352 C  
HETATM   19  C   UNL     1      -9.601   9.481  65.665  1.00  0.00    -0.346 C  
HETATM   20  C   UNL     1      -9.840  11.871  65.194  1.00  0.00    -0.218 C  
HETATM   21  O   UNL     1      -9.143  11.513  64.004  1.00  0.00    -0.415 OA 
HETATM   22  C   UNL     1     -11.214  12.428  64.924  1.00  0.00    -0.353 C  
HETATM   23  C   UNL     1     -12.625  13.848  67.836  1.00  0.00     0.524 C  
HETATM   24  C   UNL     1     -11.327  13.904  65.495  1.00  0.00    -0.310 C  
HETATM   25  C   UNL     1     -11.683  12.201  63.464  1.00  0.00    -0.579 C  
HETATM   26  H   UNL     1      -9.145  12.140  63.291  1.00  0.00     0.000 HD 
HETATM   27  C   UNL     1     -11.333  14.834  64.241  1.00  0.00    -0.097 C  
HETATM   28  C   UNL     1     -11.095  16.232  64.718  1.00  0.00    -0.293 C  
HETATM   29  C   UNL     1     -10.204  16.001  65.907  1.00  0.00    -0.365 C  
HETATM   30  C   UNL     1     -10.103  14.493  66.352  1.00  0.00    -0.293 C  
HETATM   31  O   UNL     1      -9.536  16.914  66.330  1.00  0.00    -0.258 OA 
HETATM   32  C   UNL     1      -9.890  14.111  67.940  1.00  0.00    -0.224 C  
HETATM   33  C   UNL     1      -9.270  15.410  68.601  1.00  0.00    -0.199 C  
HETATM   34  C   UNL     1     -11.342  14.180  68.629  1.00  0.00    -0.306 C  
HETATM   35  C   UNL     1     -11.295  13.687  70.095  1.00  0.00     0.006 C  
BRANCH  17  36
HETATM   36  C   UNL     1     -11.071  10.685  67.265  1.00  0.00    -0.313 C  
HETATM   37  C   UNL     1     -11.168  10.097  68.466  1.00  0.00    -0.226 C  
ENDBRANCH  17  36
ENDBRANCH  14  15
ENDBRANCH  12  14
ENDBRANCH  11  12
ENDBRANCH  10  11
ENDBRANCH   8  10
TORSDOF 6
ENDMDL
MODEL       57
REMARK 921   NORMALIZED FREE ENERGY PREDICTED BY IDOCK:   -4.91 KCAL/MOL
REMARK 922        TOTAL FREE ENERGY PREDICTED BY IDOCK:   -8.38 KCAL/MOL
REMARK 923 INTER-LIGAND FREE ENERGY PREDICTED BY IDOCK:   -7.46 KCAL/MOL
REMARK 924 INTRA-LIGAND FREE ENERGY PREDICTED BY IDOCK:   -0.92 KCAL/MOL
REMARK 927      BINDING AFFINITY PREDICTED BY RF-SCORE:    0.00 PKD
ROOT
HETATM    1  C   UNL     1      -8.264  19.729  66.794  1.00  0.00    -0.312 C  
HETATM    2  C   UNL     1      -7.034  20.655  66.893  1.00  0.00    -0.357 C  
HETATM    3  C   UNL     1      -6.489  20.406  68.300  1.00  0.00    -0.344 C  
HETATM    4  C   UNL     1      -7.456  19.370  68.911  1.00  0.00    -0.364 C  
HETATM    5  C   UNL     1      -7.040  17.879  68.677  1.00  0.00    -0.266 C  
HETATM    6  N   UNL     1      -8.677  19.753  68.194  1.00  0.00    -0.308 NA 
HETATM    7  C   UNL     1      -9.879  19.024  68.501  1.00  0.00    -0.411 C  
HETATM    8  C   UNL     1      -7.543  17.214  67.363  1.00  0.00    -0.167 C  
HETATM    9  C   UNL     1      -7.986  18.276  66.288  1.00  0.00    -0.267 C  
ENDROOT
BRANCH   8  10
HETATM   10  S   UNL     1      -8.390  15.258  67.346  1.00  0.00    -0.197 SA 
BRANCH  10  11
HETATM   11  C   UNL     1      -7.539  14.076  68.535  1.00  0.00    -0.130 C  
BRANCH  11  12
HETATM   12  C   UNL     1      -6.579  12.755  68.184  1.00  0.00    -0.088 C  
HETATM   13  O   UNL     1      -5.803  12.910  67.230  1.00  0.00    -0.308 OA 
BRANCH  12  14
HETATM   14  O   UNL     1      -6.580  11.513  68.810  1.00  0.00    -0.059 OA 
BRANCH  14  15
HETATM   15  C   UNL     1      -7.782  10.440  68.670  1.00  0.00    -0.101 C  
HETATM   16  C   UNL     1      -7.616   9.766  70.129  1.00  0.00    -0.180 C  
HETATM   17  C   UNL     1      -8.665   8.777  70.703  1.00  0.00    -0.208 C  
HETATM   18  C   UNL     1     -10.688   7.385  67.249  1.00  0.00    -0.379 C  
HETATM   19  C   UNL     1      -8.637   8.490  72.225  1.00  0.00    -0.235 C  
HETATM   20  C   UNL     1      -8.277   7.411  70.057  1.00  0.00    -0.131 C  
HETATM   21  O   UNL     1      -7.513   6.504  70.849  1.00  0.00    -0.081 OA 
HETATM   22  C   UNL     1      -9.443   6.749  69.369  1.00  0.00    -0.147 C  
HETATM   23  C   UNL     1     -10.907   8.891  66.970  1.00  0.00    -0.039 C  
HETATM   24  C   UNL     1      -9.309   6.908  67.796  1.00  0.00    -0.120 C  
HETATM   25  C   UNL     1      -9.738   5.326  69.910  1.00  0.00    -0.260 C  
HETATM   26  H   UNL     1      -7.277   5.673  70.456  1.00  0.00     0.000 HD 
HETATM   27  C   UNL     1      -8.934   5.488  67.267  1.00  0.00    -0.111 C  
HETATM   28  C   UNL     1      -8.465   5.645  65.855  1.00  0.00    -0.136 C  
HETATM   29  C   UNL     1      -7.824   7.004  65.895  1.00  0.00    -0.106 C  
HETATM   30  C   UNL     1      -8.121   7.816  67.213  1.00  0.00    -0.119 C  
HETATM   31  O   UNL     1      -7.039   7.314  65.031  1.00  0.00    -0.060 OA 
HETATM   32  C   UNL     1      -8.223   9.459  67.167  1.00  0.00    -0.113 C  
HETATM   33  C   UNL     1      -7.434   9.890  65.863  1.00  0.00    -0.108 C  
HETATM   34  C   UNL     1      -9.708   9.813  66.657  1.00  0.00    -0.257 C  
HETATM   35  C   UNL     1      -9.979  11.336  66.722  1.00  0.00    -0.238 C  
BRANCH  17  36
HETATM   36  C   UNL     1     -10.019   9.428  70.386  1.00  0.00    -0.306 C  
HETATM   37  C   UNL     1     -11.101   9.541  71.168  1.00  0.00    -0.450 C  
ENDBRANCH  17  36
ENDBRANCH  14  15
ENDBRANCH  12  14
ENDBRANCH  11  12
ENDBRANCH  10  11
ENDBRANCH   8  10
TORSDOF 6
ENDMDL
MODEL       58
REMARK 921   NORMALIZED FREE ENERGY PREDICTED BY IDOCK:   -4.89 KCAL/MOL
REMARK 922        TOTAL FREE ENERGY PREDICTED BY IDOCK:   -8.35 KCAL/MOL
REMARK 923 INTER-LIGAND FREE ENERGY PREDICTED BY IDOCK:   -7.39 KCAL/MOL
REMARK 924 INTRA-LIGAND FREE ENERGY PREDICTED BY IDOCK:   -0.97 KCAL/MOL
REMARK 927      BINDING AFFINITY PREDICTED BY RF-SCORE:    0.00 PKD
ROOT
HETATM    1  C   UNL     1      -9.717  14.277  67.149  1.00  0.00    -0.254 C  
HETATM    2  C   UNL     1     -10.289  14.117  68.573  1.00  0.00    -0.249 C  
HETATM    3  C   UNL     1     -11.804  14.192  68.379  1.00  0.00    -0.388 C  
HETATM    4  C   UNL     1     -11.990  14.407  66.863  1.00  0.00    -0.399 C  
HETATM    5  C   UNL     1     -12.127  13.087  66.032  1.00  0.00    -0.493 C  
HETATM    6  N   UNL     1     -10.751  15.142  66.587  1.00  0.00    -0.306 NA 
HETATM    7  C   UNL     1     -10.529  15.580  65.234  1.00  0.00    -0.411 C  
HETATM    8  C   UNL     1     -10.803  12.439  65.532  1.00  0.00    -0.281 C  
HETATM    9  C   UNL     1      -9.546  12.957  66.328  1.00  0.00    -0.245 C  
ENDROOT
BRANCH   8  10
HETATM   10  S   UNL     1     -10.585  11.727  63.535  1.00  0.00    -0.450 SA 
BRANCH  10  11
HETATM   11  C   UNL     1      -9.361  10.307  63.389  1.00  0.00    -0.303 C  
BRANCH  11  12
HETATM   12  C   UNL     1      -8.310   9.713  64.543  1.00  0.00    -0.169 C  
HETATM   13  O   UNL     1      -7.203   9.361  64.112  1.00  0.00    -0.099 OA 
BRANCH  12  14
HETATM   14  O   UNL     1      -8.549   9.540  65.903  1.00  0.00    -0.125 OA 
BRANCH  14  15
HETATM   15  C   UNL     1      -8.196   8.184  66.710  1.00  0.00    -0.107 C  
HETATM   16  C   UNL     1      -8.776   7.147  65.615  1.00  0.00    -0.088 C  
HETATM   17  C   UNL     1      -8.524   5.619  65.715  1.00  0.00    -0.140 C  
HETATM   18  C   UNL     1      -7.573   5.050  69.805  1.00  0.00    -0.060 C  
HETATM   19  C   UNL     1      -8.769   4.758  64.451  1.00  0.00    -0.149 C  
HETATM   20  C   UNL     1      -9.614   5.129  66.718  1.00  0.00    -0.151 C  
HETATM   21  O   UNL     1     -10.791   4.539  66.172  1.00  0.00    -0.513 OA 
HETATM   22  C   UNL     1      -9.030   4.329  67.854  1.00  0.00    -0.144 C  
HETATM   23  C   UNL     1      -6.506   6.138  69.540  1.00  0.00    -0.042 C  
HETATM   24  C   UNL     1      -8.990   5.207  69.176  1.00  0.00    -0.125 C  
HETATM   25  C   UNL     1      -9.642   2.909  67.972  1.00  0.00    -0.113 C  
HETATM   26  H   UNL     1     -11.454   4.241  66.783  1.00  0.00     0.000 HD 
HETATM   27  C   UNL     1     -10.105   4.620  70.097  1.00  0.00    -0.283 C  
HETATM   28  C   UNL     1     -10.342   5.606  71.197  1.00  0.00    -0.295 C  
HETATM   29  C   UNL     1     -10.069   6.911  70.501  1.00  0.00    -0.187 C  
HETATM   30  C   UNL     1      -9.402   6.756  69.082  1.00  0.00    -0.135 C  
HETATM   31  O   UNL     1     -10.494   7.936  70.979  1.00  0.00    -0.202 OA 
HETATM   32  C   UNL     1      -8.357   7.903  68.529  1.00  0.00    -0.128 C  
HETATM   33  C   UNL     1      -8.699   9.211  69.355  1.00  0.00    -0.140 C  
HETATM   34  C   UNL     1      -6.928   7.583  69.197  1.00  0.00    -0.072 C  
HETATM   35  C   UNL     1      -5.821   8.504  68.629  1.00  0.00    -0.044 C  
BRANCH  17  36
HETATM   36  C   UNL     1      -7.035   5.499  66.068  1.00  0.00    -0.066 C  
HETATM   37  C   UNL     1      -6.121   4.648  65.581  1.00  0.00    -0.027 C  
ENDBRANCH  17  36
ENDBRANCH  14  15
ENDBRANCH  12  14
ENDBRANCH  11  12
ENDBRANCH  10  11
ENDBRANCH   8  10
TORSDOF 6
ENDMDL
MODEL       59
REMARK 921   NORMALIZED FREE ENERGY PREDICTED BY IDOCK:   -4.87 KCAL/MOL
REMARK 922        TOTAL FREE ENERGY PREDICTED BY IDOCK:   -8.33 KCAL/MOL
REMARK 923 INTER-LIGAND FREE ENERGY PREDICTED BY IDOCK:   -7.36 KCAL/MOL
REMARK 924 INTRA-LIGAND FREE ENERGY PREDICTED BY IDOCK:   -0.97 KCAL/MOL
REMARK 927      BINDING AFFINITY PREDICTED BY RF-SCORE:    0.00 PKD
ROOT
HETATM    1  C   UNL     1     -11.870   6.560  71.379  1.00  0.00    -0.329 C  
HETATM    2  C   UNL     1     -13.262   7.218  71.476  1.00  0.00    -0.434 C  
HETATM    3  C   UNL     1     -12.968   8.659  71.895  1.00  0.00    -0.409 C  
HETATM    4  C   UNL     1     -11.431   8.717  72.025  1.00  0.00    -0.371 C  
HETATM    5  C   UNL     1     -10.685   9.133  70.713  1.00  0.00    -0.327 C  
HETATM    6  N   UNL     1     -11.186   7.326  72.418  1.00  0.00    -0.267 NA 
HETATM    7  C   UNL     1      -9.824   6.942  72.679  1.00  0.00    -0.165 C  
HETATM    8  C   UNL     1     -10.316   7.986  69.729  1.00  0.00    -0.219 C  
HETATM    9  C   UNL     1     -11.153   6.679  69.994  1.00  0.00    -0.394 C  
ENDROOT
BRANCH   8  10
HETATM   10  S   UNL     1      -8.389   7.856  68.826  1.00  0.00    -0.128 SA 
BRANCH  10  11
HETATM   11  C   UNL     1      -8.128   9.125  67.463  1.00  0.00    -0.104 C  
BRANCH  11  12
HETATM   12  C   UNL     1      -7.018  10.370  67.396  1.00  0.00    -0.085 C  
HETATM   13  O   UNL     1      -6.019  10.220  68.115  1.00  0.00    -0.041 OA 
BRANCH  12  14
HETATM   14  O   UNL     1      -7.106  11.550  66.665  1.00  0.00    -0.132 OA 
BRANCH  14  15
HETATM   15  C   UNL     1      -7.782  12.907  67.229  1.00  0.00    -0.117 C  
HETATM   16  C   UNL     1      -9.146  12.821  66.368  1.00  0.00    -0.096 C  
HETATM   17  C   UNL     1     -10.350  13.760  66.639  1.00  0.00    -0.279 C  
HETATM   18  C   UNL     1      -8.600  17.028  68.693  1.00  0.00    -0.265 C  
HETATM   19  C   UNL     1     -11.728  13.363  66.051  1.00  0.00    -0.398 C  
HETATM   20  C   UNL     1      -9.980  15.068  65.873  1.00  0.00    -0.326 C  
HETATM   21  O   UNL     1     -10.570  15.266  64.590  1.00  0.00    -0.570 OA 
HETATM   22  C   UNL     1     -10.060  16.290  66.751  1.00  0.00    -0.281 C  
HETATM   23  C   UNL     1      -8.063  15.931  69.643  1.00  0.00     0.052 C  
HETATM   24  C   UNL     1      -8.601  16.766  67.157  1.00  0.00    -0.217 C  
HETATM   25  C   UNL     1     -11.024  17.371  66.197  1.00  0.00     0.234 C  
HETATM   26  H   UNL     1     -10.344  16.062  64.124  1.00  0.00     0.000 HD 
HETATM   27  C   UNL     1      -8.351  18.075  66.343  1.00  0.00    -0.275 C  
HETATM   28  C   UNL     1      -6.888  18.378  66.421  1.00  0.00    -0.252 C  
HETATM   29  C   UNL     1      -6.294  16.998  66.489  1.00  0.00    -0.184 C  
HETATM   30  C   UNL     1      -7.349  15.854  66.734  1.00  0.00    -0.140 C  
HETATM   31  O   UNL     1      -5.128  16.843  66.213  1.00  0.00    -0.364 OA 
HETATM   32  C   UNL     1      -6.928  14.507  67.582  1.00  0.00    -0.204 C  
HETATM   33  C   UNL     1      -5.348  14.430  67.484  1.00  0.00     0.212 C  
HETATM   34  C   UNL     1      -7.036  14.893  69.141  1.00  0.00    -0.148 C  
HETATM   35  C   UNL     1      -6.814  13.656  70.045  1.00  0.00     0.277 C  
BRANCH  17  36
HETATM   36  C   UNL     1     -10.491  13.771  68.167  1.00  0.00    -0.252 C  
HETATM   37  C   UNL     1     -11.587  13.565  68.912  1.00  0.00    -0.364 C  
ENDBRANCH  17  36
ENDBRANCH  14  15
ENDBRANCH  12  14
ENDBRANCH  11  12
ENDBRANCH  10  11
ENDBRANCH   8  10
TORSDOF 6
ENDMDL
MODEL       60
REMARK 921   NORMALIZED FREE ENERGY PREDICTED BY IDOCK:   -4.86 KCAL/MOL
REMARK 922        TOTAL FREE ENERGY PREDICTED BY IDOCK:   -8.31 KCAL/MOL
REMARK 923 INTER-LIGAND FREE ENERGY PREDICTED BY IDOCK:   -7.41 KCAL/MOL
REMARK 924 INTRA-LIGAND FREE ENERGY PREDICTED BY IDOCK:   -0.90 KCAL/MOL
REMARK 927      BINDING AFFINITY PREDICTED BY RF-SCORE:    0.00 PKD
ROOT
HETATM    1  C   UNL     1      -8.337  17.293  66.233  1.00  0.00    -0.254 C  
HETATM    2  C   UNL     1      -7.233  17.407  67.305  1.00  0.00    -0.192 C  
HETATM    3  C   UNL     1      -7.996  17.688  68.600  1.00  0.00    -0.275 C  
HETATM    4  C   UNL     1      -9.478  17.732  68.174  1.00  0.00    -0.282 C  
HETATM    5  C   UNL     1     -10.215  16.353  68.247  1.00  0.00    -0.255 C  
HETATM    6  N   UNL     1      -9.303  18.227  66.804  1.00  0.00    -0.286 NA 
HETATM    7  C   UNL     1     -10.492  18.447  66.024  1.00  0.00    -0.374 C  
HETATM    8  C   UNL     1     -10.130  15.450  66.982  1.00  0.00    -0.249 C  
HETATM    9  C   UNL     1      -8.947  15.867  66.029  1.00  0.00    -0.337 C  
ENDROOT
BRANCH   8  10
HETATM   10  S   UNL     1     -11.844  14.462  66.189  1.00  0.00    -0.357 SA 
BRANCH  10  11
HETATM   11  C   UNL     1     -11.690  12.588  66.213  1.00  0.00    -0.404 C  
BRANCH  11  12
HETATM   12  C   UNL     1     -11.103  11.605  67.428  1.00  0.00    -0.281 C  
HETATM   13  O   UNL     1     -10.490  12.196  68.329  1.00  0.00    -0.200 OA 
BRANCH  12  14
HETATM   14  O   UNL     1     -11.194  10.220  67.521  1.00  0.00    -0.295 OA 
BRANCH  14  15
HETATM   15  C   UNL     1      -9.919   9.252  67.754  1.00  0.00    -0.190 C  
HETATM   16  C   UNL     1      -9.657   8.893  66.201  1.00  0.00    -0.335 C  
HETATM   17  C   UNL     1      -8.381   8.145  65.733  1.00  0.00    -0.140 C  
HETATM   18  C   UNL     1      -7.019   6.234  69.262  1.00  0.00    -0.064 C  
HETATM   19  C   UNL     1      -8.025   8.187  64.226  1.00  0.00    -0.144 C  
HETATM   20  C   UNL     1      -8.713   6.644  65.997  1.00  0.00    -0.147 C  
HETATM   21  O   UNL     1      -9.147   5.863  64.886  1.00  0.00    -0.364 OA 
HETATM   22  C   UNL     1      -7.654   5.957  66.819  1.00  0.00    -0.099 C  
HETATM   23  C   UNL     1      -7.077   7.659  69.861  1.00  0.00    -0.063 C  
HETATM   24  C   UNL     1      -8.160   5.764  68.311  1.00  0.00    -0.108 C  
HETATM   25  C   UNL     1      -7.052   4.713  66.115  1.00  0.00    -0.075 C  
HETATM   26  H   UNL     1      -9.350   4.949  65.047  1.00  0.00     0.000 HD 
HETATM   27  C   UNL     1      -8.448   4.236  68.457  1.00  0.00    -0.103 C  
HETATM   28  C   UNL     1      -9.240   4.047  69.712  1.00  0.00    -0.212 C  
HETATM   29  C   UNL     1     -10.035   5.322  69.765  1.00  0.00    -0.236 C  
HETATM   30  C   UNL     1      -9.563   6.419  68.737  1.00  0.00    -0.127 C  
HETATM   31  O   UNL     1     -11.030   5.370  70.449  1.00  0.00    -0.212 OA 
HETATM   32  C   UNL     1      -9.699   8.017  69.111  1.00  0.00    -0.163 C  
HETATM   33  C   UNL     1     -10.814   8.089  70.234  1.00  0.00    -0.241 C  
HETATM   34  C   UNL     1      -8.430   8.384  70.031  1.00  0.00    -0.125 C  
HETATM   35  C   UNL     1      -8.363   9.903  70.319  1.00  0.00    -0.085 C  
BRANCH  17  36
HETATM   36  C   UNL     1      -7.236   8.830  66.493  1.00  0.00    -0.081 C  
HETATM   37  C   UNL     1      -6.066   9.284  66.020  1.00  0.00    -0.059 C  
ENDBRANCH  17  36
ENDBRANCH  14  15
ENDBRANCH  12  14
ENDBRANCH  11  12
ENDBRANCH  10  11
ENDBRANCH   8  10
TORSDOF 6
ENDMDL
MODEL       61
REMARK 921   NORMALIZED FREE ENERGY PREDICTED BY IDOCK:   -4.85 KCAL/MOL
REMARK 922        TOTAL FREE ENERGY PREDICTED BY IDOCK:   -8.30 KCAL/MOL
REMARK 923 INTER-LIGAND FREE ENERGY PREDICTED BY IDOCK:   -7.22 KCAL/MOL
REMARK 924 INTRA-LIGAND FREE ENERGY PREDICTED BY IDOCK:   -1.08 KCAL/MOL
REMARK 927      BINDING AFFINITY PREDICTED BY RF-SCORE:    0.00 PKD
ROOT
HETATM    1  C   UNL     1      -9.456   5.342  68.907  1.00  0.00    -0.133 C  
HETATM    2  C   UNL     1      -9.783   4.234  67.884  1.00  0.00    -0.172 C  
HETATM    3  C   UNL     1     -10.392   4.985  66.699  1.00  0.00    -0.312 C  
HETATM    4  C   UNL     1     -10.387   6.465  67.136  1.00  0.00    -0.232 C  
HETATM    5  C   UNL     1      -9.093   7.253  66.742  1.00  0.00    -0.172 C  
HETATM    6  N   UNL     1     -10.534   6.273  68.582  1.00  0.00    -0.205 NA 
HETATM    7  C   UNL     1     -10.605   7.454  69.402  1.00  0.00    -0.226 C  
HETATM    8  C   UNL     1      -7.912   7.202  67.754  1.00  0.00    -0.114 C  
HETATM    9  C   UNL     1      -8.047   6.005  68.769  1.00  0.00    -0.104 C  
ENDROOT
BRANCH   8  10
HETATM   10  S   UNL     1      -6.826   8.952  68.302  1.00  0.00    -0.066 SA 
BRANCH  10  11
HETATM   11  C   UNL     1      -5.673   9.558  66.946  1.00  0.00    -0.051 C  
BRANCH  11  12
HETATM   12  C   UNL     1      -5.628  11.056  66.208  1.00  0.00    -0.139 C  
HETATM   13  O   UNL     1      -5.419  11.032  64.987  1.00  0.00    -0.152 OA 
BRANCH  12  14
HETATM   14  O   UNL     1      -5.762  12.304  66.808  1.00  0.00    -0.307 OA 
BRANCH  14  15
HETATM   15  C   UNL     1      -7.176  12.913  67.304  1.00  0.00    -0.067 C  
HETATM   16  C   UNL     1      -8.127  11.883  66.501  1.00  0.00     0.006 C  
HETATM   17  C   UNL     1      -9.656  11.809  66.752  1.00  0.00    -0.212 C  
HETATM   18  C   UNL     1     -10.541  15.562  68.511  1.00  0.00    -0.246 C  
HETATM   19  C   UNL     1     -10.417  10.558  66.246  1.00  0.00    -0.250 C  
HETATM   20  C   UNL     1     -10.231  12.972  65.885  1.00  0.00    -0.292 C  
HETATM   21  O   UNL     1     -10.782  12.633  64.615  1.00  0.00    -0.294 OA 
HETATM   22  C   UNL     1     -11.114  13.899  66.680  1.00  0.00    -0.310 C  
HETATM   23  C   UNL     1      -9.429  15.170  69.513  1.00  0.00    -0.151 C  
HETATM   24  C   UNL     1     -10.342  15.248  66.998  1.00  0.00    -0.277 C  
HETATM   25  C   UNL     1     -12.542  14.028  66.090  1.00  0.00    -0.407 C  
HETATM   26  H   UNL     1     -11.131  13.341  64.088  1.00  0.00     0.000 HD 
HETATM   27  C   UNL     1     -11.006  16.330  66.088  1.00  0.00     0.006 C  
HETATM   28  C   UNL     1     -10.111  17.528  66.090  1.00  0.00    -0.317 C  
HETATM   29  C   UNL     1      -8.754  16.896  66.229  1.00  0.00    -0.286 C  
HETATM   30  C   UNL     1      -8.793  15.363  66.592  1.00  0.00    -0.330 C  
HETATM   31  O   UNL     1      -7.773  17.529  65.921  1.00  0.00    -0.506 OA 
HETATM   32  C   UNL     1      -7.601  14.700  67.514  1.00  0.00    -0.215 C  
HETATM   33  C   UNL     1      -6.364  15.678  67.362  1.00  0.00    -0.144 C  
HETATM   34  C   UNL     1      -7.964  15.035  69.046  1.00  0.00    -0.180 C  
HETATM   35  C   UNL     1      -6.995  14.327  70.023  1.00  0.00     0.090 C  
BRANCH  17  36
HETATM   36  C   UNL     1      -9.796  11.840  68.281  1.00  0.00    -0.198 C  
HETATM   37  C   UNL     1     -10.704  11.230  69.055  1.00  0.00    -0.257 C  
ENDBRANCH  17  36
ENDBRANCH  14  15
ENDBRANCH  12  14
ENDBRANCH  11  12
ENDBRANCH  10  11
ENDBRANCH   8  10
TORSDOF 6
ENDMDL
MODEL       62
REMARK 921   NORMALIZED FREE ENERGY PREDICTED BY IDOCK:   -4.85 KCAL/MOL
REMARK 922        TOTAL FREE ENERGY PREDICTED BY IDOCK:   -8.30 KCAL/MOL
REMARK 923 INTER-LIGAND FREE ENERGY PREDICTED BY IDOCK:   -6.94 KCAL/MOL
REMARK 924 INTRA-LIGAND FREE ENERGY PREDICTED BY IDOCK:   -1.36 KCAL/MOL
REMARK 927      BINDING AFFINITY PREDICTED BY RF-SCORE:    0.00 PKD
ROOT
HETATM    1  C   UNL     1      -9.242   4.414  69.673  1.00  0.00    -0.133 C  
HETATM    2  C   UNL     1      -9.286   2.894  69.415  1.00  0.00    -0.196 C  
HETATM    3  C   UNL     1      -8.621   2.284  70.649  1.00  0.00    -0.099 C  
HETATM    4  C   UNL     1      -8.229   3.499  71.516  1.00  0.00    -0.065 C  
HETATM    5  C   UNL     1      -9.323   3.943  72.544  1.00  0.00    -0.159 C  
HETATM    6  N   UNL     1      -8.005   4.476  70.446  1.00  0.00    -0.059 NA 
HETATM    7  C   UNL     1      -7.577   5.795  70.832  1.00  0.00    -0.092 C  
HETATM    8  C   UNL     1     -10.387   4.958  72.032  1.00  0.00    -0.197 C  
HETATM    9  C   UNL     1     -10.456   5.009  70.460  1.00  0.00    -0.230 C  
ENDROOT
BRANCH   8  10
HETATM   10  S   UNL     1     -10.964   6.657  73.183  1.00  0.00    -0.185 SA 
BRANCH  10  11
HETATM   11  C   UNL     1     -10.659   8.285  72.296  1.00  0.00    -0.323 C  
BRANCH  11  12
HETATM   12  C   UNL     1     -11.768   9.301  71.569  1.00  0.00    -0.380 C  
HETATM   13  O   UNL     1     -12.492   9.932  72.352  1.00  0.00    -0.162 OA 
BRANCH  12  14
HETATM   14  O   UNL     1     -11.989   9.485  70.208  1.00  0.00    -0.142 OA 
BRANCH  14  15
HETATM   15  C   UNL     1     -10.955  10.252  69.228  1.00  0.00    -0.241 C  
HETATM   16  C   UNL     1     -11.974  11.399  68.725  1.00  0.00    -0.353 C  
HETATM   17  C   UNL     1     -11.493  12.624  67.902  1.00  0.00    -0.360 C  
HETATM   18  C   UNL     1      -7.804  11.320  66.275  1.00  0.00    -0.069 C  
HETATM   19  C   UNL     1     -12.438  13.847  67.800  1.00  0.00     0.188 C  
HETATM   20  C   UNL     1     -11.422  12.083  66.441  1.00  0.00    -0.353 C  
HETATM   21  O   UNL     1     -12.516  12.382  65.577  1.00  0.00    -0.643 OA 
HETATM   22  C   UNL     1     -10.082  12.336  65.799  1.00  0.00    -0.274 C  
HETATM   23  C   UNL     1      -7.450  11.011  67.749  1.00  0.00    -0.094 C  
HETATM   24  C   UNL     1      -9.236  10.994  65.755  1.00  0.00    -0.226 C  
HETATM   25  C   UNL     1     -10.185  13.146  64.481  1.00  0.00    -0.333 C  
HETATM   26  H   UNL     1     -12.472  12.052  64.687  1.00  0.00     0.000 HD 
HETATM   27  C   UNL     1      -9.226  10.560  64.255  1.00  0.00    -0.281 C  
HETATM   28  C   UNL     1      -8.745   9.145  64.201  1.00  0.00    -0.170 C  
HETATM   29  C   UNL     1      -9.270   8.594  65.498  1.00  0.00    -0.091 C  
HETATM   30  C   UNL     1      -9.824   9.690  66.485  1.00  0.00    -0.298 C  
HETATM   31  O   UNL     1      -9.370   7.398  65.635  1.00  0.00     0.098 OA 
HETATM   32  C   UNL     1      -9.702   9.476  68.114  1.00  0.00    -0.166 C  
HETATM   33  C   UNL     1      -9.539   7.913  68.317  1.00  0.00    -0.164 C  
HETATM   34  C   UNL     1      -8.208   9.912  68.524  1.00  0.00    -0.106 C  
HETATM   35  C   UNL     1      -8.020   9.903  70.061  1.00  0.00    -0.194 C  
BRANCH  17  36
HETATM   36  C   UNL     1     -10.218  13.090  68.619  1.00  0.00    -0.173 C  
HETATM   37  C   UNL     1      -9.679  14.317  68.665  1.00  0.00    -0.213 C  
ENDBRANCH  17  36
ENDBRANCH  14  15
ENDBRANCH  12  14
ENDBRANCH  11  12
ENDBRANCH  10  11
ENDBRANCH   8  10
TORSDOF 6
ENDMDL
MODEL       63
REMARK 921   NORMALIZED FREE ENERGY PREDICTED BY IDOCK:   -4.83 KCAL/MOL
REMARK 922        TOTAL FREE ENERGY PREDICTED BY IDOCK:   -8.28 KCAL/MOL
REMARK 923 INTER-LIGAND FREE ENERGY PREDICTED BY IDOCK:   -7.52 KCAL/MOL
REMARK 924 INTRA-LIGAND FREE ENERGY PREDICTED BY IDOCK:   -0.76 KCAL/MOL
REMARK 927      BINDING AFFINITY PREDICTED BY RF-SCORE:    0.00 PKD
ROOT
HETATM    1  C   UNL     1     -11.132  13.915  64.105  1.00  0.00    -0.106 C  
HETATM    2  C   UNL     1     -11.249  15.109  65.075  1.00  0.00    -0.414 C  
HETATM    3  C   UNL     1     -12.128  14.584  66.211  1.00  0.00    -0.311 C  
HETATM    4  C   UNL     1     -12.466  13.136  65.801  1.00  0.00    -0.377 C  
HETATM    5  C   UNL     1     -11.455  12.061  66.325  1.00  0.00    -0.408 C  
HETATM    6  N   UNL     1     -12.435  13.302  64.344  1.00  0.00    -0.611 NA 
HETATM    7  C   UNL     1     -12.737  12.147  63.540  1.00  0.00    -0.431 C  
HETATM    8  C   UNL     1     -10.219  11.771  65.425  1.00  0.00    -0.261 C  
HETATM    9  C   UNL     1      -9.956  12.922  64.382  1.00  0.00    -0.159 C  
ENDROOT
BRANCH   8  10
HETATM   10  S   UNL     1      -9.575   9.783  65.007  1.00  0.00    -0.202 SA 
BRANCH  10  11
HETATM   11  C   UNL     1      -9.217   8.783  66.558  1.00  0.00    -0.179 C  
BRANCH  11  12
HETATM   12  C   UNL     1      -9.733   7.243  66.949  1.00  0.00    -0.194 C  
HETATM   13  O   UNL     1      -9.611   6.405  66.044  1.00  0.00    -0.063 OA 
BRANCH  12  14
HETATM   14  O   UNL     1     -10.306   6.815  68.142  1.00  0.00    -0.164 OA 
BRANCH  14  15
HETATM   15  C   UNL     1      -9.571   6.923  69.579  1.00  0.00    -0.148 C  
HETATM   16  C   UNL     1      -8.226   6.125  69.172  1.00  0.00    -0.113 C  
HETATM   17  C   UNL     1      -6.983   6.082  70.100  1.00  0.00    -0.069 C  
HETATM   18  C   UNL     1      -8.577   7.015  73.914  1.00  0.00    -0.181 C  
HETATM   19  C   UNL     1      -5.631   5.642  69.484  1.00  0.00    -0.008 C  
HETATM   20  C   UNL     1      -7.318   4.946  71.116  1.00  0.00    -0.068 C  
HETATM   21  O   UNL     1      -6.743   3.663  70.878  1.00  0.00    -0.030 OA 
HETATM   22  C   UNL     1      -7.179   5.396  72.547  1.00  0.00    -0.093 C  
HETATM   23  C   UNL     1      -9.138   8.264  73.193  1.00  0.00    -0.305 C  
HETATM   24  C   UNL     1      -8.611   5.639  73.184  1.00  0.00    -0.117 C  
HETATM   25  C   UNL     1      -6.185   4.526  73.361  1.00  0.00    -0.032 C  
HETATM   26  H   UNL     1      -6.948   2.972  71.496  1.00  0.00     0.000 HD 
HETATM   27  C   UNL     1      -8.828   4.457  74.181  1.00  0.00    -0.102 C  
HETATM   28  C   UNL     1     -10.277   4.443  74.552  1.00  0.00    -0.283 C  
HETATM   29  C   UNL     1     -10.920   4.942  73.288  1.00  0.00    -0.320 C  
HETATM   30  C   UNL     1      -9.903   5.529  72.237  1.00  0.00    -0.192 C  
HETATM   31  O   UNL     1     -12.095   4.735  73.101  1.00  0.00    -0.136 OA 
HETATM   32  C   UNL     1     -10.360   6.760  71.242  1.00  0.00    -0.225 C  
HETATM   33  C   UNL     1     -11.942   6.697  71.201  1.00  0.00    -0.412 C  
HETATM   34  C   UNL     1     -10.210   8.118  72.092  1.00  0.00    -0.330 C  
HETATM   35  C   UNL     1     -10.463   9.365  71.211  1.00  0.00    -0.385 C  
BRANCH  17  36
HETATM   36  C   UNL     1      -6.816   7.529  70.583  1.00  0.00    -0.047 C  
HETATM   37  C   UNL     1      -6.700   8.650  69.858  1.00  0.00    -0.042 C  
ENDBRANCH  17  36
ENDBRANCH  14  15
ENDBRANCH  12  14
ENDBRANCH  11  12
ENDBRANCH  10  11
ENDBRANCH   8  10
TORSDOF 6
ENDMDL
MODEL       64
REMARK 921   NORMALIZED FREE ENERGY PREDICTED BY IDOCK:   -4.82 KCAL/MOL
REMARK 922        TOTAL FREE ENERGY PREDICTED BY IDOCK:   -8.26 KCAL/MOL
REMARK 923 INTER-LIGAND FREE ENERGY PREDICTED BY IDOCK:   -7.44 KCAL/MOL
REMARK 924 INTRA-LIGAND FREE ENERGY PREDICTED BY IDOCK:   -0.82 KCAL/MOL
REMARK 927      BINDING AFFINITY PREDICTED BY RF-SCORE:    0.00 PKD
ROOT
HETATM    1  C   UNL     1     -10.924  13.816  64.234  1.00  0.00    -0.251 C  
HETATM    2  C   UNL     1     -11.094  14.983  65.229  1.00  0.00    -0.391 C  
HETATM    3  C   UNL     1     -11.985  14.408  66.331  1.00  0.00    -0.402 C  
HETATM    4  C   UNL     1     -12.274  12.962  65.879  1.00  0.00    -0.407 C  
HETATM    5  C   UNL     1     -11.247  11.901  66.401  1.00  0.00    -0.387 C  
HETATM    6  N   UNL     1     -12.216  13.163  64.428  1.00  0.00    -0.465 NA 
HETATM    7  C   UNL     1     -12.468  12.021  63.590  1.00  0.00    -0.525 C  
HETATM    8  C   UNL     1      -9.984  11.666  65.524  1.00  0.00    -0.242 C  
HETATM    9  C   UNL     1      -9.728  12.848  64.515  1.00  0.00     0.115 C  
ENDROOT
BRANCH   8  10
HETATM   10  S   UNL     1      -9.278   9.705  65.074  1.00  0.00    -0.243 SA 
BRANCH  10  11
HETATM   11  C   UNL     1      -9.885   8.407  66.291  1.00  0.00    -0.187 C  
BRANCH  11  12
HETATM   12  C   UNL     1      -9.175   6.954  66.707  1.00  0.00    -0.152 C  
HETATM   13  O   UNL     1      -8.365   6.511  65.879  1.00  0.00    -0.127 OA 
BRANCH  12  14
HETATM   14  O   UNL     1      -9.413   6.184  67.841  1.00  0.00    -0.117 OA 
BRANCH  14  15
HETATM   15  C   UNL     1      -9.402   6.777  69.346  1.00  0.00    -0.148 C  
HETATM   16  C   UNL     1      -8.143   7.772  69.157  1.00  0.00    -0.125 C  
HETATM   17  C   UNL     1      -7.760   8.827  70.228  1.00  0.00    -0.085 C  
HETATM   18  C   UNL     1      -9.588   7.348  73.754  1.00  0.00    -0.333 C  
HETATM   19  C   UNL     1      -6.810   9.976  69.809  1.00  0.00    -0.094 C  
HETATM   20  C   UNL     1      -6.928   8.014  71.268  1.00  0.00    -0.056 C  
HETATM   21  O   UNL     1      -5.508   8.103  71.185  1.00  0.00    -0.033 OA 
HETATM   22  C   UNL     1      -7.446   8.179  72.673  1.00  0.00    -0.156 C  
HETATM   23  C   UNL     1     -10.872   7.344  72.891  1.00  0.00    -0.402 C  
HETATM   24  C   UNL     1      -8.245   6.882  73.116  1.00  0.00    -0.118 C  
HETATM   25  C   UNL     1      -6.371   8.713  73.655  1.00  0.00    -0.091 C  
HETATM   26  H   UNL     1      -5.002   7.608  71.818  1.00  0.00     0.000 HD 
HETATM   27  C   UNL     1      -7.326   6.164  74.155  1.00  0.00    -0.087 C  
HETATM   28  C   UNL     1      -7.864   4.782  74.349  1.00  0.00    -0.096 C  
HETATM   29  C   UNL     1      -8.424   4.478  72.987  1.00  0.00    -0.099 C  
HETATM   30  C   UNL     1      -8.501   5.728  72.030  1.00  0.00    -0.126 C  
HETATM   31  O   UNL     1      -8.627   3.329  72.674  1.00  0.00    -0.082 OA 
HETATM   32  C   UNL     1      -9.703   5.839  70.909  1.00  0.00    -0.218 C  
HETATM   33  C   UNL     1     -10.200   4.352  70.682  1.00  0.00    -0.097 C  
HETATM   34  C   UNL     1     -11.001   6.394  71.681  1.00  0.00    -0.302 C  
HETATM   35  C   UNL     1     -12.158   6.691  70.696  1.00  0.00    -0.342 C  
BRANCH  17  36
HETATM   36  C   UNL     1      -9.097   9.464  70.633  1.00  0.00    -0.292 C  
HETATM   37  C   UNL     1     -10.008  10.072  69.859  1.00  0.00    -0.280 C  
ENDBRANCH  17  36
ENDBRANCH  14  15
ENDBRANCH  12  14
ENDBRANCH  11  12
ENDBRANCH  10  11
ENDBRANCH   8  10
TORSDOF 6
ENDMDL
MODEL       65
REMARK 921   NORMALIZED FREE ENERGY PREDICTED BY IDOCK:   -4.80 KCAL/MOL
REMARK 922        TOTAL FREE ENERGY PREDICTED BY IDOCK:   -8.24 KCAL/MOL
REMARK 923 INTER-LIGAND FREE ENERGY PREDICTED BY IDOCK:   -7.26 KCAL/MOL
REMARK 924 INTRA-LIGAND FREE ENERGY PREDICTED BY IDOCK:   -0.97 KCAL/MOL
REMARK 927      BINDING AFFINITY PREDICTED BY RF-SCORE:    0.00 PKD
ROOT
HETATM    1  C   UNL     1     -11.982  14.147  64.522  1.00  0.00    -0.458 C  
HETATM    2  C   UNL     1     -12.259  13.322  63.248  1.00  0.00    -0.387 C  
HETATM    3  C   UNL     1     -11.148  12.271  63.233  1.00  0.00    -0.389 C  
HETATM    4  C   UNL     1     -10.306  12.580  64.489  1.00  0.00    -0.336 C  
HETATM    5  C   UNL     1     -10.764  11.822  65.780  1.00  0.00    -0.328 C  
HETATM    6  N   UNL     1     -10.527  14.029  64.556  1.00  0.00    -0.376 NA 
HETATM    7  C   UNL     1      -9.867  14.750  65.612  1.00  0.00    -0.327 C  
HETATM    8  C   UNL     1     -11.860  12.513  66.641  1.00  0.00    -0.352 C  
HETATM    9  C   UNL     1     -12.644  13.617  65.836  1.00  0.00    -0.478 C  
ENDROOT
BRANCH   8  10
HETATM   10  S   UNL     1     -11.705  12.645  68.763  1.00  0.00    -0.319 SA 
BRANCH  10  11
HETATM   11  C   UNL     1     -10.921  11.123  69.540  1.00  0.00    -0.220 C  
BRANCH  11  12
HETATM   12  C   UNL     1     -11.650   9.918  70.438  1.00  0.00    -0.282 C  
HETATM   13  O   UNL     1     -12.660  10.269  71.063  1.00  0.00    -0.329 OA 
BRANCH  12  14
HETATM   14  O   UNL     1     -11.234   8.599  70.586  1.00  0.00    -0.251 OA 
BRANCH  14  15
HETATM   15  C   UNL     1      -9.899   7.997  69.900  1.00  0.00    -0.186 C  
HETATM   16  C   UNL     1     -10.639   6.983  68.883  1.00  0.00    -0.233 C  
HETATM   17  C   UNL     1      -9.873   6.247  67.753  1.00  0.00    -0.130 C  
HETATM   18  C   UNL     1      -5.844   6.369  69.062  1.00  0.00    -0.021 C  
HETATM   19  C   UNL     1     -10.701   5.617  66.605  1.00  0.00    -0.339 C  
HETATM   20  C   UNL     1      -9.239   5.017  68.475  1.00  0.00    -0.120 C  
HETATM   21  O   UNL     1      -9.910   3.765  68.349  1.00  0.00    -0.081 OA 
HETATM   22  C   UNL     1      -7.755   4.914  68.237  1.00  0.00    -0.082 C  
HETATM   23  C   UNL     1      -6.093   7.893  69.157  1.00  0.00    -0.035 C  
HETATM   24  C   UNL     1      -6.962   5.388  69.527  1.00  0.00    -0.062 C  
HETATM   25  C   UNL     1      -7.335   3.558  67.612  1.00  0.00    -0.059 C  
HETATM   26  H   UNL     1      -9.525   3.018  68.789  1.00  0.00     0.000 HD 
HETATM   27  C   UNL     1      -6.370   4.085  70.152  1.00  0.00    -0.027 C  
HETATM   28  C   UNL     1      -5.908   4.420  71.535  1.00  0.00    -0.016 C  
HETATM   29  C   UNL     1      -6.898   5.478  71.939  1.00  0.00    -0.063 C  
HETATM   30  C   UNL     1      -7.790   6.010  70.754  1.00  0.00    -0.103 C  
HETATM   31  O   UNL     1      -7.046   5.732  73.110  1.00  0.00    -0.083 OA 
HETATM   32  C   UNL     1      -8.312   7.572  70.748  1.00  0.00    -0.118 C  
HETATM   33  C   UNL     1      -8.245   8.040  72.260  1.00  0.00    -0.186 C  
HETATM   34  C   UNL     1      -7.095   8.462  70.184  1.00  0.00    -0.043 C  
HETATM   35  C   UNL     1      -7.520   9.936  69.983  1.00  0.00    -0.173 C  
BRANCH  17  36
HETATM   36  C   UNL     1      -8.977   7.327  67.131  1.00  0.00    -0.132 C  
HETATM   37  C   UNL     1      -8.408   7.352  65.917  1.00  0.00    -0.140 C  
ENDBRANCH  17  36
ENDBRANCH  14  15
ENDBRANCH  12  14
ENDBRANCH  11  12
ENDBRANCH  10  11
ENDBRANCH   8  10
TORSDOF 6
ENDMDL
MODEL       66
REMARK 921   NORMALIZED FREE ENERGY PREDICTED BY IDOCK:   -4.78 KCAL/MOL
REMARK 922        TOTAL FREE ENERGY PREDICTED BY IDOCK:   -8.21 KCAL/MOL
REMARK 923 INTER-LIGAND FREE ENERGY PREDICTED BY IDOCK:   -7.39 KCAL/MOL
REMARK 924 INTRA-LIGAND FREE ENERGY PREDICTED BY IDOCK:   -0.83 KCAL/MOL
REMARK 927      BINDING AFFINITY PREDICTED BY RF-SCORE:    0.00 PKD
ROOT
HETATM    1  C   UNL     1      -9.937  14.131  65.231  1.00  0.00    -0.264 C  
HETATM    2  C   UNL     1     -10.698  15.457  65.026  1.00  0.00    -0.460 C  
HETATM    3  C   UNL     1     -12.078  15.025  64.530  1.00  0.00    -0.373 C  
HETATM    4  C   UNL     1     -12.002  13.485  64.470  1.00  0.00    -0.410 C  
HETATM    5  C   UNL     1     -12.444  12.762  65.787  1.00  0.00    -0.253 C  
HETATM    6  N   UNL     1     -10.572  13.342  64.179  1.00  0.00    -0.383 NA 
HETATM    7  C   UNL     1     -10.062  12.007  64.009  1.00  0.00    -0.335 C  
HETATM    8  C   UNL     1     -11.340  12.533  66.859  1.00  0.00    -0.326 C  
HETATM    9  C   UNL     1     -10.090  13.466  66.638  1.00  0.00    -0.275 C  
ENDROOT
BRANCH   8  10
HETATM   10  S   UNL     1     -11.115  10.664  67.859  1.00  0.00    -0.309 SA 
BRANCH  10  11
HETATM   11  C   UNL     1     -10.762   9.239  66.686  1.00  0.00     0.004 C  
BRANCH  11  12
HETATM   12  C   UNL     1     -10.237   7.695  67.048  1.00  0.00    -0.300 C  
HETATM   13  O   UNL     1     -11.120   6.825  67.033  1.00  0.00    -0.403 OA 
BRANCH  12  14
HETATM   14  O   UNL     1      -8.951   7.293  67.392  1.00  0.00    -0.122 OA 
BRANCH  14  15
HETATM   15  C   UNL     1      -8.581   6.574  68.793  1.00  0.00    -0.121 C  
HETATM   16  C   UNL     1      -8.297   5.102  68.191  1.00  0.00    -0.097 C  
HETATM   17  C   UNL     1      -7.661   3.973  69.044  1.00  0.00    -0.054 C  
HETATM   18  C   UNL     1      -8.414   5.213  73.025  1.00  0.00    -0.111 C  
HETATM   19  C   UNL     1      -7.072   2.746  68.303  1.00  0.00    -0.049 C  
HETATM   20  C   UNL     1      -8.868   3.385  69.839  1.00  0.00    -0.091 C  
HETATM   21  O   UNL     1      -9.461   2.188  69.342  1.00  0.00    -0.115 OA 
HETATM   22  C   UNL     1      -8.610   3.340  71.323  1.00  0.00    -0.105 C  
HETATM   23  C   UNL     1      -7.721   6.521  72.576  1.00  0.00    -0.099 C  
HETATM   24  C   UNL     1      -9.403   4.505  72.051  1.00  0.00    -0.184 C  
HETATM   25  C   UNL     1      -8.751   1.914  71.919  1.00  0.00    -0.088 C  
HETATM   26  H   UNL     1     -10.196   1.831  69.826  1.00  0.00     0.000 HD 
HETATM   27  C   UNL     1     -10.568   3.800  72.815  1.00  0.00    -0.198 C  
HETATM   28  C   UNL     1     -11.536   4.861  73.233  1.00  0.00    -0.359 C  
HETATM   29  C   UNL     1     -11.403   5.855  72.113  1.00  0.00    -0.288 C  
HETATM   30  C   UNL     1     -10.184   5.582  71.152  1.00  0.00    -0.285 C  
HETATM   31  O   UNL     1     -12.279   6.667  71.936  1.00  0.00    -0.336 OA 
HETATM   32  C   UNL     1      -9.406   6.838  70.425  1.00  0.00    -0.163 C  
HETATM   33  C   UNL     1     -10.445   8.034  70.436  1.00  0.00    -0.218 C  
HETATM   34  C   UNL     1      -8.373   7.428  71.510  1.00  0.00    -0.109 C  
HETATM   35  C   UNL     1      -7.467   8.520  70.890  1.00  0.00    -0.074 C  
BRANCH  17  36
HETATM   36  C   UNL     1      -6.504   4.658  69.785  1.00  0.00    -0.032 C  
HETATM   37  C   UNL     1      -5.257   4.211  69.994  1.00  0.00    -0.004 C  
ENDBRANCH  17  36
ENDBRANCH  14  15
ENDBRANCH  12  14
ENDBRANCH  11  12
ENDBRANCH  10  11
ENDBRANCH   8  10
TORSDOF 6
ENDMDL
MODEL       67
REMARK 921   NORMALIZED FREE ENERGY PREDICTED BY IDOCK:   -4.76 KCAL/MOL
REMARK 922        TOTAL FREE ENERGY PREDICTED BY IDOCK:   -8.19 KCAL/MOL
REMARK 923 INTER-LIGAND FREE ENERGY PREDICTED BY IDOCK:   -6.74 KCAL/MOL
REMARK 924 INTRA-LIGAND FREE ENERGY PREDICTED BY IDOCK:   -1.45 KCAL/MOL
REMARK 927      BINDING AFFINITY PREDICTED BY RF-SCORE:    0.00 PKD
ROOT
HETATM    1  C   UNL     1      -9.541  14.620  67.491  1.00  0.00    -0.206 C  
HETATM    2  C   UNL     1      -9.979  14.441  68.959  1.00  0.00    -0.135 C  
HETATM    3  C   UNL     1     -11.418  14.958  68.987  1.00  0.00    -0.322 C  
HETATM    4  C   UNL     1     -11.693  15.413  67.538  1.00  0.00    -0.066 C  
HETATM    5  C   UNL     1     -12.298  14.303  66.614  1.00  0.00    -0.320 C  
HETATM    6  N   UNL     1     -10.331  15.804  67.163  1.00  0.00    -0.285 NA 
HETATM    7  C   UNL     1     -10.136  16.336  65.840  1.00  0.00    -0.357 C  
HETATM    8  C   UNL     1     -11.283  13.383  65.876  1.00  0.00    -0.300 C  
HETATM    9  C   UNL     1      -9.852  13.423  66.533  1.00  0.00    -0.286 C  
ENDROOT
BRANCH   8  10
HETATM   10  S   UNL     1     -11.496  12.906  63.809  1.00  0.00    -0.446 SA 
BRANCH  10  11
HETATM   11  C   UNL     1     -10.251  11.628  63.217  1.00  0.00    -0.407 C  
BRANCH  11  12
HETATM   12  C   UNL     1      -9.646  10.303  64.034  1.00  0.00    -0.304 C  
HETATM   13  O   UNL     1      -8.787   9.655  63.419  1.00  0.00    -0.217 OA 
BRANCH  12  14
HETATM   14  O   UNL     1     -10.018   9.837  65.291  1.00  0.00    -0.318 OA 
BRANCH  14  15
HETATM   15  C   UNL     1      -9.030   9.012  66.270  1.00  0.00    -0.162 C  
HETATM   16  C   UNL     1     -10.176   8.212  67.080  1.00  0.00    -0.378 C  
HETATM   17  C   UNL     1      -9.839   7.048  68.048  1.00  0.00    -0.156 C  
HETATM   18  C   UNL     1      -5.763   7.715  68.997  1.00  0.00    -0.026 C  
HETATM   19  C   UNL     1     -10.987   6.098  68.471  1.00  0.00    -0.404 C  
HETATM   20  C   UNL     1      -9.444   7.771  69.374  1.00  0.00    -0.156 C  
HETATM   21  O   UNL     1     -10.437   7.859  70.393  1.00  0.00    -0.210 OA 
HETATM   22  C   UNL     1      -8.105   7.321  69.896  1.00  0.00    -0.127 C  
HETATM   23  C   UNL     1      -5.574   7.712  67.462  1.00  0.00    -0.035 C  
HETATM   24  C   UNL     1      -7.006   8.429  69.607  1.00  0.00    -0.048 C  
HETATM   25  C   UNL     1      -8.175   6.761  71.341  1.00  0.00    -0.111 C  
HETATM   26  H   UNL     1     -10.197   8.300  71.199  1.00  0.00     0.000 HD 
HETATM   27  C   UNL     1      -6.687   9.069  70.995  1.00  0.00    -0.087 C  
HETATM   28  C   UNL     1      -5.925  10.331  70.742  1.00  0.00    -0.086 C  
HETATM   29  C   UNL     1      -6.512  10.785  69.435  1.00  0.00    -0.076 C  
HETATM   30  C   UNL     1      -7.417   9.707  68.727  1.00  0.00    -0.075 C  
HETATM   31  O   UNL     1      -6.385  11.939  69.099  1.00  0.00    -0.075 OA 
HETATM   32  C   UNL     1      -7.495   9.643  67.083  1.00  0.00    -0.088 C  
HETATM   33  C   UNL     1      -7.049  11.080  66.588  1.00  0.00    -0.139 C  
HETATM   34  C   UNL     1      -6.199   8.825  66.592  1.00  0.00    -0.058 C  
HETATM   35  C   UNL     1      -6.241   8.562  65.068  1.00  0.00    -0.060 C  
BRANCH  17  36
HETATM   36  C   UNL     1      -8.805   6.205  67.288  1.00  0.00    -0.107 C  
HETATM   37  C   UNL     1      -8.593   4.882  67.346  1.00  0.00    -0.104 C  
ENDBRANCH  17  36
ENDBRANCH  14  15
ENDBRANCH  12  14
ENDBRANCH  11  12
ENDBRANCH  10  11
ENDBRANCH   8  10
TORSDOF 6
ENDMDL
MODEL       68
REMARK 921   NORMALIZED FREE ENERGY PREDICTED BY IDOCK:   -4.75 KCAL/MOL
REMARK 922        TOTAL FREE ENERGY PREDICTED BY IDOCK:   -8.17 KCAL/MOL
REMARK 923 INTER-LIGAND FREE ENERGY PREDICTED BY IDOCK:   -7.05 KCAL/MOL
REMARK 924 INTRA-LIGAND FREE ENERGY PREDICTED BY IDOCK:   -1.13 KCAL/MOL
REMARK 927      BINDING AFFINITY PREDICTED BY RF-SCORE:    0.00 PKD
ROOT
HETATM    1  C   UNL     1     -10.616  14.602  67.040  1.00  0.00    -0.280 C  
HETATM    2  C   UNL     1     -10.510  14.766  68.570  1.00  0.00    -0.249 C  
HETATM    3  C   UNL     1     -11.439  13.688  69.129  1.00  0.00    -0.346 C  
HETATM    4  C   UNL     1     -12.023  12.996  67.880  1.00  0.00    -0.291 C  
HETATM    5  C   UNL     1     -11.195  11.769  67.371  1.00  0.00    -0.357 C  
HETATM    6  N   UNL     1     -11.998  14.137  66.959  1.00  0.00    -0.428 NA 
HETATM    7  C   UNL     1     -12.507  13.926  65.630  1.00  0.00    -0.505 C  
HETATM    8  C   UNL     1     -10.046  12.073  66.366  1.00  0.00    -0.218 C  
HETATM    9  C   UNL     1      -9.617  13.589  66.390  1.00  0.00    -0.268 C  
ENDROOT
BRANCH   8  10
HETATM   10  S   UNL     1      -9.754  10.908  64.606  1.00  0.00    -0.306 SA 
BRANCH  10  11
HETATM   11  C   UNL     1      -8.555   9.482  64.857  1.00  0.00    -0.172 C  
BRANCH  11  12
HETATM   12  C   UNL     1      -8.228   8.628  66.255  1.00  0.00    -0.116 C  
HETATM   13  O   UNL     1      -7.083   8.778  66.704  1.00  0.00    -0.078 OA 
BRANCH  12  14
HETATM   14  O   UNL     1      -9.071   7.757  66.936  1.00  0.00    -0.132 OA 
BRANCH  14  15
HETATM   15  C   UNL     1      -8.788   7.226  68.438  1.00  0.00    -0.128 C  
HETATM   16  C   UNL     1      -8.329   5.730  68.035  1.00  0.00    -0.103 C  
HETATM   17  C   UNL     1      -7.694   4.759  69.065  1.00  0.00    -0.071 C  
HETATM   18  C   UNL     1      -8.939   6.340  72.795  1.00  0.00    -0.125 C  
HETATM   19  C   UNL     1      -6.938   3.519  68.525  1.00  0.00    -0.050 C  
HETATM   20  C   UNL     1      -8.924   4.153  69.809  1.00  0.00    -0.096 C  
HETATM   21  O   UNL     1      -9.368   2.861  69.399  1.00  0.00    -0.135 OA 
HETATM   22  C   UNL     1      -8.813   4.287  71.306  1.00  0.00    -0.150 C  
HETATM   23  C   UNL     1      -8.310   7.650  72.264  1.00  0.00    -0.135 C  
HETATM   24  C   UNL     1      -9.765   5.447  71.821  1.00  0.00    -0.206 C  
HETATM   25  C   UNL     1      -8.900   2.926  72.044  1.00  0.00    -0.119 C  
HETATM   26  H   UNL     1     -10.116   2.493  69.852  1.00  0.00     0.000 HD 
HETATM   27  C   UNL     1     -10.941   4.725  72.552  1.00  0.00    -0.171 C  
HETATM   28  C   UNL     1     -12.028   5.732  72.757  1.00  0.00    -0.070 C  
HETATM   29  C   UNL     1     -11.863   6.610  71.547  1.00  0.00    -0.337 C  
HETATM   30  C   UNL     1     -10.536   6.348  70.739  1.00  0.00    -0.270 C  
HETATM   31  O   UNL     1     -12.779   7.317  71.201  1.00  0.00    -0.350 OA 
HETATM   32  C   UNL     1      -9.791   7.586  69.948  1.00  0.00    -0.187 C  
HETATM   33  C   UNL     1     -10.917   8.678  69.728  1.00  0.00    -0.132 C  
HETATM   34  C   UNL     1      -8.922   8.377  71.047  1.00  0.00    -0.199 C  
HETATM   35  C   UNL     1      -8.049   9.475  70.393  1.00  0.00    -0.209 C  
BRANCH  17  36
HETATM   36  C   UNL     1      -6.675   5.620  69.825  1.00  0.00    -0.052 C  
HETATM   37  C   UNL     1      -5.347   5.464  69.921  1.00  0.00    -0.004 C  
ENDBRANCH  17  36
ENDBRANCH  14  15
ENDBRANCH  12  14
ENDBRANCH  11  12
ENDBRANCH  10  11
ENDBRANCH   8  10
TORSDOF 6
ENDMDL
MODEL       69
REMARK 921   NORMALIZED FREE ENERGY PREDICTED BY IDOCK:   -4.74 KCAL/MOL
REMARK 922        TOTAL FREE ENERGY PREDICTED BY IDOCK:   -8.16 KCAL/MOL
REMARK 923 INTER-LIGAND FREE ENERGY PREDICTED BY IDOCK:   -7.24 KCAL/MOL
REMARK 924 INTRA-LIGAND FREE ENERGY PREDICTED BY IDOCK:   -0.92 KCAL/MOL
REMARK 927      BINDING AFFINITY PREDICTED BY RF-SCORE:    0.00 PKD
ROOT
HETATM    1  C   UNL     1     -10.754   3.131  73.080  1.00  0.00    -0.122 C  
HETATM    2  C   UNL     1     -10.147   2.331  74.251  1.00  0.00    -0.163 C  
HETATM    3  C   UNL     1      -8.711   2.846  74.353  1.00  0.00    -0.082 C  
HETATM    4  C   UNL     1      -8.593   3.889  73.222  1.00  0.00    -0.091 C  
HETATM    5  C   UNL     1      -8.959   5.350  73.647  1.00  0.00    -0.124 C  
HETATM    6  N   UNL     1      -9.547   3.302  72.275  1.00  0.00    -0.127 NA 
HETATM    7  C   UNL     1      -9.729   3.975  71.016  1.00  0.00    -0.182 C  
HETATM    8  C   UNL     1     -10.458   5.753  73.533  1.00  0.00    -0.256 C  
HETATM    9  C   UNL     1     -11.409   4.500  73.454  1.00  0.00    -0.376 C  
ENDROOT
BRANCH   8  10
HETATM   10  S   UNL     1     -11.061   7.609  72.675  1.00  0.00    -0.383 SA 
BRANCH  10  11
HETATM   11  C   UNL     1     -10.921   7.634  70.801  1.00  0.00    -0.252 C  
BRANCH  11  12
HETATM   12  C   UNL     1      -9.697   8.263  69.855  1.00  0.00    -0.180 C  
HETATM   13  O   UNL     1      -9.313   7.524  68.936  1.00  0.00    -0.143 OA 
BRANCH  12  14
HETATM   14  O   UNL     1      -9.050   9.486  70.003  1.00  0.00    -0.193 OA 
BRANCH  14  15
HETATM   15  C   UNL     1      -9.021  10.629  68.859  1.00  0.00    -0.168 C  
HETATM   16  C   UNL     1      -7.542  11.192  69.180  1.00  0.00    -0.098 C  
HETATM   17  C   UNL     1      -6.821  12.195  68.241  1.00  0.00    -0.069 C  
HETATM   18  C   UNL     1     -10.000  13.923  66.033  1.00  0.00    -0.325 C  
HETATM   19  C   UNL     1      -5.292  12.377  68.407  1.00  0.00    -0.054 C  
HETATM   20  C   UNL     1      -7.410  13.579  68.655  1.00  0.00    -0.112 C  
HETATM   21  O   UNL     1      -6.630  14.388  69.532  1.00  0.00    -0.125 OA 
HETATM   22  C   UNL     1      -7.956  14.347  67.479  1.00  0.00    -0.208 C  
HETATM   23  C   UNL     1     -10.353  12.453  65.705  1.00  0.00    -0.284 C  
HETATM   24  C   UNL     1      -9.542  14.288  67.477  1.00  0.00    -0.216 C  
HETATM   25  C   UNL     1      -7.304  15.744  67.313  1.00  0.00    -0.257 C  
HETATM   26  H   UNL     1      -6.988  15.230  69.784  1.00  0.00     0.000 HD 
HETATM   27  C   UNL     1     -10.010  15.718  67.892  1.00  0.00    -0.227 C  
HETATM   28  C   UNL     1     -11.463  15.632  68.236  1.00  0.00    -0.353 C  
HETATM   29  C   UNL     1     -11.562  14.240  68.797  1.00  0.00    -0.322 C  
HETATM   30  C   UNL     1     -10.278  13.358  68.560  1.00  0.00    -0.224 C  
HETATM   31  O   UNL     1     -12.507  13.948  69.491  1.00  0.00    -0.286 OA 
HETATM   32  C   UNL     1     -10.418  11.730  68.357  1.00  0.00    -0.231 C  
HETATM   33  C   UNL     1     -11.808  11.347  69.013  1.00  0.00    -0.415 C  
HETATM   34  C   UNL     1     -10.823  11.491  66.818  1.00  0.00    -0.330 C  
HETATM   35  C   UNL     1     -10.831   9.985  66.464  1.00  0.00    -0.013 C  
BRANCH  17  36
HETATM   36  C   UNL     1      -7.065  11.641  66.830  1.00  0.00    -0.124 C  
HETATM   37  C   UNL     1      -6.437  10.637  66.201  1.00  0.00    -0.131 C  
ENDBRANCH  17  36
ENDBRANCH  14  15
ENDBRANCH  12  14
ENDBRANCH  11  12
ENDBRANCH  10  11
ENDBRANCH   8  10
TORSDOF 6
ENDMDL
MODEL       70
REMARK 921   NORMALIZED FREE ENERGY PREDICTED BY IDOCK:   -4.74 KCAL/MOL
REMARK 922        TOTAL FREE ENERGY PREDICTED BY IDOCK:   -8.16 KCAL/MOL
REMARK 923 INTER-LIGAND FREE ENERGY PREDICTED BY IDOCK:   -7.43 KCAL/MOL
REMARK 924 INTRA-LIGAND FREE ENERGY PREDICTED BY IDOCK:   -0.73 KCAL/MOL
REMARK 927      BINDING AFFINITY PREDICTED BY RF-SCORE:    0.00 PKD
ROOT
HETATM    1  C   UNL     1     -11.077  13.552  64.179  1.00  0.00    -0.278 C  
HETATM    2  C   UNL     1     -11.197  14.854  64.998  1.00  0.00    -0.408 C  
HETATM    3  C   UNL     1     -12.154  14.495  66.135  1.00  0.00    -0.300 C  
HETATM    4  C   UNL     1     -12.527  13.021  65.875  1.00  0.00    -0.256 C  
HETATM    5  C   UNL     1     -11.588  11.982  66.575  1.00  0.00    -0.384 C  
HETATM    6  N   UNL     1     -12.414  13.015  64.413  1.00  0.00    -0.602 NA 
HETATM    7  C   UNL     1     -12.719  11.784  63.731  1.00  0.00    -0.255 C  
HETATM    8  C   UNL     1     -10.319  11.548  65.785  1.00  0.00    -0.248 C  
HETATM    9  C   UNL     1      -9.957  12.560  64.633  1.00  0.00    -0.176 C  
ENDROOT
BRANCH   8  10
HETATM   10  S   UNL     1      -9.733   9.504  65.634  1.00  0.00    -0.249 SA 
BRANCH  10  11
HETATM   11  C   UNL     1     -10.605   8.394  66.876  1.00  0.00    -0.215 C  
BRANCH  11  12
HETATM   12  C   UNL     1     -10.553   6.730  67.006  1.00  0.00    -0.335 C  
HETATM   13  O   UNL     1      -9.959   6.152  66.084  1.00  0.00    -0.058 OA 
BRANCH  12  14
HETATM   14  O   UNL     1     -11.121   5.936  67.997  1.00  0.00    -0.252 OA 
BRANCH  14  15
HETATM   15  C   UNL     1     -10.419   5.645  69.425  1.00  0.00    -0.297 C  
HETATM   16  C   UNL     1     -11.061   6.898  70.218  1.00  0.00    -0.342 C  
HETATM   17  C   UNL     1     -10.938   7.047  71.757  1.00  0.00    -0.263 C  
HETATM   18  C   UNL     1      -7.609   4.605  72.712  1.00  0.00    -0.087 C  
HETATM   19  C   UNL     1     -11.891   8.038  72.470  1.00  0.00    -0.419 C  
HETATM   20  C   UNL     1      -9.525   7.679  71.956  1.00  0.00    -0.153 C  
HETATM   21  O   UNL     1      -9.461   9.087  72.171  1.00  0.00    -0.340 OA 
HETATM   22  C   UNL     1      -8.677   6.898  72.926  1.00  0.00    -0.138 C  
HETATM   23  C   UNL     1      -8.402   3.511  71.960  1.00  0.00    -0.082 C  
HETATM   24  C   UNL     1      -7.587   6.054  72.141  1.00  0.00    -0.097 C  
HETATM   25  C   UNL     1      -8.179   7.753  74.120  1.00  0.00    -0.282 C  
HETATM   26  H   UNL     1      -8.601   9.472  72.292  1.00  0.00     0.000 HD 
HETATM   27  C   UNL     1      -6.228   6.770  72.422  1.00  0.00    -0.045 C  
HETATM   28  C   UNL     1      -5.228   6.232  71.448  1.00  0.00    -0.021 C  
HETATM   29  C   UNL     1      -6.091   5.950  70.249  1.00  0.00    -0.026 C  
HETATM   30  C   UNL     1      -7.638   6.034  70.536  1.00  0.00    -0.092 C  
HETATM   31  O   UNL     1      -5.575   5.833  69.163  1.00  0.00    -0.007 OA 
HETATM   32  C   UNL     1      -8.687   5.068  69.712  1.00  0.00    -0.111 C  
HETATM   33  C   UNL     1      -7.919   4.653  68.390  1.00  0.00    -0.080 C  
HETATM   34  C   UNL     1      -8.665   3.635  70.443  1.00  0.00    -0.125 C  
HETATM   35  C   UNL     1      -9.733   2.683  69.852  1.00  0.00     0.041 C  
BRANCH  17  36
HETATM   36  C   UNL     1     -11.243   5.645  72.304  1.00  0.00    -0.317 C  
HETATM   37  C   UNL     1     -11.351   5.245  73.579  1.00  0.00    -0.134 C  
ENDBRANCH  17  36
ENDBRANCH  14  15
ENDBRANCH  12  14
ENDBRANCH  11  12
ENDBRANCH  10  11
ENDBRANCH   8  10
TORSDOF 6
ENDMDL
MODEL       71
REMARK 921   NORMALIZED FREE ENERGY PREDICTED BY IDOCK:   -4.70 KCAL/MOL
REMARK 922        TOTAL FREE ENERGY PREDICTED BY IDOCK:   -8.10 KCAL/MOL
REMARK 923 INTER-LIGAND FREE ENERGY PREDICTED BY IDOCK:   -7.11 KCAL/MOL
REMARK 924 INTRA-LIGAND FREE ENERGY PREDICTED BY IDOCK:   -0.99 KCAL/MOL
REMARK 927      BINDING AFFINITY PREDICTED BY RF-SCORE:    0.00 PKD
ROOT
HETATM    1  C   UNL     1      -9.841  15.317  68.784  1.00  0.00    -0.217 C  
HETATM    2  C   UNL     1     -10.424  16.699  69.143  1.00  0.00    -0.333 C  
HETATM    3  C   UNL     1     -10.544  17.417  67.798  1.00  0.00    -0.371 C  
HETATM    4  C   UNL     1     -10.004  16.402  66.769  1.00  0.00    -0.272 C  
HETATM    5  C   UNL     1     -11.092  15.454  66.160  1.00  0.00    -0.230 C  
HETATM    6  N   UNL     1      -9.039  15.704  67.626  1.00  0.00    -0.191 NA 
HETATM    7  C   UNL     1      -8.262  14.652  67.027  1.00  0.00    -0.157 C  
HETATM    8  C   UNL     1     -11.386  14.141  66.940  1.00  0.00    -0.331 C  
HETATM    9  C   UNL     1     -10.883  14.206  68.432  1.00  0.00    -0.266 C  
ENDROOT
BRANCH   8  10
HETATM   10  S   UNL     1     -11.556  12.260  65.951  1.00  0.00    -0.367 SA 
BRANCH  10  11
HETATM   11  C   UNL     1     -10.923  10.824  66.985  1.00  0.00    -0.227 C  
BRANCH  11  12
HETATM   12  C   UNL     1      -9.544  10.743  67.924  1.00  0.00    -0.160 C  
HETATM   13  O   UNL     1      -8.550  11.307  67.444  1.00  0.00    -0.132 OA 
BRANCH  12  14
HETATM   14  O   UNL     1      -9.382  10.094  69.144  1.00  0.00    -0.174 OA 
BRANCH  14  15
HETATM   15  C   UNL     1      -9.637   8.511  69.358  1.00  0.00    -0.170 C  
HETATM   16  C   UNL     1      -9.905   8.569  70.950  1.00  0.00    -0.234 C  
HETATM   17  C   UNL     1     -10.445   7.346  71.738  1.00  0.00    -0.221 C  
HETATM   18  C   UNL     1      -9.491   4.067  69.229  1.00  0.00    -0.260 C  
HETATM   19  C   UNL     1     -11.034   7.593  73.149  1.00  0.00    -0.411 C  
HETATM   20  C   UNL     1      -9.171   6.488  72.010  1.00  0.00    -0.147 C  
HETATM   21  O   UNL     1      -8.567   6.600  73.297  1.00  0.00    -0.120 OA 
HETATM   22  C   UNL     1      -9.334   5.059  71.561  1.00  0.00    -0.191 C  
HETATM   23  C   UNL     1     -10.257   4.875  68.156  1.00  0.00    -0.104 C  
HETATM   24  C   UNL     1      -8.540   4.818  70.209  1.00  0.00    -0.110 C  
HETATM   25  C   UNL     1      -9.105   4.035  72.703  1.00  0.00    -0.131 C  
HETATM   26  H   UNL     1      -7.791   6.078  73.462  1.00  0.00     0.000 HD 
HETATM   27  C   UNL     1      -7.305   3.947  70.602  1.00  0.00    -0.041 C  
HETATM   28  C   UNL     1      -6.351   3.975  69.450  1.00  0.00    -0.029 C  
HETATM   29  C   UNL     1      -6.589   5.350  68.890  1.00  0.00    -0.051 C  
HETATM   30  C   UNL     1      -7.855   6.076  69.484  1.00  0.00    -0.099 C  
HETATM   31  O   UNL     1      -5.756   5.848  68.171  1.00  0.00    -0.011 OA 
HETATM   32  C   UNL     1      -8.722   7.122  68.553  1.00  0.00    -0.126 C  
HETATM   33  C   UNL     1      -7.728   7.583  67.408  1.00  0.00    -0.117 C  
HETATM   34  C   UNL     1      -9.706   6.225  67.648  1.00  0.00    -0.126 C  
HETATM   35  C   UNL     1     -10.687   7.107  66.838  1.00  0.00    -0.363 C  
BRANCH  17  36
HETATM   36  C   UNL     1     -11.578   6.795  70.860  1.00  0.00    -0.403 C  
HETATM   37  C   UNL     1     -12.903   6.903  71.031  1.00  0.00    -0.220 C  
ENDBRANCH  17  36
ENDBRANCH  14  15
ENDBRANCH  12  14
ENDBRANCH  11  12
ENDBRANCH  10  11
ENDBRANCH   8  10
TORSDOF 6
ENDMDL
MODEL       72
REMARK 921   NORMALIZED FREE ENERGY PREDICTED BY IDOCK:   -4.70 KCAL/MOL
REMARK 922        TOTAL FREE ENERGY PREDICTED BY IDOCK:   -8.09 KCAL/MOL
REMARK 923 INTER-LIGAND FREE ENERGY PREDICTED BY IDOCK:   -7.20 KCAL/MOL
REMARK 924 INTRA-LIGAND FREE ENERGY PREDICTED BY IDOCK:   -0.89 KCAL/MOL
REMARK 927      BINDING AFFINITY PREDICTED BY RF-SCORE:    0.00 PKD
ROOT
HETATM    1  C   UNL     1     -11.250  13.874  64.220  1.00  0.00    -0.262 C  
HETATM    2  C   UNL     1     -11.443  14.879  65.374  1.00  0.00    -0.320 C  
HETATM    3  C   UNL     1     -12.172  14.077  66.452  1.00  0.00    -0.492 C  
HETATM    4  C   UNL     1     -12.359  12.676  65.832  1.00  0.00    -0.176 C  
HETATM    5  C   UNL     1     -11.191  11.675  66.126  1.00  0.00    -0.314 C  
HETATM    6  N   UNL     1     -12.450  13.066  64.421  1.00  0.00    -0.602 NA 
HETATM    7  C   UNL     1     -12.664  12.018  63.458  1.00  0.00    -0.443 C  
HETATM    8  C   UNL     1      -9.994  11.691  65.131  1.00  0.00    -0.259 C  
HETATM    9  C   UNL     1      -9.946  13.012  64.275  1.00  0.00    -0.085 C  
ENDROOT
BRANCH   8  10
HETATM   10  S   UNL     1      -9.145   9.891  64.367  1.00  0.00    -0.261 SA 
BRANCH  10  11
HETATM   11  C   UNL     1      -7.467   9.493  65.116  1.00  0.00    -0.109 C  
BRANCH  11  12
HETATM   12  C   UNL     1      -6.945   8.063  65.802  1.00  0.00    -0.060 C  
HETATM   13  O   UNL     1      -6.777   7.130  65.004  1.00  0.00    -0.045 OA 
BRANCH  12  14
HETATM   14  O   UNL     1      -6.715   7.799  67.149  1.00  0.00    -0.064 OA 
BRANCH  14  15
HETATM   15  C   UNL     1      -7.817   7.143  68.135  1.00  0.00    -0.118 C  
HETATM   16  C   UNL     1      -8.579   8.515  68.518  1.00  0.00    -0.138 C  
HETATM   17  C   UNL     1      -9.924   8.519  69.293  1.00  0.00    -0.195 C  
HETATM   18  C   UNL     1      -9.978   4.725  71.180  1.00  0.00    -0.273 C  
HETATM   19  C   UNL     1     -10.768   9.818  69.276  1.00  0.00    -0.246 C  
HETATM   20  C   UNL     1      -9.492   8.373  70.785  1.00  0.00    -0.169 C  
HETATM   21  O   UNL     1      -9.443   9.560  71.573  1.00  0.00    -0.279 OA 
HETATM   22  C   UNL     1     -10.198   7.237  71.479  1.00  0.00    -0.206 C  
HETATM   23  C   UNL     1      -9.749   4.191  69.746  1.00  0.00    -0.278 C  
HETATM   24  C   UNL     1      -9.215   6.003  71.644  1.00  0.00    -0.153 C  
HETATM   25  C   UNL     1     -10.977   7.689  72.741  1.00  0.00    -0.432 C  
HETATM   26  H   UNL     1      -9.180   9.471  72.481  1.00  0.00     0.000 HD 
HETATM   27  C   UNL     1      -8.865   5.951  73.164  1.00  0.00    -0.121 C  
HETATM   28  C   UNL     1      -7.693   5.036  73.324  1.00  0.00    -0.093 C  
HETATM   29  C   UNL     1      -6.951   5.262  72.035  1.00  0.00    -0.078 C  
HETATM   30  C   UNL     1      -7.764   6.078  70.960  1.00  0.00    -0.102 C  
HETATM   31  O   UNL     1      -5.785   4.955  71.962  1.00  0.00    -0.011 OA 
HETATM   32  C   UNL     1      -7.542   5.783  69.355  1.00  0.00    -0.088 C  
HETATM   33  C   UNL     1      -6.115   5.103  69.250  1.00  0.00    -0.025 C  
HETATM   34  C   UNL     1      -8.433   4.492  68.997  1.00  0.00    -0.090 C  
HETATM   35  C   UNL     1      -8.429   4.208  67.476  1.00  0.00    -0.102 C  
BRANCH  17  36
HETATM   36  C   UNL     1     -10.759   7.423  68.617  1.00  0.00    -0.134 C  
HETATM   37  C   UNL     1     -10.826   7.097  67.318  1.00  0.00    -0.382 C  
ENDBRANCH  17  36
ENDBRANCH  14  15
ENDBRANCH  12  14
ENDBRANCH  11  12
ENDBRANCH  10  11
ENDBRANCH   8  10
TORSDOF 6
ENDMDL
MODEL       73
REMARK 921   NORMALIZED FREE ENERGY PREDICTED BY IDOCK:   -4.66 KCAL/MOL
REMARK 922        TOTAL FREE ENERGY PREDICTED BY IDOCK:   -8.05 KCAL/MOL
REMARK 923 INTER-LIGAND FREE ENERGY PREDICTED BY IDOCK:   -6.95 KCAL/MOL
REMARK 924 INTRA-LIGAND FREE ENERGY PREDICTED BY IDOCK:   -1.10 KCAL/MOL
REMARK 927      BINDING AFFINITY PREDICTED BY RF-SCORE:    0.00 PKD
ROOT
HETATM    1  C   UNL     1     -10.173  14.157  65.036  1.00  0.00    -0.370 C  
HETATM    2  C   UNL     1     -11.221  15.251  64.744  1.00  0.00    -0.405 C  
HETATM    3  C   UNL     1     -12.556  14.506  64.762  1.00  0.00    -0.232 C  
HETATM    4  C   UNL     1     -12.176  13.038  65.046  1.00  0.00    -0.453 C  
HETATM    5  C   UNL     1     -12.144  12.658  66.564  1.00  0.00    -0.296 C  
HETATM    6  N   UNL     1     -10.852  13.023  64.414  1.00  0.00    -0.366 NA 
HETATM    7  C   UNL     1     -10.127  11.780  64.427  1.00  0.00    -0.282 C  
HETATM    8  C   UNL     1     -10.801  12.897  67.313  1.00  0.00    -0.255 C  
HETATM    9  C   UNL     1      -9.858  13.898  66.545  1.00  0.00    -0.296 C  
ENDROOT
BRANCH   8  10
HETATM   10  S   UNL     1      -9.968  11.434  68.621  1.00  0.00    -0.179 SA 
BRANCH  10  11
HETATM   11  C   UNL     1     -11.243  10.656  69.763  1.00  0.00    -0.297 C  
BRANCH  11  12
HETATM   12  C   UNL     1     -11.147   9.219  70.608  1.00  0.00    -0.276 C  
HETATM   13  O   UNL     1     -11.070   9.338  71.839  1.00  0.00    -0.367 OA 
BRANCH  12  14
HETATM   14  O   UNL     1     -11.110   7.928  70.089  1.00  0.00    -0.255 OA 
BRANCH  14  15
HETATM   15  C   UNL     1      -9.765   7.226  69.529  1.00  0.00    -0.158 C  
HETATM   16  C   UNL     1      -9.974   7.610  67.974  1.00  0.00    -0.208 C  
HETATM   17  C   UNL     1      -8.859   7.396  66.917  1.00  0.00    -0.140 C  
HETATM   18  C   UNL     1      -6.349   4.494  68.716  1.00  0.00    -0.033 C  
HETATM   19  C   UNL     1      -8.991   8.135  65.562  1.00  0.00    -0.082 C  
HETATM   20  C   UNL     1      -8.994   5.889  66.535  1.00  0.00    -0.131 C  
HETATM   21  O   UNL     1      -9.698   5.577  65.336  1.00  0.00    -0.366 OA 
HETATM   22  C   UNL     1      -7.689   5.146  66.660  1.00  0.00    -0.092 C  
HETATM   23  C   UNL     1      -6.312   5.495  69.895  1.00  0.00    -0.033 C  
HETATM   24  C   UNL     1      -7.695   4.250  67.970  1.00  0.00    -0.075 C  
HETATM   25  C   UNL     1      -7.255   4.458  65.340  1.00  0.00    -0.068 C  
HETATM   26  H   UNL     1      -9.781   4.659  65.104  1.00  0.00     0.000 HD 
HETATM   27  C   UNL     1      -7.822   2.778  67.465  1.00  0.00    -0.068 C  
HETATM   28  C   UNL     1      -8.172   1.928  68.645  1.00  0.00    -0.073 C  
HETATM   29  C   UNL     1      -8.994   2.878  69.472  1.00  0.00    -0.108 C  
HETATM   30  C   UNL     1      -8.936   4.374  68.981  1.00  0.00    -0.154 C  
HETATM   31  O   UNL     1      -9.729   2.436  70.323  1.00  0.00    -0.069 OA 
HETATM   32  C   UNL     1      -9.055   5.606  70.067  1.00  0.00    -0.157 C  
HETATM   33  C   UNL     1      -9.769   4.978  71.334  1.00  0.00    -0.231 C  
HETATM   34  C   UNL     1      -7.591   5.798  70.707  1.00  0.00    -0.092 C  
HETATM   35  C   UNL     1      -7.537   7.037  71.633  1.00  0.00    -0.089 C  
BRANCH  17  36
HETATM   36  C   UNL     1      -7.583   7.912  67.596  1.00  0.00    -0.109 C  
HETATM   37  C   UNL     1      -7.106   9.164  67.650  1.00  0.00    -0.082 C  
ENDBRANCH  17  36
ENDBRANCH  14  15
ENDBRANCH  12  14
ENDBRANCH  11  12
ENDBRANCH  10  11
ENDBRANCH   8  10
TORSDOF 6
ENDMDL
MODEL       74
REMARK 921   NORMALIZED FREE ENERGY PREDICTED BY IDOCK:   -4.62 KCAL/MOL
REMARK 922        TOTAL FREE ENERGY PREDICTED BY IDOCK:   -8.00 KCAL/MOL
REMARK 923 INTER-LIGAND FREE ENERGY PREDICTED BY IDOCK:   -6.72 KCAL/MOL
REMARK 924 INTRA-LIGAND FREE ENERGY PREDICTED BY IDOCK:   -1.28 KCAL/MOL
REMARK 927      BINDING AFFINITY PREDICTED BY RF-SCORE:    0.00 PKD
ROOT
HETATM    1  C   UNL     1      -9.174   7.963  66.606  1.00  0.00    -0.177 C  
HETATM    2  C   UNL     1      -8.623   8.046  68.045  1.00  0.00    -0.129 C  
HETATM    3  C   UNL     1      -7.256   8.711  67.886  1.00  0.00    -0.088 C  
HETATM    4  C   UNL     1      -7.114   8.944  66.367  1.00  0.00    -0.083 C  
HETATM    5  C   UNL     1      -7.648  10.330  65.871  1.00  0.00    -0.134 C  
HETATM    6  N   UNL     1      -7.910   7.808  65.890  1.00  0.00    -0.097 NA 
HETATM    7  C   UNL     1      -8.019   7.629  64.466  1.00  0.00    -0.130 C  
HETATM    8  C   UNL     1      -9.157  10.400  65.496  1.00  0.00    -0.177 C  
HETATM    9  C   UNL     1      -9.982   9.206  66.110  1.00  0.00    -0.338 C  
ENDROOT
BRANCH   8  10
HETATM   10  S   UNL     1      -9.828  11.356  63.713  1.00  0.00    -0.340 SA 
BRANCH  10  11
HETATM   11  C   UNL     1     -11.667  11.747  63.735  1.00  0.00    -0.400 C  
BRANCH  11  12
HETATM   12  C   UNL     1     -12.425  13.174  64.157  1.00  0.00    -0.274 C  
HETATM   13  O   UNL     1     -12.647  13.948  63.215  1.00  0.00    -0.824 OA 
BRANCH  12  14
HETATM   14  O   UNL     1     -12.796  13.596  65.430  1.00  0.00    -0.634 OA 
BRANCH  14  15
HETATM   15  C   UNL     1     -11.742  14.098  66.550  1.00  0.00    -0.397 C  
HETATM   16  C   UNL     1     -12.643  13.742  67.842  1.00  0.00     0.542 C  
HETATM   17  C   UNL     1     -12.070  13.791  69.283  1.00  0.00    -0.374 C  
HETATM   18  C   UNL     1      -8.687  16.314  68.905  1.00  0.00    -0.253 C  
HETATM   19  C   UNL     1     -12.861  13.072  70.405  1.00  0.00     0.084 C  
HETATM   20  C   UNL     1     -12.164  15.300  69.668  1.00  0.00    -0.271 C  
HETATM   21  O   UNL     1     -13.267  15.704  70.475  1.00  0.00    -0.733 OA 
HETATM   22  C   UNL     1     -10.848  15.851  70.154  1.00  0.00    -0.359 C  
HETATM   23  C   UNL     1      -8.276  15.324  67.790  1.00  0.00    -0.157 C  
HETATM   24  C   UNL     1     -10.180  16.744  69.025  1.00  0.00    -0.310 C  
HETATM   25  C   UNL     1     -10.937  16.465  71.576  1.00  0.00     0.527 C  
HETATM   26  H   UNL     1     -13.324  16.623  70.708  1.00  0.00     0.000 HD 
HETATM   27  C   UNL     1     -10.323  18.217  69.523  1.00  0.00     0.364 C  
HETATM   28  C   UNL     1     -10.025  19.113  68.363  1.00  0.00    -0.493 C  
HETATM   29  C   UNL     1     -10.526  18.293  67.207  1.00  0.00    -0.398 C  
HETATM   30  C   UNL     1     -10.874  16.802  67.579  1.00  0.00    -0.216 C  
HETATM   31  O   UNL     1     -10.765  18.837  66.155  1.00  0.00    -0.393 OA 
HETATM   32  C   UNL     1     -10.672  15.603  66.468  1.00  0.00    -0.293 C  
HETATM   33  C   UNL     1     -10.690  16.331  65.061  1.00  0.00    -0.319 C  
HETATM   34  C   UNL     1      -9.112  15.208  66.496  1.00  0.00    -0.328 C  
HETATM   35  C   UNL     1      -8.825  13.978  65.602  1.00  0.00     1.172 C  
BRANCH  17  36
HETATM   36  C   UNL     1     -10.703  13.102  69.175  1.00  0.00    -0.072 C  
HETATM   37  C   UNL     1     -10.401  11.912  68.637  1.00  0.00    -0.218 C  
ENDBRANCH  17  36
ENDBRANCH  14  15
ENDBRANCH  12  14
ENDBRANCH  11  12
ENDBRANCH  10  11
ENDBRANCH   8  10
TORSDOF 6
ENDMDL
MODEL       75
REMARK 921   NORMALIZED FREE ENERGY PREDICTED BY IDOCK:   -4.61 KCAL/MOL
REMARK 922        TOTAL FREE ENERGY PREDICTED BY IDOCK:   -7.98 KCAL/MOL
REMARK 923 INTER-LIGAND FREE ENERGY PREDICTED BY IDOCK:   -6.37 KCAL/MOL
REMARK 924 INTRA-LIGAND FREE ENERGY PREDICTED BY IDOCK:   -1.62 KCAL/MOL
REMARK 927      BINDING AFFINITY PREDICTED BY RF-SCORE:    0.00 PKD
ROOT
HETATM    1  C   UNL     1      -6.530   6.877  66.869  1.00  0.00    -0.046 C  
HETATM    2  C   UNL     1      -6.575   6.992  65.331  1.00  0.00    -0.047 C  
HETATM    3  C   UNL     1      -7.109   5.635  64.870  1.00  0.00    -0.060 C  
HETATM    4  C   UNL     1      -7.314   4.837  66.174  1.00  0.00    -0.078 C  
HETATM    5  C   UNL     1      -8.739   4.984  66.807  1.00  0.00    -0.108 C  
HETATM    6  N   UNL     1      -6.253   5.448  66.981  1.00  0.00    -0.030 NA 
HETATM    7  C   UNL     1      -6.071   4.951  68.319  1.00  0.00    -0.030 C  
HETATM    8  C   UNL     1      -8.944   6.174  67.789  1.00  0.00    -0.115 C  
HETATM    9  C   UNL     1      -7.838   7.283  67.623  1.00  0.00    -0.113 C  
ENDROOT
BRANCH   8  10
HETATM   10  S   UNL     1      -9.942   5.930  69.657  1.00  0.00    -0.195 SA 
BRANCH  10  11
HETATM   11  C   UNL     1     -10.468   7.561  70.429  1.00  0.00    -0.223 C  
BRANCH  11  12
HETATM   12  C   UNL     1      -9.513   8.746  71.116  1.00  0.00    -0.240 C  
HETATM   13  O   UNL     1      -9.729   8.962  72.317  1.00  0.00    -0.284 OA 
BRANCH  12  14
HETATM   14  O   UNL     1      -8.543   9.525  70.492  1.00  0.00    -0.213 OA 
BRANCH  14  15
HETATM   15  C   UNL     1      -8.852  10.515  69.251  1.00  0.00    -0.122 C  
HETATM   16  C   UNL     1      -7.410  11.243  69.216  1.00  0.00    -0.068 C  
HETATM   17  C   UNL     1      -6.990  12.180  68.053  1.00  0.00    -0.090 C  
HETATM   18  C   UNL     1     -10.691  13.332  66.339  1.00  0.00    -0.291 C  
HETATM   19  C   UNL     1      -5.485  12.516  67.898  1.00  0.00    -0.094 C  
HETATM   20  C   UNL     1      -7.642  13.548  68.426  1.00  0.00    -0.133 C  
HETATM   21  O   UNL     1      -6.807  14.526  69.043  1.00  0.00    -0.096 OA 
HETATM   22  C   UNL     1      -8.475  14.111  67.305  1.00  0.00    -0.228 C  
HETATM   23  C   UNL     1     -10.934  11.807  66.243  1.00  0.00    -0.346 C  
HETATM   24  C   UNL     1     -10.018  13.913  67.619  1.00  0.00    -0.237 C  
HETATM   25  C   UNL     1      -8.024  15.529  66.867  1.00  0.00    -0.264 C  
HETATM   26  H   UNL     1      -7.204  15.358  69.270  1.00  0.00     0.000 HD 
HETATM   27  C   UNL     1     -10.558  15.337  67.964  1.00  0.00    -0.261 C  
HETATM   28  C   UNL     1     -11.904  15.166  68.592  1.00  0.00    -0.329 C  
HETATM   29  C   UNL     1     -11.744  13.852  69.306  1.00  0.00    -0.334 C  
HETATM   30  C   UNL     1     -10.435  13.064  68.916  1.00  0.00    -0.110 C  
HETATM   31  O   UNL     1     -12.507  13.566  70.197  1.00  0.00    -0.290 OA 
HETATM   32  C   UNL     1     -10.430  11.417  68.918  1.00  0.00    -0.219 C  
HETATM   33  C   UNL     1     -11.625  10.997  69.869  1.00  0.00    -0.416 C  
HETATM   34  C   UNL     1     -11.081  10.954  67.521  1.00  0.00    -0.375 C  
HETATM   35  C   UNL     1     -10.988   9.420  67.337  1.00  0.00    -0.061 C  
BRANCH  17  36
HETATM   36  C   UNL     1      -7.425  11.435  66.783  1.00  0.00    -0.137 C  
HETATM   37  C   UNL     1      -6.675  10.738  65.918  1.00  0.00    -0.084 C  
ENDBRANCH  17  36
ENDBRANCH  14  15
ENDBRANCH  12  14
ENDBRANCH  11  12
ENDBRANCH  10  11
ENDBRANCH   8  10
TORSDOF 6
ENDMDL
MODEL       76
REMARK 921   NORMALIZED FREE ENERGY PREDICTED BY IDOCK:   -4.60 KCAL/MOL
REMARK 922        TOTAL FREE ENERGY PREDICTED BY IDOCK:   -7.96 KCAL/MOL
REMARK 923 INTER-LIGAND FREE ENERGY PREDICTED BY IDOCK:   -6.66 KCAL/MOL
REMARK 924 INTRA-LIGAND FREE ENERGY PREDICTED BY IDOCK:   -1.31 KCAL/MOL
REMARK 927      BINDING AFFINITY PREDICTED BY RF-SCORE:    0.00 PKD
ROOT
HETATM    1  C   UNL     1      -7.229   7.630  74.478  1.00  0.00    -0.127 C  
HETATM    2  C   UNL     1      -6.084   8.571  74.050  1.00  0.00    -0.139 C  
HETATM    3  C   UNL     1      -5.476   7.889  72.824  1.00  0.00    -0.037 C  
HETATM    4  C   UNL     1      -6.304   6.599  72.649  1.00  0.00    -0.054 C  
HETATM    5  C   UNL     1      -7.557   6.752  71.723  1.00  0.00    -0.095 C  
HETATM    6  N   UNL     1      -6.646   6.359  74.056  1.00  0.00    -0.070 NA 
HETATM    7  C   UNL     1      -7.424   5.186  74.357  1.00  0.00    -0.086 C  
HETATM    8  C   UNL     1      -8.875   7.217  72.407  1.00  0.00    -0.123 C  
HETATM    9  C   UNL     1      -8.617   7.891  73.807  1.00  0.00    -0.323 C  
ENDROOT
BRANCH   8  10
HETATM   10  S   UNL     1     -10.744   6.273  72.004  1.00  0.00    -0.238 SA 
BRANCH  10  11
HETATM   11  C   UNL     1     -11.986   7.420  71.182  1.00  0.00    -0.320 C  
BRANCH  11  12
HETATM   12  C   UNL     1     -12.072   9.086  71.253  1.00  0.00    -0.314 C  
HETATM   13  O   UNL     1     -11.930   9.571  72.384  1.00  0.00    -0.083 OA 
BRANCH  12  14
HETATM   14  O   UNL     1     -12.317   9.970  70.206  1.00  0.00    -0.190 OA 
BRANCH  14  15
HETATM   15  C   UNL     1     -11.161  10.548  69.233  1.00  0.00    -0.262 C  
HETATM   16  C   UNL     1     -12.049  11.705  68.538  1.00  0.00    -0.148 C  
HETATM   17  C   UNL     1     -11.417  12.794  67.631  1.00  0.00    -0.387 C  
HETATM   18  C   UNL     1      -7.745  11.054  66.428  1.00  0.00    -0.146 C  
HETATM   19  C   UNL     1     -12.251  14.065  67.332  1.00  0.00    -0.289 C  
HETATM   20  C   UNL     1     -11.292  12.093  66.243  1.00  0.00    -0.357 C  
HETATM   21  O   UNL     1     -12.299  12.375  65.273  1.00  0.00    -0.563 OA 
HETATM   22  C   UNL     1      -9.897  12.176  65.681  1.00  0.00    -0.256 C  
HETATM   23  C   UNL     1      -7.516  10.883  67.949  1.00  0.00    -0.090 C  
HETATM   24  C   UNL     1      -9.161  10.779  65.839  1.00  0.00    -0.214 C  
HETATM   25  C   UNL     1      -9.846  12.843  64.282  1.00  0.00     0.010 C  
HETATM   26  H   UNL     1     -12.223  11.948  64.429  1.00  0.00     0.000 HD 
HETATM   27  C   UNL     1      -9.086  10.184  64.398  1.00  0.00    -0.284 C  
HETATM   28  C   UNL     1      -8.718   8.740  64.527  1.00  0.00    -0.078 C  
HETATM   29  C   UNL     1      -9.371   8.374  65.831  1.00  0.00    -0.136 C  
HETATM   30  C   UNL     1      -9.899   9.609  66.655  1.00  0.00    -0.285 C  
HETATM   31  O   UNL     1      -9.576   7.211  66.083  1.00  0.00    -0.088 OA 
HETATM   32  C   UNL     1      -9.904   9.565  68.301  1.00  0.00    -0.174 C  
HETATM   33  C   UNL     1      -9.881   8.027  68.677  1.00  0.00    -0.182 C  
HETATM   34  C   UNL     1      -8.410   9.934  68.775  1.00  0.00    -0.116 C  
HETATM   35  C   UNL     1      -8.326  10.078  70.314  1.00  0.00     0.041 C  
BRANCH  17  36
HETATM   36  C   UNL     1     -10.159  13.241  68.389  1.00  0.00    -0.237 C  
HETATM   37  C   UNL     1      -9.828  14.467  68.820  1.00  0.00    -0.214 C  
ENDBRANCH  17  36
ENDBRANCH  14  15
ENDBRANCH  12  14
ENDBRANCH  11  12
ENDBRANCH  10  11
ENDBRANCH   8  10
TORSDOF 6
ENDMDL
MODEL       77
REMARK 921   NORMALIZED FREE ENERGY PREDICTED BY IDOCK:   -4.58 KCAL/MOL
REMARK 922        TOTAL FREE ENERGY PREDICTED BY IDOCK:   -7.94 KCAL/MOL
REMARK 923 INTER-LIGAND FREE ENERGY PREDICTED BY IDOCK:   -6.83 KCAL/MOL
REMARK 924 INTRA-LIGAND FREE ENERGY PREDICTED BY IDOCK:   -1.11 KCAL/MOL
REMARK 927      BINDING AFFINITY PREDICTED BY RF-SCORE:    0.00 PKD
ROOT
HETATM    1  C   UNL     1      -9.071   4.292  70.959  1.00  0.00    -0.123 C  
HETATM    2  C   UNL     1      -9.573   2.847  70.759  1.00  0.00    -0.195 C  
HETATM    3  C   UNL     1      -9.886   2.360  72.175  1.00  0.00    -0.221 C  
HETATM    4  C   UNL     1      -9.525   3.554  73.083  1.00  0.00    -0.106 C  
HETATM    5  C   UNL     1     -10.707   4.545  73.352  1.00  0.00    -0.320 C  
HETATM    6  N   UNL     1      -8.451   4.137  72.272  1.00  0.00    -0.102 NA 
HETATM    7  C   UNL     1      -7.790   5.305  72.791  1.00  0.00    -0.099 C  
HETATM    8  C   UNL     1     -10.898   5.697  72.324  1.00  0.00    -0.242 C  
HETATM    9  C   UNL     1     -10.172   5.404  70.957  1.00  0.00    -0.296 C  
ENDROOT
BRANCH   8  10
HETATM   10  S   UNL     1     -11.246   7.707  72.940  1.00  0.00    -0.316 SA 
BRANCH  10  11
HETATM   11  C   UNL     1     -10.520   8.976  71.757  1.00  0.00    -0.348 C  
BRANCH  11  12
HETATM   12  C   UNL     1     -11.158   9.551  70.325  1.00  0.00    -0.271 C  
HETATM   13  O   UNL     1     -11.849  10.574  70.433  1.00  0.00    -0.284 OA 
BRANCH  12  14
HETATM   14  O   UNL     1     -11.030   8.999  69.054  1.00  0.00    -0.120 OA 
BRANCH  14  15
HETATM   15  C   UNL     1      -9.899   9.452  67.990  1.00  0.00    -0.164 C  
HETATM   16  C   UNL     1     -10.820  10.479  67.149  1.00  0.00    -0.319 C  
HETATM   17  C   UNL     1     -10.224  11.437  66.085  1.00  0.00    -0.282 C  
HETATM   18  C   UNL     1      -6.529   9.614  65.090  1.00  0.00    -0.088 C  
HETATM   19  C   UNL     1     -11.089  12.634  65.618  1.00  0.00    -0.327 C  
HETATM   20  C   UNL     1     -10.100  10.545  64.810  1.00  0.00    -0.336 C  
HETATM   21  O   UNL     1     -11.125  10.663  63.826  1.00  0.00    -0.192 OA 
HETATM   22  C   UNL     1      -8.714  10.573  64.221  1.00  0.00    -0.184 C  
HETATM   23  C   UNL     1      -6.278   9.670  66.616  1.00  0.00    -0.065 C  
HETATM   24  C   UNL     1      -7.946   9.228  64.569  1.00  0.00    -0.128 C  
HETATM   25  C   UNL     1      -8.695  11.031  62.740  1.00  0.00    -0.261 C  
HETATM   26  H   UNL     1     -11.050  10.120  63.050  1.00  0.00     0.000 HD 
HETATM   27  C   UNL     1      -7.876   8.433  63.227  1.00  0.00    -0.151 C  
HETATM   28  C   UNL     1      -7.474   7.030  63.558  1.00  0.00    -0.099 C  
HETATM   29  C   UNL     1      -8.103   6.844  64.912  1.00  0.00    -0.109 C  
HETATM   30  C   UNL     1      -8.648   8.175  65.556  1.00  0.00    -0.173 C  
HETATM   31  O   UNL     1      -8.280   5.726  65.332  1.00  0.00    -0.124 OA 
HETATM   32  C   UNL     1      -8.632   8.370  67.191  1.00  0.00    -0.123 C  
HETATM   33  C   UNL     1      -8.571   6.903  67.785  1.00  0.00    -0.122 C  
HETATM   34  C   UNL     1      -7.141   8.833  67.584  1.00  0.00    -0.079 C  
HETATM   35  C   UNL     1      -7.042   9.200  69.084  1.00  0.00    -0.062 C  
BRANCH  17  36
HETATM   36  C   UNL     1      -8.966  12.014  66.751  1.00  0.00    -0.198 C  
HETATM   37  C   UNL     1      -8.798  13.207  67.338  1.00  0.00    -0.204 C  
ENDBRANCH  17  36
ENDBRANCH  14  15
ENDBRANCH  12  14
ENDBRANCH  11  12
ENDBRANCH  10  11
ENDBRANCH   8  10
TORSDOF 6
ENDMDL
MODEL       78
REMARK 921   NORMALIZED FREE ENERGY PREDICTED BY IDOCK:   -4.58 KCAL/MOL
REMARK 922        TOTAL FREE ENERGY PREDICTED BY IDOCK:   -7.94 KCAL/MOL
REMARK 923 INTER-LIGAND FREE ENERGY PREDICTED BY IDOCK:   -7.08 KCAL/MOL
REMARK 924 INTRA-LIGAND FREE ENERGY PREDICTED BY IDOCK:   -0.86 KCAL/MOL
REMARK 927      BINDING AFFINITY PREDICTED BY RF-SCORE:    0.00 PKD
ROOT
HETATM    1  C   UNL     1     -11.511  14.935  66.513  1.00  0.00    -0.286 C  
HETATM    2  C   UNL     1     -10.456  15.240  65.430  1.00  0.00    -0.422 C  
HETATM    3  C   UNL     1      -9.149  15.385  66.211  1.00  0.00    -0.355 C  
HETATM    4  C   UNL     1      -9.553  15.172  67.685  1.00  0.00    -0.206 C  
HETATM    5  C   UNL     1      -9.472  13.686  68.171  1.00  0.00    -0.217 C  
HETATM    6  N   UNL     1     -10.925  15.688  67.618  1.00  0.00    -0.317 NA 
HETATM    7  C   UNL     1     -11.687  15.699  68.839  1.00  0.00    -0.384 C  
HETATM    8  C   UNL     1     -10.739  12.811  67.949  1.00  0.00    -0.219 C  
HETATM    9  C   UNL     1     -11.709  13.425  66.870  1.00  0.00    -0.434 C  
ENDROOT
BRANCH   8  10
HETATM   10  S   UNL     1     -11.509  11.540  69.477  1.00  0.00    -0.318 SA 
BRANCH  10  11
HETATM   11  C   UNL     1     -10.624   9.884  69.573  1.00  0.00    -0.242 C  
BRANCH  11  12
HETATM   12  C   UNL     1      -8.984   9.573  69.518  1.00  0.00    -0.181 C  
HETATM   13  O   UNL     1      -8.267  10.570  69.352  1.00  0.00    -0.158 OA 
BRANCH  12  14
HETATM   14  O   UNL     1      -8.349   8.338  69.603  1.00  0.00    -0.120 OA 
BRANCH  14  15
HETATM   15  C   UNL     1      -8.647   7.254  70.765  1.00  0.00    -0.144 C  
HETATM   16  C   UNL     1      -7.204   7.336  71.487  1.00  0.00    -0.072 C  
HETATM   17  C   UNL     1      -6.930   6.663  72.857  1.00  0.00    -0.076 C  
HETATM   18  C   UNL     1      -9.975   3.729  73.132  1.00  0.00    -0.192 C  
HETATM   19  C   UNL     1      -5.675   7.109  73.648  1.00  0.00    -0.053 C  
HETATM   20  C   UNL     1      -6.631   5.177  72.487  1.00  0.00    -0.053 C  
HETATM   21  O   UNL     1      -5.263   4.781  72.420  1.00  0.00    -0.004 OA 
HETATM   22  C   UNL     1      -7.485   4.209  73.264  1.00  0.00    -0.076 C  
HETATM   23  C   UNL     1     -10.923   4.923  72.872  1.00  0.00    -0.332 C  
HETATM   24  C   UNL     1      -8.638   3.635  72.337  1.00  0.00    -0.093 C  
HETATM   25  C   UNL     1      -6.653   3.179  74.070  1.00  0.00    -0.030 C  
HETATM   26  H   UNL     1      -5.081   3.876  72.195  1.00  0.00     0.000 HD 
HETATM   27  C   UNL     1      -8.238   2.154  72.046  1.00  0.00    -0.053 C  
HETATM   28  C   UNL     1      -9.093   1.672  70.918  1.00  0.00    -0.140 C  
HETATM   29  C   UNL     1      -9.286   2.932  70.120  1.00  0.00    -0.142 C  
HETATM   30  C   UNL     1      -8.811   4.240  70.860  1.00  0.00    -0.142 C  
HETATM   31  O   UNL     1      -9.632   2.854  68.966  1.00  0.00    -0.141 OA 
HETATM   32  C   UNL     1      -9.583   5.670  70.590  1.00  0.00    -0.213 C  
HETATM   33  C   UNL     1     -10.301   5.498  69.189  1.00  0.00    -0.318 C  
HETATM   34  C   UNL     1     -10.898   5.665  71.519  1.00  0.00    -0.297 C  
HETATM   35  C   UNL     1     -11.627   7.029  71.470  1.00  0.00    -0.322 C  
BRANCH  17  36
HETATM   36  C   UNL     1      -8.157   7.018  73.710  1.00  0.00    -0.138 C  
HETATM   37  C   UNL     1      -8.481   8.192  74.269  1.00  0.00    -0.192 C  
ENDBRANCH  17  36
ENDBRANCH  14  15
ENDBRANCH  12  14
ENDBRANCH  11  12
ENDBRANCH  10  11
ENDBRANCH   8  10
TORSDOF 6
ENDMDL
MODEL       79
REMARK 921   NORMALIZED FREE ENERGY PREDICTED BY IDOCK:   -4.53 KCAL/MOL
REMARK 922        TOTAL FREE ENERGY PREDICTED BY IDOCK:   -7.87 KCAL/MOL
REMARK 923 INTER-LIGAND FREE ENERGY PREDICTED BY IDOCK:   -6.96 KCAL/MOL
REMARK 924 INTRA-LIGAND FREE ENERGY PREDICTED BY IDOCK:   -0.91 KCAL/MOL
REMARK 927      BINDING AFFINITY PREDICTED BY RF-SCORE:    0.00 PKD
ROOT
HETATM    1  C   UNL     1     -10.202  18.298  67.677  1.00  0.00    -0.382 C  
HETATM    2  C   UNL     1      -9.101  19.376  67.585  1.00  0.00    -0.362 C  
HETATM    3  C   UNL     1      -7.806  18.614  67.869  1.00  0.00    -0.275 C  
HETATM    4  C   UNL     1      -8.259  17.160  68.119  1.00  0.00    -0.224 C  
HETATM    5  C   UNL     1      -8.298  16.263  66.837  1.00  0.00    -0.267 C  
HETATM    6  N   UNL     1      -9.587  17.432  68.679  1.00  0.00    -0.289 NA 
HETATM    7  C   UNL     1     -10.375  16.301  69.093  1.00  0.00    -0.272 C  
HETATM    8  C   UNL     1      -9.621  16.278  66.017  1.00  0.00    -0.337 C  
HETATM    9  C   UNL     1     -10.517  17.530  66.351  1.00  0.00    -0.277 C  
ENDROOT
BRANCH   8  10
HETATM   10  S   UNL     1     -10.517  14.483  65.297  1.00  0.00    -0.414 SA 
BRANCH  10  11
HETATM   11  C   UNL     1     -10.404  13.061  66.521  1.00  0.00    -0.274 C  
BRANCH  11  12
HETATM   12  C   UNL     1      -9.919  11.487  66.248  1.00  0.00    -0.220 C  
HETATM   13  O   UNL     1      -9.207  11.324  65.247  1.00  0.00    -0.218 OA 
BRANCH  12  14
HETATM   14  O   UNL     1     -10.249  10.355  66.987  1.00  0.00    -0.205 OA 
BRANCH  14  15
HETATM   15  C   UNL     1      -9.214   9.150  67.291  1.00  0.00    -0.133 C  
HETATM   16  C   UNL     1     -10.250   7.934  67.048  1.00  0.00    -0.382 C  
HETATM   17  C   UNL     1      -9.782   6.457  66.972  1.00  0.00    -0.182 C  
HETATM   18  C   UNL     1      -6.030   6.517  68.942  1.00  0.00    -0.022 C  
HETATM   19  C   UNL     1     -10.753   5.417  66.359  1.00  0.00    -0.284 C  
HETATM   20  C   UNL     1      -9.668   6.026  68.467  1.00  0.00    -0.123 C  
HETATM   21  O   UNL     1     -10.751   5.282  69.020  1.00  0.00    -0.160 OA 
HETATM   22  C   UNL     1      -8.322   5.433  68.793  1.00  0.00    -0.097 C  
HETATM   23  C   UNL     1      -5.699   7.636  67.927  1.00  0.00    -0.036 C  
HETATM   24  C   UNL     1      -7.444   6.482  69.597  1.00  0.00    -0.093 C  
HETATM   25  C   UNL     1      -8.417   4.000  69.378  1.00  0.00    -0.094 C  
HETATM   26  H   UNL     1     -10.682   5.021  69.930  1.00  0.00     0.000 HD 
HETATM   27  C   UNL     1      -7.393   5.944  71.062  1.00  0.00    -0.082 C  
HETATM   28  C   UNL     1      -6.876   7.048  71.928  1.00  0.00    -0.060 C  
HETATM   29  C   UNL     1      -7.414   8.264  71.225  1.00  0.00    -0.081 C  
HETATM   30  C   UNL     1      -8.015   7.969  69.798  1.00  0.00    -0.115 C  
HETATM   31  O   UNL     1      -7.489   9.309  71.826  1.00  0.00    -0.335 OA 
HETATM   32  C   UNL     1      -7.921   9.106  68.610  1.00  0.00    -0.101 C  
HETATM   33  C   UNL     1      -7.724  10.484  69.366  1.00  0.00    -0.157 C  
HETATM   34  C   UNL     1      -6.447   8.986  67.975  1.00  0.00    -0.060 C  
HETATM   35  C   UNL     1      -6.290   9.902  66.738  1.00  0.00    -0.065 C  
BRANCH  17  36
HETATM   36  C   UNL     1      -8.533   6.497  66.080  1.00  0.00    -0.145 C  
HETATM   37  C   UNL     1      -8.186   5.672  65.081  1.00  0.00    -0.136 C  
ENDBRANCH  17  36
ENDBRANCH  14  15
ENDBRANCH  12  14
ENDBRANCH  11  12
ENDBRANCH  10  11
ENDBRANCH   8  10
TORSDOF 6
ENDMDL
MODEL       80
REMARK 921   NORMALIZED FREE ENERGY PREDICTED BY IDOCK:   -4.52 KCAL/MOL
REMARK 922        TOTAL FREE ENERGY PREDICTED BY IDOCK:   -7.85 KCAL/MOL
REMARK 923 INTER-LIGAND FREE ENERGY PREDICTED BY IDOCK:   -6.89 KCAL/MOL
REMARK 924 INTRA-LIGAND FREE ENERGY PREDICTED BY IDOCK:   -0.96 KCAL/MOL
REMARK 927      BINDING AFFINITY PREDICTED BY RF-SCORE:    0.00 PKD
ROOT
HETATM    1  C   UNL     1      -7.572   7.733  74.246  1.00  0.00    -0.169 C  
HETATM    2  C   UNL     1      -6.533   8.831  74.555  1.00  0.00    -0.147 C  
HETATM    3  C   UNL     1      -5.415   8.585  73.542  1.00  0.00    -0.081 C  
HETATM    4  C   UNL     1      -5.885   7.354  72.739  1.00  0.00    -0.040 C  
HETATM    5  C   UNL     1      -6.725   7.694  71.462  1.00  0.00    -0.045 C  
HETATM    6  N   UNL     1      -6.664   6.686  73.787  1.00  0.00    -0.072 NA 
HETATM    7  C   UNL     1      -7.280   5.429  73.454  1.00  0.00    -0.087 C  
HETATM    8  C   UNL     1      -8.260   7.849  71.661  1.00  0.00    -0.115 C  
HETATM    9  C   UNL     1      -8.647   8.092  73.168  1.00  0.00    -0.299 C  
ENDROOT
BRANCH   8  10
HETATM   10  S   UNL     1      -9.662   6.948  70.331  1.00  0.00    -0.171 SA 
BRANCH  10  11
HETATM   11  C   UNL     1     -10.872   8.182  69.591  1.00  0.00    -0.158 C  
BRANCH  11  12
HETATM   12  C   UNL     1     -11.237   9.726  70.112  1.00  0.00    -0.272 C  
HETATM   13  O   UNL     1     -11.128   9.906  71.333  1.00  0.00    -0.325 OA 
BRANCH  12  14
HETATM   14  O   UNL     1     -11.674  10.801  69.345  1.00  0.00    -0.277 OA 
BRANCH  14  15
HETATM   15  C   UNL     1     -10.691  11.725  68.452  1.00  0.00    -0.219 C  
HETATM   16  C   UNL     1      -9.306  11.020  68.892  1.00  0.00    -0.155 C  
HETATM   17  C   UNL     1      -7.963  11.328  68.178  1.00  0.00    -0.131 C  
HETATM   18  C   UNL     1      -8.675  15.076  66.333  1.00  0.00    -0.169 C  
HETATM   19  C   UNL     1      -6.785  10.345  68.390  1.00  0.00    -0.060 C  
HETATM   20  C   UNL     1      -7.477  12.647  68.855  1.00  0.00     0.018 C  
HETATM   21  O   UNL     1      -6.495  12.533  69.883  1.00  0.00    -0.310 OA 
HETATM   22  C   UNL     1      -7.155  13.723  67.851  1.00  0.00    -0.161 C  
HETATM   23  C   UNL     1      -9.896  14.356  65.715  1.00  0.00    -0.330 C  
HETATM   24  C   UNL     1      -8.312  14.809  67.825  1.00  0.00    -0.166 C  
HETATM   25  C   UNL     1      -5.700  14.248  67.973  1.00  0.00    -0.135 C  
HETATM   26  H   UNL     1      -6.200  13.336  70.295  1.00  0.00     0.000 HD 
HETATM   27  C   UNL     1      -7.709  16.074  68.513  1.00  0.00    -0.158 C  
HETATM   28  C   UNL     1      -8.843  17.000  68.820  1.00  0.00    -0.244 C  
HETATM   29  C   UNL     1      -9.962  16.033  69.092  1.00  0.00    -0.246 C  
HETATM   30  C   UNL     1      -9.635  14.544  68.694  1.00  0.00    -0.219 C  
HETATM   31  O   UNL     1     -10.932  16.409  69.705  1.00  0.00    -0.338 OA 
HETATM   32  C   UNL     1     -10.835  13.545  68.169  1.00  0.00    -0.271 C  
HETATM   33  C   UNL     1     -12.177  14.179  68.723  1.00  0.00    -0.234 C  
HETATM   34  C   UNL     1     -11.059  13.875  66.610  1.00  0.00    -0.310 C  
HETATM   35  C   UNL     1     -12.060  12.887  65.962  1.00  0.00    -0.484 C  
BRANCH  17  36
HETATM   36  C   UNL     1      -8.311  11.308  66.683  1.00  0.00    -0.163 C  
HETATM   37  C   UNL     1      -7.923  10.436  65.741  1.00  0.00    -0.152 C  
ENDBRANCH  17  36
ENDBRANCH  14  15
ENDBRANCH  12  14
ENDBRANCH  11  12
ENDBRANCH  10  11
ENDBRANCH   8  10
TORSDOF 6
ENDMDL
MODEL       81
REMARK 921   NORMALIZED FREE ENERGY PREDICTED BY IDOCK:   -4.51 KCAL/MOL
REMARK 922        TOTAL FREE ENERGY PREDICTED BY IDOCK:   -7.84 KCAL/MOL
REMARK 923 INTER-LIGAND FREE ENERGY PREDICTED BY IDOCK:   -6.86 KCAL/MOL
REMARK 924 INTRA-LIGAND FREE ENERGY PREDICTED BY IDOCK:   -0.99 KCAL/MOL
REMARK 927      BINDING AFFINITY PREDICTED BY RF-SCORE:    0.00 PKD
ROOT
HETATM    1  C   UNL     1      -8.575   2.900  67.306  1.00  0.00    -0.104 C  
HETATM    2  C   UNL     1      -9.409   1.861  68.084  1.00  0.00    -0.241 C  
HETATM    3  C   UNL     1      -9.499   2.435  69.498  1.00  0.00    -0.119 C  
HETATM    4  C   UNL     1      -8.697   3.751  69.433  1.00  0.00    -0.080 C  
HETATM    5  C   UNL     1      -9.548   5.011  69.058  1.00  0.00    -0.214 C  
HETATM    6  N   UNL     1      -7.729   3.373  68.398  1.00  0.00    -0.056 NA 
HETATM    7  C   UNL     1      -6.733   4.347  68.037  1.00  0.00    -0.047 C  
HETATM    8  C   UNL     1      -9.707   5.316  67.540  1.00  0.00    -0.146 C  
HETATM    9  C   UNL     1      -9.382   4.063  66.641  1.00  0.00    -0.197 C  
ENDROOT
BRANCH   8  10
HETATM   10  S   UNL     1      -9.467   7.284  66.757  1.00  0.00    -0.176 SA 
BRANCH  10  11
HETATM   11  C   UNL     1     -10.654   8.528  67.517  1.00  0.00    -0.214 C  
BRANCH  11  12
HETATM   12  C   UNL     1     -10.661   9.152  69.066  1.00  0.00    -0.199 C  
HETATM   13  O   UNL     1     -10.836   8.318  69.966  1.00  0.00    -0.247 OA 
BRANCH  12  14
HETATM   14  O   UNL     1     -10.529  10.483  69.448  1.00  0.00    -0.218 OA 
BRANCH  14  15
HETATM   15  C   UNL     1      -9.944  11.639  68.480  1.00  0.00    -0.194 C  
HETATM   16  C   UNL     1      -8.387  11.456  68.871  1.00  0.00    -0.042 C  
HETATM   17  C   UNL     1      -7.252  12.159  68.082  1.00  0.00    -0.096 C  
HETATM   18  C   UNL     1      -9.241  15.372  66.162  1.00  0.00    -0.362 C  
HETATM   19  C   UNL     1      -5.806  11.634  68.265  1.00  0.00    -0.045 C  
HETATM   20  C   UNL     1      -7.209  13.594  68.694  1.00  0.00    -0.110 C  
HETATM   21  O   UNL     1      -6.208  13.859  69.674  1.00  0.00    -0.112 OA 
HETATM   22  C   UNL     1      -7.302  14.670  67.643  1.00  0.00    -0.204 C  
HETATM   23  C   UNL     1     -10.174  14.260  65.628  1.00  0.00    -0.366 C  
HETATM   24  C   UNL     1      -8.755  15.307  67.641  1.00  0.00    -0.179 C  
HETATM   25  C   UNL     1      -6.102  15.653  67.676  1.00  0.00    -0.174 C  
HETATM   26  H   UNL     1      -6.182  14.732  70.046  1.00  0.00     0.000 HD 
HETATM   27  C   UNL     1      -8.584  16.731  68.260  1.00  0.00    -0.226 C  
HETATM   28  C   UNL     1      -9.949  17.241  68.596  1.00  0.00    -0.327 C  
HETATM   29  C   UNL     1     -10.671  15.970  68.951  1.00  0.00    -0.275 C  
HETATM   30  C   UNL     1      -9.881  14.657  68.583  1.00  0.00    -0.224 C  
HETATM   31  O   UNL     1     -11.687  16.029  69.601  1.00  0.00    -0.328 OA 
HETATM   32  C   UNL     1     -10.697  13.294  68.149  1.00  0.00    -0.264 C  
HETATM   33  C   UNL     1     -12.152  13.471  68.750  1.00  0.00    -0.305 C  
HETATM   34  C   UNL     1     -11.076  13.460  66.594  1.00  0.00    -0.310 C  
HETATM   35  C   UNL     1     -11.713  12.169  66.027  1.00  0.00    -0.388 C  
BRANCH  17  36
HETATM   36  C   UNL     1      -7.628  11.957  66.607  1.00  0.00     0.039 C  
HETATM   37  C   UNL     1      -7.612  10.830  65.882  1.00  0.00    -0.106 C  
ENDBRANCH  17  36
ENDBRANCH  14  15
ENDBRANCH  12  14
ENDBRANCH  11  12
ENDBRANCH  10  11
ENDBRANCH   8  10
TORSDOF 6
ENDMDL
MODEL       82
REMARK 921   NORMALIZED FREE ENERGY PREDICTED BY IDOCK:   -4.51 KCAL/MOL
REMARK 922        TOTAL FREE ENERGY PREDICTED BY IDOCK:   -7.84 KCAL/MOL
REMARK 923 INTER-LIGAND FREE ENERGY PREDICTED BY IDOCK:   -6.88 KCAL/MOL
REMARK 924 INTRA-LIGAND FREE ENERGY PREDICTED BY IDOCK:   -0.96 KCAL/MOL
REMARK 927      BINDING AFFINITY PREDICTED BY RF-SCORE:    0.00 PKD
ROOT
HETATM    1  C   UNL     1     -10.812   6.354  72.546  1.00  0.00    -0.238 C  
HETATM    2  C   UNL     1     -11.012   5.116  73.445  1.00  0.00    -0.381 C  
HETATM    3  C   UNL     1     -10.270   3.997  72.713  1.00  0.00    -0.229 C  
HETATM    4  C   UNL     1      -9.714   4.669  71.441  1.00  0.00    -0.179 C  
HETATM    5  C   UNL     1      -8.279   5.275  71.602  1.00  0.00    -0.118 C  
HETATM    6  N   UNL     1     -10.756   5.684  71.249  1.00  0.00    -0.255 NA 
HETATM    7  C   UNL     1     -10.634   6.550  70.106  1.00  0.00    -0.227 C  
HETATM    8  C   UNL     1      -8.196   6.740  72.120  1.00  0.00    -0.104 C  
HETATM    9  C   UNL     1      -9.527   7.200  72.826  1.00  0.00    -0.176 C  
ENDROOT
BRANCH   8  10
HETATM   10  S   UNL     1      -6.913   8.181  71.215  1.00  0.00    -0.061 SA 
BRANCH  10  11
HETATM   11  C   UNL     1      -7.090   8.254  69.345  1.00  0.00    -0.055 C  
BRANCH  11  12
HETATM   12  C   UNL     1      -6.217   9.163  68.249  1.00  0.00    -0.054 C  
HETATM   13  O   UNL     1      -5.143   8.659  67.889  1.00  0.00    -0.033 OA 
BRANCH  12  14
HETATM   14  O   UNL     1      -6.540  10.414  67.733  1.00  0.00    -0.064 OA 
BRANCH  14  15
HETATM   15  C   UNL     1      -8.041  10.854  67.321  1.00  0.00    -0.123 C  
HETATM   16  C   UNL     1      -8.019  10.250  65.823  1.00  0.00    -0.144 C  
HETATM   17  C   UNL     1      -9.301  10.157  64.955  1.00  0.00    -0.310 C  
HETATM   18  C   UNL     1     -11.895  12.997  66.735  1.00  0.00    -0.451 C  
HETATM   19  C   UNL     1      -9.274   9.229  63.715  1.00  0.00     0.171 C  
HETATM   20  C   UNL     1      -9.442  11.587  64.348  1.00  0.00    -0.080 C  
HETATM   21  O   UNL     1      -8.982  11.782  63.013  1.00  0.00    -0.637 OA 
HETATM   22  C   UNL     1     -10.805  12.183  64.591  1.00  0.00    -0.351 C  
HETATM   23  C   UNL     1     -11.608  12.204  68.031  1.00  0.00    -0.411 C  
HETATM   24  C   UNL     1     -10.727  13.273  65.741  1.00  0.00    -0.286 C  
HETATM   25  C   UNL     1     -11.530  12.591  63.282  1.00  0.00    -0.409 C  
HETATM   26  H   UNL     1      -9.067  12.652  62.644  1.00  0.00     0.000 HD 
HETATM   27  C   UNL     1     -10.890  14.649  65.019  1.00  0.00    -0.431 C  
HETATM   28  C   UNL     1     -10.488  15.714  65.989  1.00  0.00    -0.343 C  
HETATM   29  C   UNL     1      -9.423  15.014  66.788  1.00  0.00    -0.246 C  
HETATM   30  C   UNL     1      -9.341  13.462  66.529  1.00  0.00    -0.225 C  
HETATM   31  O   UNL     1      -8.637  15.670  67.428  1.00  0.00    -0.161 OA 
HETATM   32  C   UNL     1      -8.884  12.444  67.740  1.00  0.00    -0.176 C  
HETATM   33  C   UNL     1      -8.081  13.348  68.764  1.00  0.00     0.043 C  
HETATM   34  C   UNL     1     -10.191  12.188  68.644  1.00  0.00    -0.186 C  
HETATM   35  C   UNL     1      -9.925  11.119  69.731  1.00  0.00     0.507 C  
BRANCH  17  36
HETATM   36  C   UNL     1     -10.372   9.612  65.911  1.00  0.00    -0.103 C  
HETATM   37  C   UNL     1     -10.269   8.630  66.818  1.00  0.00    -0.361 C  
ENDBRANCH  17  36
ENDBRANCH  14  15
ENDBRANCH  12  14
ENDBRANCH  11  12
ENDBRANCH  10  11
ENDBRANCH   8  10
TORSDOF 6
ENDMDL
MODEL       83
REMARK 921   NORMALIZED FREE ENERGY PREDICTED BY IDOCK:   -4.49 KCAL/MOL
REMARK 922        TOTAL FREE ENERGY PREDICTED BY IDOCK:   -7.81 KCAL/MOL
REMARK 923 INTER-LIGAND FREE ENERGY PREDICTED BY IDOCK:   -6.48 KCAL/MOL
REMARK 924 INTRA-LIGAND FREE ENERGY PREDICTED BY IDOCK:   -1.33 KCAL/MOL
REMARK 927      BINDING AFFINITY PREDICTED BY RF-SCORE:    0.00 PKD
ROOT
HETATM    1  C   UNL     1      -9.451  13.096  67.102  1.00  0.00    -0.239 C  
HETATM    2  C   UNL     1      -9.982  13.896  68.309  1.00  0.00    -0.238 C  
HETATM    3  C   UNL     1     -11.475  13.569  68.349  1.00  0.00    -0.346 C  
HETATM    4  C   UNL     1     -11.695  12.620  67.152  1.00  0.00    -0.371 C  
HETATM    5  C   UNL     1     -11.534  11.100  67.491  1.00  0.00    -0.296 C  
HETATM    6  N   UNL     1     -10.646  13.133  66.264  1.00  0.00    -0.280 NA 
HETATM    7  C   UNL     1     -10.518  12.518  64.969  1.00  0.00    -0.297 C  
HETATM    8  C   UNL     1     -10.097  10.512  67.383  1.00  0.00    -0.197 C  
HETATM    9  C   UNL     1      -8.989  11.632  67.402  1.00  0.00    -0.166 C  
ENDROOT
BRANCH   8  10
HETATM   10  S   UNL     1      -9.715   8.648  66.423  1.00  0.00    -0.255 SA 
BRANCH  10  11
HETATM   11  C   UNL     1     -10.766   7.243  67.098  1.00  0.00    -0.343 C  
BRANCH  11  12
HETATM   12  C   UNL     1     -10.563   5.598  66.895  1.00  0.00    -0.296 C  
HETATM   13  O   UNL     1     -10.742   5.187  65.739  1.00  0.00    -0.153 OA 
BRANCH  12  14
HETATM   14  O   UNL     1     -10.256   4.652  67.868  1.00  0.00    -0.071 OA 
BRANCH  14  15
HETATM   15  C   UNL     1      -9.351   4.967  69.171  1.00  0.00    -0.122 C  
HETATM   16  C   UNL     1     -10.567   5.330  70.172  1.00  0.00    -0.297 C  
HETATM   17  C   UNL     1     -10.350   5.513  71.697  1.00  0.00    -0.277 C  
HETATM   18  C   UNL     1      -6.202   6.328  72.004  1.00  0.00    -0.042 C  
HETATM   19  C   UNL     1     -11.594   5.469  72.618  1.00  0.00    -0.293 C  
HETATM   20  C   UNL     1      -9.841   6.982  71.825  1.00  0.00    -0.162 C  
HETATM   21  O   UNL     1     -10.792   7.975  72.201  1.00  0.00    -0.239 OA 
HETATM   22  C   UNL     1      -8.553   7.079  72.602  1.00  0.00    -0.133 C  
HETATM   23  C   UNL     1      -6.051   5.010  71.209  1.00  0.00    -0.022 C  
HETATM   24  C   UNL     1      -7.337   7.323  71.612  1.00  0.00    -0.080 C  
HETATM   25  C   UNL     1      -8.658   8.016  73.833  1.00  0.00    -0.324 C  
HETATM   26  H   UNL     1     -10.482   8.869  72.279  1.00  0.00     0.000 HD 
HETATM   27  C   UNL     1      -6.911   8.808  71.837  1.00  0.00    -0.064 C  
HETATM   28  C   UNL     1      -6.009   9.192  70.708  1.00  0.00    -0.045 C  
HETATM   29  C   UNL     1      -6.566   8.370  69.579  1.00  0.00    -0.041 C  
HETATM   30  C   UNL     1      -7.611   7.280  70.031  1.00  0.00    -0.090 C  
HETATM   31  O   UNL     1      -6.310   8.680  68.440  1.00  0.00    -0.053 OA 
HETATM   32  C   UNL     1      -7.733   5.859  69.207  1.00  0.00    -0.094 C  
HETATM   33  C   UNL     1      -7.129   6.156  67.773  1.00  0.00    -0.081 C  
HETATM   34  C   UNL     1      -6.557   4.908  69.754  1.00  0.00    -0.036 C  
HETATM   35  C   UNL     1      -6.665   3.481  69.164  1.00  0.00    -0.037 C  
BRANCH  17  36
HETATM   36  C   UNL     1      -9.443   4.341  72.098  1.00  0.00    -0.186 C  
HETATM   37  C   UNL     1      -9.787   3.132  72.564  1.00  0.00    -0.218 C  
ENDBRANCH  17  36
ENDBRANCH  14  15
ENDBRANCH  12  14
ENDBRANCH  11  12
ENDBRANCH  10  11
ENDBRANCH   8  10
TORSDOF 6
ENDMDL
MODEL       84
REMARK 921   NORMALIZED FREE ENERGY PREDICTED BY IDOCK:   -4.46 KCAL/MOL
REMARK 922        TOTAL FREE ENERGY PREDICTED BY IDOCK:   -7.77 KCAL/MOL
REMARK 923 INTER-LIGAND FREE ENERGY PREDICTED BY IDOCK:   -7.06 KCAL/MOL
REMARK 924 INTRA-LIGAND FREE ENERGY PREDICTED BY IDOCK:   -0.71 KCAL/MOL
REMARK 927      BINDING AFFINITY PREDICTED BY RF-SCORE:    0.00 PKD
ROOT
HETATM    1  C   UNL     1     -10.483  16.560  66.617  1.00  0.00    -0.266 C  
HETATM    2  C   UNL     1      -9.499  17.747  66.547  1.00  0.00    -0.300 C  
HETATM    3  C   UNL     1      -8.626  17.584  67.791  1.00  0.00    -0.230 C  
HETATM    4  C   UNL     1      -9.183  16.327  68.493  1.00  0.00    -0.211 C  
HETATM    5  C   UNL     1      -8.504  14.986  68.057  1.00  0.00    -0.149 C  
HETATM    6  N   UNL     1     -10.583  16.435  68.068  1.00  0.00    -0.303 NA 
HETATM    7  C   UNL     1     -11.498  15.433  68.546  1.00  0.00    -0.350 C  
HETATM    8  C   UNL     1      -9.113  14.268  66.818  1.00  0.00    -0.249 C  
HETATM    9  C   UNL     1     -10.001  15.233  65.945  1.00  0.00    -0.368 C  
ENDROOT
BRANCH   8  10
HETATM   10  S   UNL     1      -9.484  12.169  66.805  1.00  0.00    -0.216 SA 
BRANCH  10  11
HETATM   11  C   UNL     1      -9.744  11.457  68.525  1.00  0.00    -0.197 C  
BRANCH  11  12
HETATM   12  C   UNL     1     -11.001  10.511  69.083  1.00  0.00    -0.240 C  
HETATM   13  O   UNL     1     -12.062  10.623  68.452  1.00  0.00    -0.423 OA 
BRANCH  12  14
HETATM   14  O   UNL     1     -11.000   9.654  70.179  1.00  0.00    -0.242 OA 
BRANCH  14  15
HETATM   15  C   UNL     1      -9.940   8.447  70.372  1.00  0.00    -0.185 C  
HETATM   16  C   UNL     1      -9.876   7.991  68.824  1.00  0.00    -0.176 C  
HETATM   17  C   UNL     1      -8.822   6.977  68.307  1.00  0.00    -0.126 C  
HETATM   18  C   UNL     1      -7.626   4.935  71.823  1.00  0.00    -0.096 C  
HETATM   19  C   UNL     1      -8.579   6.895  66.780  1.00  0.00    -0.120 C  
HETATM   20  C   UNL     1      -9.438   5.588  68.663  1.00  0.00    -0.129 C  
HETATM   21  O   UNL     1     -10.107   4.881  67.621  1.00  0.00    -0.162 OA 
HETATM   22  C   UNL     1      -8.486   4.720  69.444  1.00  0.00    -0.091 C  
HETATM   23  C   UNL     1      -7.341   6.359  72.357  1.00  0.00    -0.088 C  
HETATM   24  C   UNL     1      -8.908   4.686  70.973  1.00  0.00    -0.149 C  
HETATM   25  C   UNL     1      -8.211   3.356  68.760  1.00  0.00    -0.075 C  
HETATM   26  H   UNL     1     -10.483   4.036  67.838  1.00  0.00     0.000 HD 
HETATM   27  C   UNL     1      -9.495   3.259  71.210  1.00  0.00    -0.222 C  
HETATM   28  C   UNL     1     -10.212   3.281  72.522  1.00  0.00    -0.218 C  
HETATM   29  C   UNL     1     -10.719   4.696  72.569  1.00  0.00    -0.149 C  
HETATM   30  C   UNL     1     -10.108   5.635  71.461  1.00  0.00    -0.253 C  
HETATM   31  O   UNL     1     -11.628   4.974  73.315  1.00  0.00    -0.322 OA 
HETATM   32  C   UNL     1      -9.880   7.237  71.768  1.00  0.00    -0.175 C  
HETATM   33  C   UNL     1     -10.868   7.578  72.959  1.00  0.00    -0.445 C  
HETATM   34  C   UNL     1      -8.497   7.358  72.583  1.00  0.00    -0.138 C  
HETATM   35  C   UNL     1      -8.094   8.837  72.794  1.00  0.00     0.152 C  
BRANCH  17  36
HETATM   36  C   UNL     1      -7.506   7.429  68.955  1.00  0.00    -0.100 C  
HETATM   37  C   UNL     1      -6.406   7.924  68.370  1.00  0.00    -0.049 C  
ENDBRANCH  17  36
ENDBRANCH  14  15
ENDBRANCH  12  14
ENDBRANCH  11  12
ENDBRANCH  10  11
ENDBRANCH   8  10
TORSDOF 6
ENDMDL
MODEL       85
REMARK 921   NORMALIZED FREE ENERGY PREDICTED BY IDOCK:   -4.44 KCAL/MOL
REMARK 922        TOTAL FREE ENERGY PREDICTED BY IDOCK:   -7.75 KCAL/MOL
REMARK 923 INTER-LIGAND FREE ENERGY PREDICTED BY IDOCK:   -6.54 KCAL/MOL
REMARK 924 INTRA-LIGAND FREE ENERGY PREDICTED BY IDOCK:   -1.21 KCAL/MOL
REMARK 927      BINDING AFFINITY PREDICTED BY RF-SCORE:    0.00 PKD
ROOT
HETATM    1  C   UNL     1     -10.954  15.706  68.834  1.00  0.00    -0.266 C  
HETATM    2  C   UNL     1     -11.912  15.342  69.987  1.00  0.00    -0.375 C  
HETATM    3  C   UNL     1     -12.268  13.877  69.731  1.00  0.00    -0.388 C  
HETATM    4  C   UNL     1     -11.502  13.513  68.441  1.00  0.00    -0.311 C  
HETATM    5  C   UNL     1     -10.065  12.939  68.680  1.00  0.00    -0.136 C  
HETATM    6  N   UNL     1     -11.502  14.833  67.800  1.00  0.00    -0.333 NA 
HETATM    7  C   UNL     1     -10.886  14.938  66.504  1.00  0.00    -0.322 C  
HETATM    8  C   UNL     1      -8.910  13.976  68.785  1.00  0.00    -0.031 C  
HETATM    9  C   UNL     1      -9.437  15.428  69.093  1.00  0.00    -0.242 C  
ENDROOT
BRANCH   8  10
HETATM   10  S   UNL     1      -7.060  13.705  67.761  1.00  0.00    -0.172 SA 
BRANCH  10  11
HETATM   11  C   UNL     1      -6.389  11.955  67.904  1.00  0.00    -0.064 C  
BRANCH  11  12
HETATM   12  C   UNL     1      -6.235  11.005  69.268  1.00  0.00    -0.059 C  
HETATM   13  O   UNL     1      -6.657  11.518  70.314  1.00  0.00    -0.177 OA 
BRANCH  12  14
HETATM   14  O   UNL     1      -5.665   9.739  69.364  1.00  0.00    -0.034 OA 
BRANCH  14  15
HETATM   15  C   UNL     1      -6.513   8.365  69.282  1.00  0.00    -0.039 C  
HETATM   16  C   UNL     1      -6.725   8.359  67.680  1.00  0.00    -0.066 C  
HETATM   17  C   UNL     1      -7.301   7.129  66.931  1.00  0.00    -0.088 C  
HETATM   18  C   UNL     1      -9.328   4.990  69.977  1.00  0.00    -0.208 C  
HETATM   19  C   UNL     1      -7.109   7.057  65.396  1.00  0.00    -0.068 C  
HETATM   20  C   UNL     1      -8.844   7.277  67.108  1.00  0.00    -0.125 C  
HETATM   21  O   UNL     1      -9.578   7.836  66.021  1.00  0.00    -0.415 OA 
HETATM   22  C   UNL     1      -9.481   6.031  67.666  1.00  0.00    -0.112 C  
HETATM   23  C   UNL     1      -7.966   5.062  70.707  1.00  0.00    -0.087 C  
HETATM   24  C   UNL     1      -9.837   6.240  69.198  1.00  0.00    -0.168 C  
HETATM   25  C   UNL     1     -10.600   5.462  66.755  1.00  0.00    -0.339 C  
HETATM   26  H   UNL     1     -10.517   7.927  66.129  1.00  0.00     0.000 HD 
HETATM   27  C   UNL     1     -11.393   6.363  69.249  1.00  0.00    -0.405 C  
HETATM   28  C   UNL     1     -11.756   6.895  70.599  1.00  0.00    -0.417 C  
HETATM   29  C   UNL     1     -10.576   7.775  70.909  1.00  0.00    -0.213 C  
HETATM   30  C   UNL     1      -9.362   7.593  69.921  1.00  0.00    -0.150 C  
HETATM   31  O   UNL     1     -10.682   8.630  71.755  1.00  0.00    -0.269 OA 
HETATM   32  C   UNL     1      -7.819   7.797  70.459  1.00  0.00    -0.096 C  
HETATM   33  C   UNL     1      -7.947   8.691  71.761  1.00  0.00    -0.151 C  
HETATM   34  C   UNL     1      -7.397   6.419  71.176  1.00  0.00    -0.080 C  
HETATM   35  C   UNL     1      -5.905   6.431  71.588  1.00  0.00    -0.036 C  
BRANCH  17  36
HETATM   36  C   UNL     1      -6.563   5.929  67.541  1.00  0.00    -0.056 C  
HETATM   37  C   UNL     1      -6.277   4.745  66.981  1.00  0.00    -0.035 C  
ENDBRANCH  17  36
ENDBRANCH  14  15
ENDBRANCH  12  14
ENDBRANCH  11  12
ENDBRANCH  10  11
ENDBRANCH   8  10
TORSDOF 6
ENDMDL
MODEL       86
REMARK 921   NORMALIZED FREE ENERGY PREDICTED BY IDOCK:   -4.42 KCAL/MOL
REMARK 922        TOTAL FREE ENERGY PREDICTED BY IDOCK:   -7.72 KCAL/MOL
REMARK 923 INTER-LIGAND FREE ENERGY PREDICTED BY IDOCK:   -6.13 KCAL/MOL
REMARK 924 INTRA-LIGAND FREE ENERGY PREDICTED BY IDOCK:   -1.59 KCAL/MOL
REMARK 927      BINDING AFFINITY PREDICTED BY RF-SCORE:    0.00 PKD
ROOT
HETATM    1  C   UNL     1      -5.716   6.087  64.016  1.00  0.00    -0.022 C  
HETATM    2  C   UNL     1      -6.472   7.421  63.842  1.00  0.00    -0.048 C  
HETATM    3  C   UNL     1      -7.662   7.064  62.950  1.00  0.00    -0.107 C  
HETATM    4  C   UNL     1      -7.493   5.557  62.664  1.00  0.00    -0.055 C  
HETATM    5  C   UNL     1      -8.207   4.617  63.692  1.00  0.00    -0.107 C  
HETATM    6  N   UNL     1      -6.029   5.480  62.725  1.00  0.00    -0.017 NA 
HETATM    7  C   UNL     1      -5.423   4.199  62.477  1.00  0.00    -0.009 C  
HETATM    8  C   UNL     1      -7.392   4.222  64.958  1.00  0.00    -0.072 C  
HETATM    9  C   UNL     1      -6.177   5.192  65.213  1.00  0.00    -0.034 C  
ENDROOT
BRANCH   8  10
HETATM   10  S   UNL     1      -7.323   2.214  65.668  1.00  0.00    -0.067 SA 
BRANCH  10  11
HETATM   11  C   UNL     1      -8.039   2.019  67.395  1.00  0.00    -0.066 C  
BRANCH  11  12
HETATM   12  C   UNL     1      -8.506   3.207  68.471  1.00  0.00    -0.079 C  
HETATM   13  O   UNL     1      -7.943   3.166  69.574  1.00  0.00    -0.049 OA 
BRANCH  12  14
HETATM   14  O   UNL     1      -9.465   4.198  68.281  1.00  0.00    -0.148 OA 
BRANCH  14  15
HETATM   15  C   UNL     1      -9.415   5.644  69.003  1.00  0.00    -0.126 C  
HETATM   16  C   UNL     1     -10.570   5.359  70.096  1.00  0.00    -0.344 C  
HETATM   17  C   UNL     1     -10.846   6.330  71.274  1.00  0.00    -0.317 C  
HETATM   18  C   UNL     1      -9.167   9.986  69.941  1.00  0.00    -0.195 C  
HETATM   19  C   UNL     1     -11.680   5.805  72.469  1.00  0.00    -0.280 C  
HETATM   20  C   UNL     1     -11.752   7.432  70.641  1.00  0.00    -0.242 C  
HETATM   21  O   UNL     1     -13.157   7.331  70.862  1.00  0.00    -0.594 OA 
HETATM   22  C   UNL     1     -11.219   8.821  70.879  1.00  0.00    -0.320 C  
HETATM   23  C   UNL     1      -7.891   9.136  69.736  1.00  0.00    -0.088 C  
HETATM   24  C   UNL     1     -10.550   9.382  69.554  1.00  0.00    -0.237 C  
HETATM   25  C   UNL     1     -12.234   9.744  71.601  1.00  0.00    -0.488 C  
HETATM   26  H   UNL     1     -13.708   8.002  70.477  1.00  0.00     0.000 HD 
HETATM   27  C   UNL     1     -11.533  10.474  69.025  1.00  0.00    -0.304 C  
HETATM   28  C   UNL     1     -11.134  10.793  67.619  1.00  0.00    -0.384 C  
HETATM   29  C   UNL     1     -10.608   9.467  67.142  1.00  0.00    -0.224 C  
HETATM   30  C   UNL     1     -10.410   8.404  68.289  1.00  0.00    -0.244 C  
HETATM   31  O   UNL     1     -10.519   9.258  65.956  1.00  0.00    -0.104 OA 
HETATM   32  C   UNL     1      -9.205   7.286  68.182  1.00  0.00    -0.132 C  
HETATM   33  C   UNL     1      -8.857   7.195  66.640  1.00  0.00    -0.142 C  
HETATM   34  C   UNL     1      -7.857   8.015  68.674  1.00  0.00    -0.118 C  
HETATM   35  C   UNL     1      -6.678   7.016  68.767  1.00  0.00    -0.060 C  
BRANCH  17  36
HETATM   36  C   UNL     1      -9.453   6.687  71.810  1.00  0.00    -0.151 C  
HETATM   37  C   UNL     1      -9.094   7.031  73.055  1.00  0.00    -0.156 C  
ENDBRANCH  17  36
ENDBRANCH  14  15
ENDBRANCH  12  14
ENDBRANCH  11  12
ENDBRANCH  10  11
ENDBRANCH   8  10
TORSDOF 6
ENDMDL
MODEL       87
REMARK 921   NORMALIZED FREE ENERGY PREDICTED BY IDOCK:   -4.41 KCAL/MOL
REMARK 922        TOTAL FREE ENERGY PREDICTED BY IDOCK:   -7.71 KCAL/MOL
REMARK 923 INTER-LIGAND FREE ENERGY PREDICTED BY IDOCK:   -6.66 KCAL/MOL
REMARK 924 INTRA-LIGAND FREE ENERGY PREDICTED BY IDOCK:   -1.05 KCAL/MOL
REMARK 927      BINDING AFFINITY PREDICTED BY RF-SCORE:    0.00 PKD
ROOT
HETATM    1  C   UNL     1     -10.186  15.400  65.830  1.00  0.00    -0.344 C  
HETATM    2  C   UNL     1     -10.939  16.318  64.845  1.00  0.00    -0.321 C  
HETATM    3  C   UNL     1     -12.016  15.417  64.241  1.00  0.00    -0.198 C  
HETATM    4  C   UNL     1     -11.793  14.045  64.910  1.00  0.00    -0.393 C  
HETATM    5  C   UNL     1     -12.602  13.828  66.232  1.00  0.00    -0.372 C  
HETATM    6  N   UNL     1     -10.344  14.132  65.123  1.00  0.00    -0.388 NA 
HETATM    7  C   UNL     1      -9.694  12.998  65.725  1.00  0.00    -0.145 C  
HETATM    8  C   UNL     1     -11.927  14.309  67.549  1.00  0.00    -0.376 C  
HETATM    9  C   UNL     1     -10.763  15.337  67.283  1.00  0.00    -0.311 C  
ENDROOT
BRANCH   8  10
HETATM   10  S   UNL     1     -11.906  13.104  69.307  1.00  0.00    -0.307 SA 
BRANCH  10  11
HETATM   11  C   UNL     1     -11.993  11.263  68.939  1.00  0.00    -0.310 C  
BRANCH  11  12
HETATM   12  C   UNL     1     -10.739  10.179  68.735  1.00  0.00    -0.220 C  
HETATM   13  O   UNL     1      -9.713  10.438  69.380  1.00  0.00    -0.217 OA 
BRANCH  12  14
HETATM   14  O   UNL     1     -10.708   9.060  67.909  1.00  0.00    -0.217 OA 
BRANCH  14  15
HETATM   15  C   UNL     1      -9.343   8.396  67.350  1.00  0.00    -0.148 C  
HETATM   16  C   UNL     1      -9.297   9.193  65.945  1.00  0.00    -0.306 C  
HETATM   17  C   UNL     1      -8.055   9.152  65.017  1.00  0.00    -0.130 C  
HETATM   18  C   UNL     1      -6.025   5.643  66.252  1.00  0.00    -0.022 C  
HETATM   19  C   UNL     1      -7.940  10.230  63.910  1.00  0.00    -0.126 C  
HETATM   20  C   UNL     1      -8.228   7.819  64.225  1.00  0.00    -0.026 C  
HETATM   21  O   UNL     1      -8.768   7.904  62.907  1.00  0.00    -0.398 OA 
HETATM   22  C   UNL     1      -7.006   6.942  64.303  1.00  0.00    -0.052 C  
HETATM   23  C   UNL     1      -6.098   6.291  67.655  1.00  0.00    -0.021 C  
HETATM   24  C   UNL     1      -7.260   5.740  65.307  1.00  0.00    -0.070 C  
HETATM   25  C   UNL     1      -6.428   6.584  62.909  1.00  0.00    -0.038 C  
HETATM   26  H   UNL     1      -8.873   7.093  62.426  1.00  0.00     0.000 HD 
HETATM   27  C   UNL     1      -7.405   4.472  64.407  1.00  0.00    -0.070 C  
HETATM   28  C   UNL     1      -7.978   3.382  65.257  1.00  0.00    -0.086 C  
HETATM   29  C   UNL     1      -8.850   4.160  66.204  1.00  0.00    -0.118 C  
HETATM   30  C   UNL     1      -8.626   5.719  66.151  1.00  0.00    -0.135 C  
HETATM   31  O   UNL     1      -9.728   3.588  66.804  1.00  0.00    -0.164 OA 
HETATM   32  C   UNL     1      -8.823   6.630  67.509  1.00  0.00    -0.116 C  
HETATM   33  C   UNL     1      -9.754   5.767  68.457  1.00  0.00    -0.161 C  
HETATM   34  C   UNL     1      -7.460   6.498  68.353  1.00  0.00    -0.088 C  
HETATM   35  C   UNL     1      -7.464   7.440  69.582  1.00  0.00    -0.093 C  
BRANCH  17  36
HETATM   36  C   UNL     1      -6.862   9.341  65.964  1.00  0.00    -0.088 C  
HETATM   37  C   UNL     1      -6.704  10.236  66.949  1.00  0.00    -0.081 C  
ENDBRANCH  17  36
ENDBRANCH  14  15
ENDBRANCH  12  14
ENDBRANCH  11  12
ENDBRANCH  10  11
ENDBRANCH   8  10
TORSDOF 6
ENDMDL
MODEL       88
REMARK 921   NORMALIZED FREE ENERGY PREDICTED BY IDOCK:   -4.41 KCAL/MOL
REMARK 922        TOTAL FREE ENERGY PREDICTED BY IDOCK:   -7.71 KCAL/MOL
REMARK 923 INTER-LIGAND FREE ENERGY PREDICTED BY IDOCK:   -6.42 KCAL/MOL
REMARK 924 INTRA-LIGAND FREE ENERGY PREDICTED BY IDOCK:   -1.28 KCAL/MOL
REMARK 927      BINDING AFFINITY PREDICTED BY RF-SCORE:    0.00 PKD
ROOT
HETATM    1  C   UNL     1     -10.185   6.756  71.848  1.00  0.00    -0.189 C  
HETATM    2  C   UNL     1     -11.235   6.505  72.950  1.00  0.00    -0.215 C  
HETATM    3  C   UNL     1     -11.227   4.987  73.137  1.00  0.00    -0.408 C  
HETATM    4  C   UNL     1     -10.188   4.478  72.116  1.00  0.00    -0.188 C  
HETATM    5  C   UNL     1      -8.728   4.376  72.673  1.00  0.00    -0.113 C  
HETATM    6  N   UNL     1     -10.349   5.517  71.093  1.00  0.00    -0.224 NA 
HETATM    7  C   UNL     1      -9.550   5.402  69.903  1.00  0.00    -0.168 C  
HETATM    8  C   UNL     1      -7.851   5.657  72.563  1.00  0.00    -0.103 C  
HETATM    9  C   UNL     1      -8.713   6.955  72.338  1.00  0.00    -0.134 C  
ENDROOT
BRANCH   8  10
HETATM   10  S   UNL     1      -5.834   5.581  71.877  1.00  0.00    -0.026 SA 
BRANCH  10  11
HETATM   11  C   UNL     1      -5.420   6.950  70.656  1.00  0.00    -0.023 C  
BRANCH  11  12
HETATM   12  C   UNL     1      -6.392   7.627  69.480  1.00  0.00    -0.031 C  
HETATM   13  O   UNL     1      -6.216   7.185  68.336  1.00  0.00    -0.032 OA 
BRANCH  12  14
HETATM   14  O   UNL     1      -7.336   8.638  69.634  1.00  0.00    -0.054 OA 
BRANCH  14  15
HETATM   15  C   UNL     1      -7.718   9.693  68.469  1.00  0.00    -0.081 C  
HETATM   16  C   UNL     1      -6.689  10.857  68.912  1.00  0.00    -0.067 C  
HETATM   17  C   UNL     1      -6.413  12.095  68.019  1.00  0.00    -0.069 C  
HETATM   18  C   UNL     1      -9.805  12.246  65.484  1.00  0.00    -0.223 C  
HETATM   19  C   UNL     1      -5.153  12.944  68.322  1.00  0.00    -0.076 C  
HETATM   20  C   UNL     1      -7.598  13.057  68.342  1.00  0.00    -0.133 C  
HETATM   21  O   UNL     1      -7.352  14.114  69.267  1.00  0.00    -0.232 OA 
HETATM   22  C   UNL     1      -8.318  13.518  67.101  1.00  0.00    -0.151 C  
HETATM   23  C   UNL     1      -9.426  10.782  65.161  1.00  0.00    -0.271 C  
HETATM   24  C   UNL     1      -9.699  12.751  66.954  1.00  0.00    -0.234 C  
HETATM   25  C   UNL     1      -8.353  15.062  66.961  1.00  0.00    -0.254 C  
HETATM   26  H   UNL     1      -8.074  14.699  69.463  1.00  0.00     0.000 HD 
HETATM   27  C   UNL     1     -10.798  13.808  67.288  1.00  0.00    -0.292 C  
HETATM   28  C   UNL     1     -12.082  13.069  67.497  1.00  0.00    -0.279 C  
HETATM   29  C   UNL     1     -11.595  11.772  68.082  1.00  0.00    -0.323 C  
HETATM   30  C   UNL     1     -10.035  11.569  67.987  1.00  0.00    -0.197 C  
HETATM   31  O   UNL     1     -12.367  11.072  68.693  1.00  0.00    -0.539 OA 
HETATM   32  C   UNL     1      -9.407  10.056  67.813  1.00  0.00    -0.154 C  
HETATM   33  C   UNL     1     -10.530   9.074  68.347  1.00  0.00    -0.234 C  
HETATM   34  C   UNL     1      -9.514   9.690  66.249  1.00  0.00    -0.255 C  
HETATM   35  C   UNL     1      -8.809   8.349  65.934  1.00  0.00    -0.212 C  
BRANCH  17  36
HETATM   36  C   UNL     1      -6.246  11.518  66.606  1.00  0.00    -0.113 C  
HETATM   37  C   UNL     1      -5.163  10.958  66.048  1.00  0.00    -0.129 C  
ENDBRANCH  17  36
ENDBRANCH  14  15
ENDBRANCH  12  14
ENDBRANCH  11  12
ENDBRANCH  10  11
ENDBRANCH   8  10
TORSDOF 6
ENDMDL
MODEL       89
REMARK 921   NORMALIZED FREE ENERGY PREDICTED BY IDOCK:   -4.40 KCAL/MOL
REMARK 922        TOTAL FREE ENERGY PREDICTED BY IDOCK:   -7.70 KCAL/MOL
REMARK 923 INTER-LIGAND FREE ENERGY PREDICTED BY IDOCK:   -6.06 KCAL/MOL
REMARK 924 INTRA-LIGAND FREE ENERGY PREDICTED BY IDOCK:   -1.64 KCAL/MOL
REMARK 927      BINDING AFFINITY PREDICTED BY RF-SCORE:    0.00 PKD
ROOT
HETATM    1  C   UNL     1      -8.854   6.471  72.406  1.00  0.00    -0.133 C  
HETATM    2  C   UNL     1      -8.361   5.265  71.579  1.00  0.00    -0.121 C  
HETATM    3  C   UNL     1      -9.599   4.380  71.432  1.00  0.00    -0.234 C  
HETATM    4  C   UNL     1     -10.706   5.133  72.199  1.00  0.00    -0.187 C  
HETATM    5  C   UNL     1     -11.535   6.133  71.326  1.00  0.00    -0.311 C  
HETATM    6  N   UNL     1      -9.870   5.794  73.207  1.00  0.00    -0.162 NA 
HETATM    7  C   UNL     1     -10.537   6.611  74.186  1.00  0.00    -0.084 C  
HETATM    8  C   UNL     1     -10.973   7.580  71.202  1.00  0.00    -0.246 C  
HETATM    9  C   UNL     1      -9.448   7.663  71.588  1.00  0.00    -0.174 C  
ENDROOT
BRANCH   8  10
HETATM   10  S   UNL     1     -12.224   9.293  71.411  1.00  0.00    -0.369 SA 
BRANCH  10  11
HETATM   11  C   UNL     1     -11.548  10.810  70.532  1.00  0.00    -0.330 C  
BRANCH  11  12
HETATM   12  C   UNL     1     -11.811  11.309  68.960  1.00  0.00    -0.352 C  
HETATM   13  O   UNL     1     -12.057  12.517  68.828  1.00  0.00    -0.268 OA 
BRANCH  12  14
HETATM   14  O   UNL     1     -11.820  10.527  67.810  1.00  0.00    -0.361 OA 
BRANCH  14  15
HETATM   15  C   UNL     1     -10.480  10.036  67.049  1.00  0.00    -0.238 C  
HETATM   16  C   UNL     1     -10.199   8.735  67.965  1.00  0.00    -0.264 C  
HETATM   17  C   UNL     1      -9.130   7.677  67.586  1.00  0.00    -0.133 C  
HETATM   18  C   UNL     1      -6.571   9.778  64.940  1.00  0.00    -0.108 C  
HETATM   19  C   UNL     1      -9.193   6.296  68.285  1.00  0.00    -0.111 C  
HETATM   20  C   UNL     1      -7.795   8.297  68.104  1.00  0.00    -0.118 C  
HETATM   21  O   UNL     1      -7.297   7.831  69.356  1.00  0.00    -0.081 OA 
HETATM   22  C   UNL     1      -6.734   8.352  67.035  1.00  0.00    -0.062 C  
HETATM   23  C   UNL     1      -7.880  10.073  64.170  1.00  0.00    -0.144 C  
HETATM   24  C   UNL     1      -6.578   9.837  66.497  1.00  0.00    -0.072 C  
HETATM   25  C   UNL     1      -5.433   7.608  67.433  1.00  0.00    -0.035 C  
HETATM   26  H   UNL     1      -6.485   8.209  69.671  1.00  0.00     0.000 HD 
HETATM   27  C   UNL     1      -5.215  10.343  67.066  1.00  0.00    -0.041 C  
HETATM   28  C   UNL     1      -5.174  11.826  66.881  1.00  0.00    -0.108 C  
HETATM   29  C   UNL     1      -6.626  12.192  67.026  1.00  0.00    -0.080 C  
HETATM   30  C   UNL     1      -7.604  10.956  67.020  1.00  0.00    -0.122 C  
HETATM   31  O   UNL     1      -6.925  13.334  67.279  1.00  0.00    -0.138 OA 
HETATM   32  C   UNL     1      -9.121  11.105  66.397  1.00  0.00    -0.198 C  
HETATM   33  C   UNL     1      -9.442  12.655  66.446  1.00  0.00    -0.231 C  
HETATM   34  C   UNL     1      -8.979  10.956  64.801  1.00  0.00    -0.155 C  
HETATM   35  C   UNL     1     -10.365  10.922  64.112  1.00  0.00    -0.432 C  
BRANCH  17  36
HETATM   36  C   UNL     1      -9.342   7.439  66.084  1.00  0.00    -0.111 C  
HETATM   37  C   UNL     1      -9.280   6.289  65.398  1.00  0.00     0.252 C  
ENDBRANCH  17  36
ENDBRANCH  14  15
ENDBRANCH  12  14
ENDBRANCH  11  12
ENDBRANCH  10  11
ENDBRANCH   8  10
TORSDOF 6
ENDMDL
MODEL       90
REMARK 921   NORMALIZED FREE ENERGY PREDICTED BY IDOCK:   -4.39 KCAL/MOL
REMARK 922        TOTAL FREE ENERGY PREDICTED BY IDOCK:   -7.69 KCAL/MOL
REMARK 923 INTER-LIGAND FREE ENERGY PREDICTED BY IDOCK:   -7.20 KCAL/MOL
REMARK 924 INTRA-LIGAND FREE ENERGY PREDICTED BY IDOCK:   -0.49 KCAL/MOL
REMARK 927      BINDING AFFINITY PREDICTED BY RF-SCORE:    0.00 PKD
ROOT
HETATM    1  C   UNL     1      -9.899   4.518  69.945  1.00  0.00    -0.227 C  
HETATM    2  C   UNL     1      -8.443   4.034  69.787  1.00  0.00    -0.089 C  
HETATM    3  C   UNL     1      -7.662   5.302  69.439  1.00  0.00    -0.080 C  
HETATM    4  C   UNL     1      -8.729   6.416  69.406  1.00  0.00    -0.129 C  
HETATM    5  C   UNL     1      -8.952   7.141  70.776  1.00  0.00    -0.152 C  
HETATM    6  N   UNL     1      -9.879   5.613  68.979  1.00  0.00    -0.147 NA 
HETATM    7  C   UNL     1     -11.130   6.298  68.789  1.00  0.00    -0.346 C  
HETATM    8  C   UNL     1      -9.995   6.504  71.739  1.00  0.00    -0.176 C  
HETATM    9  C   UNL     1     -10.306   5.003  71.375  1.00  0.00    -0.251 C  
ENDROOT
BRANCH   8  10
HETATM   10  S   UNL     1     -11.454   7.682  72.753  1.00  0.00    -0.283 SA 
BRANCH  10  11
HETATM   11  C   UNL     1     -12.314   8.918  71.628  1.00  0.00    -0.343 C  
BRANCH  11  12
HETATM   12  C   UNL     1     -11.631  10.033  70.589  1.00  0.00    -0.340 C  
HETATM   13  O   UNL     1     -10.668   9.614  69.931  1.00  0.00    -0.221 OA 
BRANCH  12  14
HETATM   14  O   UNL     1     -11.996  11.364  70.409  1.00  0.00    -0.340 OA 
BRANCH  14  15
HETATM   15  C   UNL     1     -11.198  12.390  69.447  1.00  0.00    -0.158 C  
HETATM   16  C   UNL     1     -11.611  13.747  70.220  1.00  0.00    -0.187 C  
HETATM   17  C   UNL     1     -10.950  15.112  69.894  1.00  0.00    -0.291 C  
HETATM   18  C   UNL     1      -9.385  14.537  65.998  1.00  0.00    -0.196 C  
HETATM   19  C   UNL     1     -11.111  16.261  70.921  1.00  0.00    -0.161 C  
HETATM   20  C   UNL     1     -11.737  15.616  68.644  1.00  0.00    -0.352 C  
HETATM   21  O   UNL     1     -12.773  16.571  68.862  1.00  0.00     0.211 OA 
HETATM   22  C   UNL     1     -10.826  15.988  67.503  1.00  0.00    -0.292 C  
HETATM   23  C   UNL     1      -8.688  13.312  66.636  1.00  0.00    -0.015 C  
HETATM   24  C   UNL     1     -10.859  14.860  66.388  1.00  0.00    -0.325 C  
HETATM   25  C   UNL     1     -11.017  17.452  67.028  1.00  0.00     0.085 C  
HETATM   26  H   UNL     1     -13.252  16.877  68.102  1.00  0.00     0.000 HD 
HETATM   27  C   UNL     1     -11.655  15.478  65.196  1.00  0.00    -0.060 C  
HETATM   28  C   UNL     1     -12.009  14.361  64.266  1.00  0.00    -0.433 C  
HETATM   29  C   UNL     1     -12.182  13.212  65.221  1.00  0.00    -0.455 C  
HETATM   30  C   UNL     1     -11.677  13.510  66.684  1.00  0.00    -0.425 C  
HETATM   31  O   UNL     1     -12.803  12.238  64.868  1.00  0.00    -0.628 OA 
HETATM   32  C   UNL     1     -11.052  12.298  67.607  1.00  0.00    -0.318 C  
HETATM   33  C   UNL     1     -11.626  10.960  66.981  1.00  0.00     0.242 C  
HETATM   34  C   UNL     1      -9.519  12.118  67.153  1.00  0.00    -0.190 C  
HETATM   35  C   UNL     1      -8.777  11.108  68.061  1.00  0.00    -0.141 C  
BRANCH  17  36
HETATM   36  C   UNL     1      -9.451  14.798  69.791  1.00  0.00     0.260 C  
HETATM   37  C   UNL     1      -8.446  15.605  69.424  1.00  0.00    -0.244 C  
ENDBRANCH  17  36
ENDBRANCH  14  15
ENDBRANCH  12  14
ENDBRANCH  11  12
ENDBRANCH  10  11
ENDBRANCH   8  10
TORSDOF 6
ENDMDL
MODEL       91
REMARK 921   NORMALIZED FREE ENERGY PREDICTED BY IDOCK:   -4.39 KCAL/MOL
REMARK 922        TOTAL FREE ENERGY PREDICTED BY IDOCK:   -7.68 KCAL/MOL
REMARK 923 INTER-LIGAND FREE ENERGY PREDICTED BY IDOCK:   -6.36 KCAL/MOL
REMARK 924 INTRA-LIGAND FREE ENERGY PREDICTED BY IDOCK:   -1.33 KCAL/MOL
REMARK 927      BINDING AFFINITY PREDICTED BY RF-SCORE:    0.00 PKD
ROOT
HETATM    1  C   UNL     1      -9.085   6.190  72.910  1.00  0.00    -0.131 C  
HETATM    2  C   UNL     1      -7.989   5.769  71.909  1.00  0.00    -0.107 C  
HETATM    3  C   UNL     1      -8.698   4.802  70.960  1.00  0.00    -0.138 C  
HETATM    4  C   UNL     1     -10.144   4.726  71.496  1.00  0.00    -0.190 C  
HETATM    5  C   UNL     1     -11.122   5.777  70.874  1.00  0.00    -0.267 C  
HETATM    6  N   UNL     1      -9.868   4.957  72.918  1.00  0.00    -0.148 NA 
HETATM    7  C   UNL     1     -10.989   4.938  73.820  1.00  0.00    -0.291 C  
HETATM    8  C   UNL     1     -11.193   7.164  71.576  1.00  0.00    -0.245 C  
HETATM    9  C   UNL     1      -9.945   7.430  72.500  1.00  0.00    -0.228 C  
ENDROOT
BRANCH   8  10
HETATM   10  S   UNL     1     -13.052   8.121  71.990  1.00  0.00    -0.260 SA 
BRANCH  10  11
HETATM   11  C   UNL     1     -12.917   9.996  72.050  1.00  0.00    -0.416 C  
BRANCH  11  12
HETATM   12  C   UNL     1     -12.865  11.078  70.780  1.00  0.00    -0.266 C  
HETATM   13  O   UNL     1     -12.850  12.273  71.110  1.00  0.00    -0.319 OA 
BRANCH  12  14
HETATM   14  O   UNL     1     -12.871  10.793  69.418  1.00  0.00    -0.182 OA 
BRANCH  14  15
HETATM   15  C   UNL     1     -11.551  10.843  68.485  1.00  0.00    -0.290 C  
HETATM   16  C   UNL     1     -10.826   9.537  69.100  1.00  0.00    -0.194 C  
HETATM   17  C   UNL     1      -9.568   8.909  68.443  1.00  0.00    -0.157 C  
HETATM   18  C   UNL     1      -8.000  12.078  66.107  1.00  0.00     0.448 C  
HETATM   19  C   UNL     1      -9.178   7.467  68.853  1.00  0.00    -0.142 C  
HETATM   20  C   UNL     1      -8.393   9.783  68.984  1.00  0.00    -0.127 C  
HETATM   21  O   UNL     1      -7.642   9.266  70.080  1.00  0.00    -0.074 OA 
HETATM   22  C   UNL     1      -7.523  10.322  67.878  1.00  0.00    -0.088 C  
HETATM   23  C   UNL     1      -9.423  12.120  65.503  1.00  0.00    -0.077 C  
HETATM   24  C   UNL     1      -7.833  11.860  67.641  1.00  0.00    -0.142 C  
HETATM   25  C   UNL     1      -6.033   9.920  68.030  1.00  0.00    -0.039 C  
HETATM   26  H   UNL     1      -6.928   9.798  70.408  1.00  0.00     0.000 HD 
HETATM   27  C   UNL     1      -6.594  12.625  68.206  1.00  0.00    -0.079 C  
HETATM   28  C   UNL     1      -6.972  14.067  68.322  1.00  0.00    -0.107 C  
HETATM   29  C   UNL     1      -8.440  13.974  68.635  1.00  0.00    -0.103 C  
HETATM   30  C   UNL     1      -9.048  12.533  68.447  1.00  0.00    -0.135 C  
HETATM   31  O   UNL     1      -8.999  14.922  69.133  1.00  0.00    -0.191 OA 
HETATM   32  C   UNL     1     -10.614  12.351  67.971  1.00  0.00    -0.238 C  
HETATM   33  C   UNL     1     -11.327  13.714  68.353  1.00  0.00    -0.329 C  
HETATM   34  C   UNL     1     -10.632  12.529  66.371  1.00  0.00    -0.271 C  
HETATM   35  C   UNL     1     -12.032  12.224  65.786  1.00  0.00    -0.362 C  
BRANCH  17  36
HETATM   36  C   UNL     1      -9.890   8.887  66.942  1.00  0.00    -0.288 C  
HETATM   37  C   UNL     1      -9.324   8.156  65.972  1.00  0.00    -0.184 C  
ENDBRANCH  17  36
ENDBRANCH  14  15
ENDBRANCH  12  14
ENDBRANCH  11  12
ENDBRANCH  10  11
ENDBRANCH   8  10
TORSDOF 6
ENDMDL
MODEL       92
REMARK 921   NORMALIZED FREE ENERGY PREDICTED BY IDOCK:   -4.38 KCAL/MOL
REMARK 922        TOTAL FREE ENERGY PREDICTED BY IDOCK:   -7.67 KCAL/MOL
REMARK 923 INTER-LIGAND FREE ENERGY PREDICTED BY IDOCK:   -7.66 KCAL/MOL
REMARK 924 INTRA-LIGAND FREE ENERGY PREDICTED BY IDOCK:   -0.01 KCAL/MOL
REMARK 927      BINDING AFFINITY PREDICTED BY RF-SCORE:    0.00 PKD
ROOT
HETATM    1  C   UNL     1     -11.857  14.351  65.007  1.00  0.00    -0.400 C  
HETATM    2  C   UNL     1     -12.327  13.665  63.708  1.00  0.00    -0.357 C  
HETATM    3  C   UNL     1     -11.363  12.492  63.532  1.00  0.00    -0.556 C  
HETATM    4  C   UNL     1     -10.399  12.600  64.732  1.00  0.00    -0.312 C  
HETATM    5  C   UNL     1     -10.853  11.806  66.002  1.00  0.00    -0.343 C  
HETATM    6  N   UNL     1     -10.429  14.056  64.914  1.00  0.00    -0.416 NA 
HETATM    7  C   UNL     1      -9.609  14.609  65.958  1.00  0.00    -0.290 C  
HETATM    8  C   UNL     1     -11.788  12.557  66.995  1.00  0.00    -0.323 C  
HETATM    9  C   UNL     1     -12.483  13.806  66.333  1.00  0.00    -0.404 C  
ENDROOT
BRANCH   8  10
HETATM   10  S   UNL     1     -11.463  12.506  69.101  1.00  0.00    -0.307 SA 
BRANCH  10  11
HETATM   11  C   UNL     1     -10.851  10.837  69.712  1.00  0.00    -0.226 C  
BRANCH  11  12
HETATM   12  C   UNL     1     -11.423   9.917  70.983  1.00  0.00    -0.388 C  
HETATM   13  O   UNL     1     -12.310  10.456  71.661  1.00  0.00    -0.370 OA 
BRANCH  12  14
HETATM   14  O   UNL     1     -10.997   8.653  71.378  1.00  0.00    -0.237 OA 
BRANCH  14  15
HETATM   15  C   UNL     1      -9.695   7.915  70.767  1.00  0.00    -0.172 C  
HETATM   16  C   UNL     1      -8.824   9.247  70.490  1.00  0.00    -0.285 C  
HETATM   17  C   UNL     1      -7.325   9.182  70.094  1.00  0.00    -0.077 C  
HETATM   18  C   UNL     1      -6.881   5.248  68.584  1.00  0.00    -0.055 C  
HETATM   19  C   UNL     1      -6.481  10.474  70.230  1.00  0.00    -0.140 C  
HETATM   20  C   UNL     1      -7.360   8.918  68.557  1.00  0.00    -0.081 C  
HETATM   21  O   UNL     1      -7.173  10.037  67.694  1.00  0.00    -0.086 OA 
HETATM   22  C   UNL     1      -6.527   7.726  68.160  1.00  0.00    -0.054 C  
HETATM   23  C   UNL     1      -7.487   4.832  69.945  1.00  0.00    -0.055 C  
HETATM   24  C   UNL     1      -7.465   6.487  67.841  1.00  0.00    -0.094 C  
HETATM   25  C   UNL     1      -5.436   8.071  67.113  1.00  0.00    -0.036 C  
HETATM   26  H   UNL     1      -7.194   9.876  66.759  1.00  0.00     0.000 HD 
HETATM   27  C   UNL     1      -7.411   6.314  66.290  1.00  0.00    -0.081 C  
HETATM   28  C   UNL     1      -8.525   5.395  65.902  1.00  0.00    -0.127 C  
HETATM   29  C   UNL     1      -9.569   5.728  66.932  1.00  0.00    -0.141 C  
HETATM   30  C   UNL     1      -9.041   6.625  68.116  1.00  0.00    -0.119 C  
HETATM   31  O   UNL     1     -10.721   5.433  66.723  1.00  0.00    -0.284 OA 
HETATM   32  C   UNL     1      -9.679   6.461  69.625  1.00  0.00    -0.170 C  
HETATM   33  C   UNL     1     -11.101   5.798  69.407  1.00  0.00    -0.259 C  
HETATM   34  C   UNL     1      -8.944   5.199  70.301  1.00  0.00    -0.156 C  
HETATM   35  C   UNL     1      -9.348   5.039  71.786  1.00  0.00    -0.184 C  
BRANCH  17  36
HETATM   36  C   UNL     1      -6.722   8.140  71.046  1.00  0.00    -0.042 C  
HETATM   37  C   UNL     1      -5.443   7.758  71.173  1.00  0.00    -0.030 C  
ENDBRANCH  17  36
ENDBRANCH  14  15
ENDBRANCH  12  14
ENDBRANCH  11  12
ENDBRANCH  10  11
ENDBRANCH   8  10
TORSDOF 6
ENDMDL
MODEL       93
REMARK 921   NORMALIZED FREE ENERGY PREDICTED BY IDOCK:   -4.38 KCAL/MOL
REMARK 922        TOTAL FREE ENERGY PREDICTED BY IDOCK:   -7.67 KCAL/MOL
REMARK 923 INTER-LIGAND FREE ENERGY PREDICTED BY IDOCK:   -5.81 KCAL/MOL
REMARK 924 INTRA-LIGAND FREE ENERGY PREDICTED BY IDOCK:   -1.85 KCAL/MOL
REMARK 927      BINDING AFFINITY PREDICTED BY RF-SCORE:    0.00 PKD
ROOT
HETATM    1  C   UNL     1      -5.566   8.418  63.979  1.00  0.00    -0.061 C  
HETATM    2  C   UNL     1      -5.909   9.916  64.119  1.00  0.00    -0.117 C  
HETATM    3  C   UNL     1      -7.411   9.984  63.843  1.00  0.00    -0.134 C  
HETATM    4  C   UNL     1      -7.817   8.525  63.548  1.00  0.00    -0.151 C  
HETATM    5  C   UNL     1      -8.264   7.709  64.807  1.00  0.00    -0.081 C  
HETATM    6  N   UNL     1      -6.554   8.054  62.968  1.00  0.00    -0.083 NA 
HETATM    7  C   UNL     1      -6.504   6.690  62.512  1.00  0.00    -0.039 C  
HETATM    8  C   UNL     1      -7.141   6.982  65.601  1.00  0.00    -0.068 C  
HETATM    9  C   UNL     1      -5.711   7.560  65.279  1.00  0.00    -0.037 C  
ENDROOT
BRANCH   8  10
HETATM   10  S   UNL     1      -7.354   4.966  66.259  1.00  0.00    -0.079 SA 
BRANCH  10  11
HETATM   11  C   UNL     1      -8.970   4.655  67.168  1.00  0.00    -0.113 C  
BRANCH  11  12
HETATM   12  C   UNL     1     -10.497   5.226  66.805  1.00  0.00    -0.273 C  
HETATM   13  O   UNL     1     -10.960   4.832  65.725  1.00  0.00    -0.255 OA 
BRANCH  12  14
HETATM   14  O   UNL     1     -11.277   6.104  67.551  1.00  0.00    -0.292 OA 
BRANCH  14  15
HETATM   15  C   UNL     1     -10.699   7.009  68.762  1.00  0.00    -0.194 C  
HETATM   16  C   UNL     1      -9.961   8.116  67.846  1.00  0.00    -0.225 C  
HETATM   17  C   UNL     1      -9.384   9.426  68.444  1.00  0.00    -0.137 C  
HETATM   18  C   UNL     1      -8.910   8.500  72.552  1.00  0.00    -0.245 C  
HETATM   19  C   UNL     1      -9.053  10.585  67.471  1.00  0.00    -0.144 C  
HETATM   20  C   UNL     1      -7.991   8.997  69.001  1.00  0.00    -0.102 C  
HETATM   21  O   UNL     1      -6.848   9.280  68.198  1.00  0.00    -0.063 OA 
HETATM   22  C   UNL     1      -7.806   9.387  70.445  1.00  0.00    -0.179 C  
HETATM   23  C   UNL     1     -10.405   8.112  72.469  1.00  0.00    -0.401 C  
HETATM   24  C   UNL     1      -7.960   8.113  71.378  1.00  0.00    -0.119 C  
HETATM   25  C   UNL     1      -6.559  10.280  70.675  1.00  0.00    -0.042 C  
HETATM   26  H   UNL     1      -6.000   9.018  68.538  1.00  0.00     0.000 HD 
HETATM   27  C   UNL     1      -6.518   7.789  71.880  1.00  0.00    -0.043 C  
HETATM   28  C   UNL     1      -6.549   6.418  72.478  1.00  0.00    -0.064 C  
HETATM   29  C   UNL     1      -7.595   5.741  71.635  1.00  0.00    -0.099 C  
HETATM   30  C   UNL     1      -8.413   6.724  70.714  1.00  0.00    -0.133 C  
HETATM   31  O   UNL     1      -7.638   4.535  71.603  1.00  0.00    -0.073 OA 
HETATM   32  C   UNL     1      -9.989   6.403  70.356  1.00  0.00    -0.213 C  
HETATM   33  C   UNL     1     -10.159   4.844  70.586  1.00  0.00    -0.306 C  
HETATM   34  C   UNL     1     -10.858   6.911  71.611  1.00  0.00    -0.252 C  
HETATM   35  C   UNL     1     -12.376   6.805  71.325  1.00  0.00    -0.395 C  
BRANCH  17  36
HETATM   36  C   UNL     1     -10.479   9.927  69.396  1.00  0.00    -0.250 C  
HETATM   37  C   UNL     1     -11.531  10.714  69.129  1.00  0.00    -0.349 C  
ENDBRANCH  17  36
ENDBRANCH  14  15
ENDBRANCH  12  14
ENDBRANCH  11  12
ENDBRANCH  10  11
ENDBRANCH   8  10
TORSDOF 6
ENDMDL
MODEL       94
REMARK 921   NORMALIZED FREE ENERGY PREDICTED BY IDOCK:   -4.36 KCAL/MOL
REMARK 922        TOTAL FREE ENERGY PREDICTED BY IDOCK:   -7.64 KCAL/MOL
REMARK 923 INTER-LIGAND FREE ENERGY PREDICTED BY IDOCK:   -6.30 KCAL/MOL
REMARK 924 INTRA-LIGAND FREE ENERGY PREDICTED BY IDOCK:   -1.34 KCAL/MOL
REMARK 927      BINDING AFFINITY PREDICTED BY RF-SCORE:    0.00 PKD
ROOT
HETATM    1  C   UNL     1      -8.168   6.340  69.949  1.00  0.00    -0.121 C  
HETATM    2  C   UNL     1      -7.735   6.409  68.470  1.00  0.00    -0.104 C  
HETATM    3  C   UNL     1      -8.675   5.436  67.758  1.00  0.00    -0.106 C  
HETATM    4  C   UNL     1      -9.566   4.867  68.882  1.00  0.00    -0.158 C  
HETATM    5  C   UNL     1     -10.883   5.675  69.138  1.00  0.00    -0.281 C  
HETATM    6  N   UNL     1      -8.609   4.948  69.990  1.00  0.00    -0.089 NA 
HETATM    7  C   UNL     1      -9.043   4.471  71.276  1.00  0.00    -0.130 C  
HETATM    8  C   UNL     1     -10.788   6.859  70.144  1.00  0.00    -0.263 C  
HETATM    9  C   UNL     1      -9.302   7.328  70.376  1.00  0.00    -0.158 C  
ENDROOT
BRANCH   8  10
HETATM   10  S   UNL     1     -12.255   7.168  71.659  1.00  0.00    -0.367 SA 
BRANCH  10  11
HETATM   11  C   UNL     1     -12.321   8.944  72.269  1.00  0.00    -0.360 C  
BRANCH  11  12
HETATM   12  C   UNL     1     -12.562  10.342  71.387  1.00  0.00    -0.434 C  
HETATM   13  O   UNL     1     -12.824  11.348  72.061  1.00  0.00    -0.359 OA 
BRANCH  12  14
HETATM   14  O   UNL     1     -12.536  10.490  70.004  1.00  0.00    -0.277 OA 
BRANCH  14  15
HETATM   15  C   UNL     1     -11.479  11.433  69.223  1.00  0.00    -0.303 C  
HETATM   16  C   UNL     1     -12.378  12.775  69.219  1.00  0.00     0.064 C  
HETATM   17  C   UNL     1     -11.801  14.150  68.788  1.00  0.00    -0.384 C  
HETATM   18  C   UNL     1      -8.414  13.104  66.465  1.00  0.00     0.244 C  
HETATM   19  C   UNL     1     -12.590  15.424  69.179  1.00  0.00     0.201 C  
HETATM   20  C   UNL     1     -11.891  14.117  67.231  1.00  0.00    -0.419 C  
HETATM   21  O   UNL     1     -12.992  14.789  66.624  1.00  0.00     0.077 OA 
HETATM   22  C   UNL     1     -10.573  14.436  66.573  1.00  0.00    -0.296 C  
HETATM   23  C   UNL     1      -8.008  12.294  67.719  1.00  0.00    -0.154 C  
HETATM   24  C   UNL     1      -9.907  13.109  66.016  1.00  0.00    -0.266 C  
HETATM   25  C   UNL     1     -10.658  15.642  65.602  1.00  0.00    -0.393 C  
HETATM   26  H   UNL     1     -13.046  14.769  65.676  1.00  0.00     0.000 HD 
HETATM   27  C   UNL     1     -10.046  13.195  64.463  1.00  0.00    -0.244 C  
HETATM   28  C   UNL     1      -9.749  11.837  63.910  1.00  0.00    -0.226 C  
HETATM   29  C   UNL     1     -10.255  10.943  65.008  1.00  0.00    -0.303 C  
HETATM   30  C   UNL     1     -10.604  11.701  66.345  1.00  0.00    -0.299 C  
HETATM   31  O   UNL     1     -10.495   9.785  64.764  1.00  0.00     0.368 OA 
HETATM   32  C   UNL     1     -10.407  10.950  67.798  1.00  0.00    -0.218 C  
HETATM   33  C   UNL     1     -10.427   9.400  67.472  1.00  0.00    -0.343 C  
HETATM   34  C   UNL     1      -8.847  11.080  68.174  1.00  0.00    -0.141 C  
HETATM   35  C   UNL     1      -8.564  10.545  69.599  1.00  0.00     0.022 C  
BRANCH  17  36
HETATM   36  C   UNL     1     -10.435  14.227  69.484  1.00  0.00     0.027 C  
HETATM   37  C   UNL     1      -9.767  15.309  69.908  1.00  0.00    -0.108 C  
ENDBRANCH  17  36
ENDBRANCH  14  15
ENDBRANCH  12  14
ENDBRANCH  11  12
ENDBRANCH  10  11
ENDBRANCH   8  10
TORSDOF 6
ENDMDL
MODEL       95
REMARK 921   NORMALIZED FREE ENERGY PREDICTED BY IDOCK:   -4.35 KCAL/MOL
REMARK 922        TOTAL FREE ENERGY PREDICTED BY IDOCK:   -7.63 KCAL/MOL
REMARK 923 INTER-LIGAND FREE ENERGY PREDICTED BY IDOCK:   -6.61 KCAL/MOL
REMARK 924 INTRA-LIGAND FREE ENERGY PREDICTED BY IDOCK:   -1.02 KCAL/MOL
REMARK 927      BINDING AFFINITY PREDICTED BY RF-SCORE:    0.00 PKD
ROOT
HETATM    1  C   UNL     1     -11.617  13.737  64.238  1.00  0.00    -0.369 C  
HETATM    2  C   UNL     1     -11.728  14.782  65.367  1.00  0.00    -0.289 C  
HETATM    3  C   UNL     1     -12.160  13.970  66.589  1.00  0.00    -0.487 C  
HETATM    4  C   UNL     1     -12.282  12.523  66.068  1.00  0.00    -0.190 C  
HETATM    5  C   UNL     1     -10.970  11.677  66.190  1.00  0.00    -0.339 C  
HETATM    6  N   UNL     1     -12.660  12.815  64.681  1.00  0.00    -0.651 NA 
HETATM    7  C   UNL     1     -12.909  11.694  63.814  1.00  0.00    -0.024 C  
HETATM    8  C   UNL     1      -9.973  11.765  64.998  1.00  0.00    -0.254 C  
HETATM    9  C   UNL     1     -10.230  13.030  64.095  1.00  0.00    -0.263 C  
ENDROOT
BRANCH   8  10
HETATM   10  S   UNL     1      -9.058  10.027  64.169  1.00  0.00    -0.269 SA 
BRANCH  10  11
HETATM   11  C   UNL     1      -7.633   9.378  65.208  1.00  0.00    -0.107 C  
BRANCH  11  12
HETATM   12  C   UNL     1      -7.452   7.872  65.906  1.00  0.00    -0.078 C  
HETATM   13  O   UNL     1      -7.720   6.915  65.164  1.00  0.00    -0.094 OA 
BRANCH  12  14
HETATM   14  O   UNL     1      -7.075   7.579  67.213  1.00  0.00    -0.080 OA 
BRANCH  14  15
HETATM   15  C   UNL     1      -8.116   7.487  68.447  1.00  0.00    -0.125 C  
HETATM   16  C   UNL     1      -7.159   8.157  69.563  1.00  0.00    -0.051 C  
HETATM   17  C   UNL     1      -7.688   8.565  70.963  1.00  0.00    -0.104 C  
HETATM   18  C   UNL     1     -11.202   6.237  71.397  1.00  0.00    -0.349 C  
HETATM   19  C   UNL     1      -6.828   9.535  71.810  1.00  0.00     0.398 C  
HETATM   20  C   UNL     1      -7.657   7.233  71.774  1.00  0.00    -0.086 C  
HETATM   21  O   UNL     1      -6.550   7.021  72.647  1.00  0.00    -0.060 OA 
HETATM   22  C   UNL     1      -8.983   6.924  72.421  1.00  0.00    -0.143 C  
HETATM   23  C   UNL     1     -11.598   6.878  70.046  1.00  0.00    -0.299 C  
HETATM   24  C   UNL     1      -9.729   5.778  71.616  1.00  0.00    -0.192 C  
HETATM   25  C   UNL     1      -8.879   6.750  73.959  1.00  0.00    -0.187 C  
HETATM   26  H   UNL     1      -6.532   6.210  73.140  1.00  0.00     0.000 HD 
HETATM   27  C   UNL     1      -9.643   4.510  72.524  1.00  0.00    -0.183 C  
HETATM   28  C   UNL     1     -10.022   3.331  71.685  1.00  0.00    -0.169 C  
HETATM   29  C   UNL     1      -9.517   3.746  70.330  1.00  0.00    -0.184 C  
HETATM   30  C   UNL     1      -9.084   5.259  70.241  1.00  0.00    -0.169 C  
HETATM   31  O   UNL     1      -9.339   2.905  69.483  1.00  0.00    -0.137 OA 
HETATM   32  C   UNL     1      -9.262   6.088  68.829  1.00  0.00    -0.123 C  
HETATM   33  C   UNL     1      -9.324   4.979  67.699  1.00  0.00    -0.141 C  
HETATM   34  C   UNL     1     -10.799   6.561  68.764  1.00  0.00    -0.357 C  
HETATM   35  C   UNL     1     -11.053   7.488  67.551  1.00  0.00     0.025 C  
BRANCH  17  36
HETATM   36  C   UNL     1      -9.023   9.268  70.677  1.00  0.00    -0.296 C  
HETATM   37  C   UNL     1      -9.307  10.185  69.742  1.00  0.00    -0.183 C  
ENDBRANCH  17  36
ENDBRANCH  14  15
ENDBRANCH  12  14
ENDBRANCH  11  12
ENDBRANCH  10  11
ENDBRANCH   8  10
TORSDOF 6
ENDMDL
MODEL       96
REMARK 921   NORMALIZED FREE ENERGY PREDICTED BY IDOCK:   -4.34 KCAL/MOL
REMARK 922        TOTAL FREE ENERGY PREDICTED BY IDOCK:   -7.62 KCAL/MOL
REMARK 923 INTER-LIGAND FREE ENERGY PREDICTED BY IDOCK:   -6.73 KCAL/MOL
REMARK 924 INTRA-LIGAND FREE ENERGY PREDICTED BY IDOCK:   -0.88 KCAL/MOL
REMARK 927      BINDING AFFINITY PREDICTED BY RF-SCORE:    0.00 PKD
ROOT
HETATM    1  C   UNL     1     -11.978  13.892  66.341  1.00  0.00    -0.438 C  
HETATM    2  C   UNL     1     -12.973  13.580  65.204  1.00  0.00    -0.263 C  
HETATM    3  C   UNL     1     -12.133  12.838  64.163  1.00  0.00    -0.513 C  
HETATM    4  C   UNL     1     -10.715  12.795  64.771  1.00  0.00    -0.316 C  
HETATM    5  C   UNL     1     -10.423  11.531  65.647  1.00  0.00    -0.317 C  
HETATM    6  N   UNL     1     -10.763  14.041  65.543  1.00  0.00    -0.300 NA 
HETATM    7  C   UNL     1      -9.581  14.413  66.274  1.00  0.00    -0.298 C  
HETATM    8  C   UNL     1     -10.803  11.627  67.153  1.00  0.00    -0.261 C  
HETATM    9  C   UNL     1     -11.827  12.789  67.439  1.00  0.00    -0.404 C  
ENDROOT
BRANCH   8  10
HETATM   10  S   UNL     1      -9.482  10.965  68.690  1.00  0.00    -0.191 SA 
BRANCH  10  11
HETATM   11  C   UNL     1      -7.846  10.317  68.026  1.00  0.00    -0.100 C  
BRANCH  11  12
HETATM   12  C   UNL     1      -7.581   9.095  66.920  1.00  0.00    -0.091 C  
HETATM   13  O   UNL     1      -7.454   9.469  65.746  1.00  0.00    -0.097 OA 
BRANCH  12  14
HETATM   14  O   UNL     1      -7.522   7.726  67.163  1.00  0.00    -0.092 OA 
BRANCH  14  15
HETATM   15  C   UNL     1      -7.678   7.068  68.632  1.00  0.00    -0.120 C  
HETATM   16  C   UNL     1      -9.283   7.212  68.743  1.00  0.00    -0.136 C  
HETATM   17  C   UNL     1     -10.094   6.533  69.879  1.00  0.00    -0.202 C  
HETATM   18  C   UNL     1      -7.183   5.850  72.882  1.00  0.00    -0.090 C  
HETATM   19  C   UNL     1     -11.625   6.393  69.695  1.00  0.00    -0.351 C  
HETATM   20  C   UNL     1      -9.949   7.521  71.078  1.00  0.00    -0.186 C  
HETATM   21  O   UNL     1     -11.031   8.416  71.325  1.00  0.00    -0.236 OA 
HETATM   22  C   UNL     1      -9.455   6.839  72.327  1.00  0.00    -0.149 C  
HETATM   23  C   UNL     1      -6.418   5.129  71.747  1.00  0.00    -0.036 C  
HETATM   24  C   UNL     1      -7.925   7.184  72.569  1.00  0.00    -0.103 C  
HETATM   25  C   UNL     1     -10.414   7.014  73.533  1.00  0.00    -0.413 C  
HETATM   26  H   UNL     1     -10.943   9.017  72.055  1.00  0.00     0.000 HD 
HETATM   27  C   UNL     1      -7.907   8.160  73.787  1.00  0.00    -0.245 C  
HETATM   28  C   UNL     1      -6.547   8.779  73.846  1.00  0.00    -0.020 C  
HETATM   29  C   UNL     1      -6.175   8.837  72.390  1.00  0.00    -0.055 C  
HETATM   30  C   UNL     1      -7.140   8.022  71.447  1.00  0.00    -0.063 C  
HETATM   31  O   UNL     1      -5.299   9.587  72.033  1.00  0.00    -0.073 OA 
HETATM   32  C   UNL     1      -6.556   7.312  70.080  1.00  0.00    -0.043 C  
HETATM   33  C   UNL     1      -5.224   8.099  69.738  1.00  0.00    -0.023 C  
HETATM   34  C   UNL     1      -5.883   5.922  70.535  1.00  0.00    -0.025 C  
HETATM   35  C   UNL     1      -5.434   5.086  69.312  1.00  0.00    -0.008 C  
BRANCH  17  36
HETATM   36  C   UNL     1      -9.513   5.115  69.968  1.00  0.00    -0.221 C  
HETATM   37  C   UNL     1      -9.782   4.151  70.860  1.00  0.00    -0.259 C  
ENDBRANCH  17  36
ENDBRANCH  14  15
ENDBRANCH  12  14
ENDBRANCH  11  12
ENDBRANCH  10  11
ENDBRANCH   8  10
TORSDOF 6
ENDMDL
MODEL       97
REMARK 921   NORMALIZED FREE ENERGY PREDICTED BY IDOCK:   -4.34 KCAL/MOL
REMARK 922        TOTAL FREE ENERGY PREDICTED BY IDOCK:   -7.62 KCAL/MOL
REMARK 923 INTER-LIGAND FREE ENERGY PREDICTED BY IDOCK:   -6.56 KCAL/MOL
REMARK 924 INTRA-LIGAND FREE ENERGY PREDICTED BY IDOCK:   -1.06 KCAL/MOL
REMARK 927      BINDING AFFINITY PREDICTED BY RF-SCORE:    0.00 PKD
ROOT
HETATM    1  C   UNL     1      -9.690  14.049  65.976  1.00  0.00    -0.258 C  
HETATM    2  C   UNL     1     -10.033  15.410  65.335  1.00  0.00    -0.356 C  
HETATM    3  C   UNL     1     -11.430  15.206  64.747  1.00  0.00    -0.383 C  
HETATM    4  C   UNL     1     -11.779  13.740  65.078  1.00  0.00    -0.345 C  
HETATM    5  C   UNL     1     -12.517  13.541  66.444  1.00  0.00    -0.349 C  
HETATM    6  N   UNL     1     -10.424  13.178  65.061  1.00  0.00    -0.327 NA 
HETATM    7  C   UNL     1     -10.291  11.766  65.305  1.00  0.00    -0.274 C  
HETATM    8  C   UNL     1     -11.618  13.356  67.700  1.00  0.00    -0.340 C  
HETATM    9  C   UNL     1     -10.145  13.858  67.460  1.00  0.00    -0.244 C  
ENDROOT
BRANCH   8  10
HETATM   10  S   UNL     1     -12.009  11.842  69.149  1.00  0.00    -0.233 SA 
BRANCH  10  11
HETATM   11  C   UNL     1     -10.504  10.781  69.529  1.00  0.00    -0.170 C  
BRANCH  11  12
HETATM   12  C   UNL     1      -9.553   9.904  68.472  1.00  0.00    -0.153 C  
HETATM   13  O   UNL     1      -8.568  10.510  68.028  1.00  0.00    -0.118 OA 
BRANCH  12  14
HETATM   14  O   UNL     1      -9.761   8.606  68.018  1.00  0.00    -0.150 OA 
BRANCH  14  15
HETATM   15  C   UNL     1      -8.893   7.333  68.512  1.00  0.00    -0.129 C  
HETATM   16  C   UNL     1      -9.040   6.458  67.162  1.00  0.00    -0.121 C  
HETATM   17  C   UNL     1      -8.210   5.169  66.923  1.00  0.00    -0.108 C  
HETATM   18  C   UNL     1      -7.045   4.017  70.831  1.00  0.00    -0.033 C  
HETATM   19  C   UNL     1      -8.120   4.621  65.477  1.00  0.00    -0.107 C  
HETATM   20  C   UNL     1      -9.005   4.069  67.692  1.00  0.00    -0.129 C  
HETATM   21  O   UNL     1      -9.867   3.228  66.929  1.00  0.00    -0.393 OA 
HETATM   22  C   UNL     1      -8.137   3.300  68.654  1.00  0.00    -0.071 C  
HETATM   23  C   UNL     1      -6.492   5.460  70.915  1.00  0.00    -0.035 C  
HETATM   24  C   UNL     1      -8.421   3.771  70.142  1.00  0.00    -0.093 C  
HETATM   25  C   UNL     1      -8.143   1.772  68.387  1.00  0.00    -0.067 C  
HETATM   26  H   UNL     1     -10.351   2.558  67.397  1.00  0.00     0.000 HD 
HETATM   27  C   UNL     1      -9.203   2.595  70.808  1.00  0.00    -0.203 C  
HETATM   28  C   UNL     1      -9.788   3.111  72.084  1.00  0.00    -0.238 C  
HETATM   29  C   UNL     1     -10.058   4.549  71.736  1.00  0.00    -0.184 C  
HETATM   30  C   UNL     1      -9.407   5.016  70.379  1.00  0.00    -0.216 C  
HETATM   31  O   UNL     1     -10.842   5.181  72.403  1.00  0.00    -0.222 OA 
HETATM   32  C   UNL     1      -8.902   6.573  70.196  1.00  0.00    -0.144 C  
HETATM   33  C   UNL     1      -9.714   7.404  71.274  1.00  0.00    -0.171 C  
HETATM   34  C   UNL     1      -7.451   6.670  70.885  1.00  0.00    -0.084 C  
HETATM   35  C   UNL     1      -6.801   8.053  70.640  1.00  0.00    -0.037 C  
BRANCH  17  36
HETATM   36  C   UNL     1      -6.787   5.544  67.359  1.00  0.00    -0.060 C  
HETATM   37  C   UNL     1      -5.695   5.724  66.601  1.00  0.00    -0.017 C  
ENDBRANCH  17  36
ENDBRANCH  14  15
ENDBRANCH  12  14
ENDBRANCH  11  12
ENDBRANCH  10  11
ENDBRANCH   8  10
TORSDOF 6
ENDMDL
MODEL       98
REMARK 921   NORMALIZED FREE ENERGY PREDICTED BY IDOCK:   -4.33 KCAL/MOL
REMARK 922        TOTAL FREE ENERGY PREDICTED BY IDOCK:   -7.61 KCAL/MOL
REMARK 923 INTER-LIGAND FREE ENERGY PREDICTED BY IDOCK:   -6.68 KCAL/MOL
REMARK 924 INTRA-LIGAND FREE ENERGY PREDICTED BY IDOCK:   -0.93 KCAL/MOL
REMARK 927      BINDING AFFINITY PREDICTED BY RF-SCORE:    0.00 PKD
ROOT
HETATM    1  C   UNL     1     -11.761  14.942  66.686  1.00  0.00    -0.217 C  
HETATM    2  C   UNL     1     -10.728  15.185  65.567  1.00  0.00    -0.379 C  
HETATM    3  C   UNL     1      -9.391  15.275  66.304  1.00  0.00    -0.345 C  
HETATM    4  C   UNL     1      -9.757  15.094  67.792  1.00  0.00    -0.211 C  
HETATM    5  C   UNL     1      -9.731  13.611  68.291  1.00  0.00    -0.231 C  
HETATM    6  N   UNL     1     -11.103  15.675  67.764  1.00  0.00    -0.320 NA 
HETATM    7  C   UNL     1     -11.824  15.734  69.008  1.00  0.00    -0.355 C  
HETATM    8  C   UNL     1     -11.045  12.796  68.119  1.00  0.00    -0.256 C  
HETATM    9  C   UNL     1     -12.019  13.446  67.066  1.00  0.00    -0.429 C  
ENDROOT
BRANCH   8  10
HETATM   10  S   UNL     1     -11.825  11.577  69.685  1.00  0.00    -0.365 SA 
BRANCH  10  11
HETATM   11  C   UNL     1     -10.852   9.988  69.935  1.00  0.00    -0.285 C  
BRANCH  11  12
HETATM   12  C   UNL     1     -10.313   8.904  68.785  1.00  0.00    -0.211 C  
HETATM   13  O   UNL     1      -9.831   9.418  67.765  1.00  0.00    -0.157 OA 
BRANCH  12  14
HETATM   14  O   UNL     1     -10.375   7.514  68.829  1.00  0.00    -0.194 OA 
BRANCH  14  15
HETATM   15  C   UNL     1      -9.462   6.607  69.808  1.00  0.00    -0.147 C  
HETATM   16  C   UNL     1      -9.023   5.509  68.708  1.00  0.00    -0.120 C  
HETATM   17  C   UNL     1      -7.922   4.454  68.992  1.00  0.00    -0.069 C  
HETATM   18  C   UNL     1      -7.775   4.310  73.225  1.00  0.00    -0.082 C  
HETATM   19  C   UNL     1      -7.298   3.711  67.784  1.00  0.00    -0.062 C  
HETATM   20  C   UNL     1      -8.677   3.332  69.771  1.00  0.00    -0.072 C  
HETATM   21  O   UNL     1      -9.088   2.183  69.033  1.00  0.00    -0.098 OA 
HETATM   22  C   UNL     1      -8.002   2.983  71.072  1.00  0.00    -0.056 C  
HETATM   23  C   UNL     1      -7.568   5.839  73.106  1.00  0.00    -0.096 C  
HETATM   24  C   UNL     1      -8.805   3.610  72.289  1.00  0.00    -0.117 C  
HETATM   25  C   UNL     1      -7.626   1.482  71.176  1.00  0.00    -0.032 C  
HETATM   26  H   UNL     1      -9.547   1.501  69.508  1.00  0.00     0.000 HD 
HETATM   27  C   UNL     1      -9.502   2.402  72.992  1.00  0.00    -0.123 C  
HETATM   28  C   UNL     1     -10.532   2.959  73.923  1.00  0.00    -0.243 C  
HETATM   29  C   UNL     1     -10.963   4.201  73.193  1.00  0.00    -0.186 C  
HETATM   30  C   UNL     1     -10.042   4.583  71.974  1.00  0.00    -0.264 C  
HETATM   31  O   UNL     1     -12.019   4.715  73.475  1.00  0.00    -0.075 OA 
HETATM   32  C   UNL     1      -9.823   6.164  71.566  1.00  0.00    -0.190 C  
HETATM   33  C   UNL     1     -11.067   6.929  72.180  1.00  0.00    -0.277 C  
HETATM   34  C   UNL     1      -8.693   6.742  72.555  1.00  0.00    -0.129 C  
HETATM   35  C   UNL     1      -8.286   8.184  72.166  1.00  0.00    -0.209 C  
BRANCH  17  36
HETATM   36  C   UNL     1      -6.797   5.247  69.672  1.00  0.00    -0.056 C  
HETATM   37  C   UNL     1      -5.838   5.996  69.110  1.00  0.00    -0.019 C  
ENDBRANCH  17  36
ENDBRANCH  14  15
ENDBRANCH  12  14
ENDBRANCH  11  12
ENDBRANCH  10  11
ENDBRANCH   8  10
TORSDOF 6
ENDMDL
MODEL       99
REMARK 921   NORMALIZED FREE ENERGY PREDICTED BY IDOCK:   -4.33 KCAL/MOL
REMARK 922        TOTAL FREE ENERGY PREDICTED BY IDOCK:   -7.60 KCAL/MOL
REMARK 923 INTER-LIGAND FREE ENERGY PREDICTED BY IDOCK:   -6.82 KCAL/MOL
REMARK 924 INTRA-LIGAND FREE ENERGY PREDICTED BY IDOCK:   -0.79 KCAL/MOL
REMARK 927      BINDING AFFINITY PREDICTED BY RF-SCORE:    0.00 PKD
ROOT
HETATM    1  C   UNL     1      -9.357  15.196  67.367  1.00  0.00    -0.196 C  
HETATM    2  C   UNL     1      -8.956  16.308  68.358  1.00  0.00    -0.203 C  
HETATM    3  C   UNL     1     -10.286  16.790  68.939  1.00  0.00    -0.304 C  
HETATM    4  C   UNL     1     -11.353  15.934  68.226  1.00  0.00    -0.342 C  
HETATM    5  C   UNL     1     -11.716  14.602  68.965  1.00  0.00    -0.339 C  
HETATM    6  N   UNL     1     -10.656  15.721  66.953  1.00  0.00    -0.317 NA 
HETATM    7  C   UNL     1     -11.342  14.960  65.942  1.00  0.00    -0.306 C  
HETATM    8  C   UNL     1     -10.842  13.359  68.629  1.00  0.00    -0.263 C  
HETATM    9  C   UNL     1      -9.470  13.755  67.964  1.00  0.00    -0.207 C  
ENDROOT
BRANCH   8  10
HETATM   10  S   UNL     1     -11.706  11.450  68.241  1.00  0.00    -0.251 SA 
BRANCH  10  11
HETATM   11  C   UNL     1     -12.072  10.475  69.806  1.00  0.00    -0.214 C  
BRANCH  11  12
HETATM   12  C   UNL     1     -11.108   9.358  70.588  1.00  0.00    -0.289 C  
HETATM   13  O   UNL     1     -10.060   9.814  71.067  1.00  0.00    -0.216 OA 
BRANCH  12  14
HETATM   14  O   UNL     1     -11.330   7.991  70.727  1.00  0.00    -0.272 OA 
BRANCH  14  15
HETATM   15  C   UNL     1     -10.146   6.890  70.771  1.00  0.00    -0.194 C  
HETATM   16  C   UNL     1     -10.086   6.601  69.182  1.00  0.00    -0.185 C  
HETATM   17  C   UNL     1      -8.950   5.761  68.542  1.00  0.00    -0.112 C  
HETATM   18  C   UNL     1      -7.435   3.517  71.802  1.00  0.00    -0.052 C  
HETATM   19  C   UNL     1      -8.750   5.859  67.009  1.00  0.00    -0.109 C  
HETATM   20  C   UNL     1      -9.407   4.287  68.766  1.00  0.00    -0.153 C  
HETATM   21  O   UNL     1     -10.033   3.621  67.672  1.00  0.00    -0.144 OA 
HETATM   22  C   UNL     1      -8.346   3.451  69.432  1.00  0.00    -0.086 C  
HETATM   23  C   UNL     1      -7.282   4.902  72.473  1.00  0.00    -0.083 C  
HETATM   24  C   UNL     1      -8.712   3.219  70.959  1.00  0.00    -0.124 C  
HETATM   25  C   UNL     1      -7.953   2.199  68.606  1.00  0.00    -0.061 C  
HETATM   26  H   UNL     1     -10.312   2.723  67.809  1.00  0.00     0.000 HD 
HETATM   27  C   UNL     1      -9.140   1.721  71.060  1.00  0.00    -0.144 C  
HETATM   28  C   UNL     1      -9.813   1.535  72.383  1.00  0.00    -0.174 C  
HETATM   29  C   UNL     1     -10.461   2.877  72.586  1.00  0.00    -0.099 C  
HETATM   30  C   UNL     1      -9.986   3.982  71.568  1.00  0.00    -0.220 C  
HETATM   31  O   UNL     1     -11.369   2.981  73.376  1.00  0.00    -0.193 OA 
HETATM   32  C   UNL     1      -9.916   5.560  72.033  1.00  0.00    -0.225 C  
HETATM   33  C   UNL     1     -10.895   5.673  73.274  1.00  0.00    -0.321 C  
HETATM   34  C   UNL     1      -8.527   5.745  72.825  1.00  0.00    -0.119 C  
HETATM   35  C   UNL     1      -8.273   7.230  73.179  1.00  0.00    -0.129 C  
BRANCH  17  36
HETATM   36  C   UNL     1      -7.667   6.284  69.204  1.00  0.00    -0.100 C  
HETATM   37  C   UNL     1      -6.772   7.161  68.728  1.00  0.00    -0.067 C  
ENDBRANCH  17  36
ENDBRANCH  14  15
ENDBRANCH  12  14
ENDBRANCH  11  12
ENDBRANCH  10  11
ENDBRANCH   8  10
TORSDOF 6
ENDMDL
MODEL      100
REMARK 921   NORMALIZED FREE ENERGY PREDICTED BY IDOCK:   -4.31 KCAL/MOL
REMARK 922        TOTAL FREE ENERGY PREDICTED BY IDOCK:   -7.57 KCAL/MOL
REMARK 923 INTER-LIGAND FREE ENERGY PREDICTED BY IDOCK:   -6.20 KCAL/MOL
REMARK 924 INTRA-LIGAND FREE ENERGY PREDICTED BY IDOCK:   -1.37 KCAL/MOL
REMARK 927      BINDING AFFINITY PREDICTED BY RF-SCORE:    0.00 PKD
ROOT
HETATM    1  C   UNL     1     -11.857  14.702  69.278  1.00  0.00    -0.321 C  
HETATM    2  C   UNL     1     -12.296  14.266  70.691  1.00  0.00    -0.431 C  
HETATM    3  C   UNL     1     -12.419  12.745  70.593  1.00  0.00    -0.328 C  
HETATM    4  C   UNL     1     -12.058  12.422  69.128  1.00  0.00    -0.146 C  
HETATM    5  C   UNL     1     -10.538  12.138  68.882  1.00  0.00    -0.179 C  
HETATM    6  N   UNL     1     -12.527  13.663  68.502  1.00  0.00     0.087 NA 
HETATM    7  C   UNL     1     -12.399  13.772  67.073  1.00  0.00    -0.247 C  
HETATM    8  C   UNL     1      -9.641  13.372  68.577  1.00  0.00    -0.141 C  
HETATM    9  C   UNL     1     -10.314  14.725  69.019  1.00  0.00    -0.243 C  
ENDROOT
BRANCH   8  10
HETATM   10  S   UNL     1      -8.209  13.357  66.997  1.00  0.00     0.048 SA 
BRANCH  10  11
HETATM   11  C   UNL     1      -7.517  11.644  66.647  1.00  0.00    -0.037 C  
BRANCH  11  12
HETATM   12  C   UNL     1      -6.269  10.846  67.417  1.00  0.00    -0.056 C  
HETATM   13  O   UNL     1      -5.141  11.321  67.216  1.00  0.00    -0.042 OA 
BRANCH  12  14
HETATM   14  O   UNL     1      -6.349   9.709  68.214  1.00  0.00    -0.055 OA 
BRANCH  14  15
HETATM   15  C   UNL     1      -7.682   8.803  68.351  1.00  0.00    -0.096 C  
HETATM   16  C   UNL     1      -7.734   8.773  69.965  1.00  0.00    -0.082 C  
HETATM   17  C   UNL     1      -8.960   8.219  70.738  1.00  0.00    -0.166 C  
HETATM   18  C   UNL     1     -10.886   5.753  67.880  1.00  0.00    -0.257 C  
HETATM   19  C   UNL     1      -9.096   8.579  72.239  1.00  0.00    -0.318 C  
HETATM   20  C   UNL     1      -8.730   6.676  70.743  1.00  0.00    -0.143 C  
HETATM   21  O   UNL     1      -8.174   6.099  71.923  1.00  0.00    -0.113 OA 
HETATM   22  C   UNL     1      -9.922   5.915  70.224  1.00  0.00    -0.247 C  
HETATM   23  C   UNL     1     -10.856   7.027  67.003  1.00  0.00    -0.413 C  
HETATM   24  C   UNL     1      -9.641   5.401  68.749  1.00  0.00    -0.182 C  
HETATM   25  C   UNL     1     -10.467   4.877  71.239  1.00  0.00    -0.168 C  
HETATM   26  H   UNL     1      -8.033   5.160  71.925  1.00  0.00     0.000 HD 
HETATM   27  C   UNL     1      -9.440   3.858  68.879  1.00  0.00    -0.234 C  
HETATM   28  C   UNL     1      -8.842   3.375  67.596  1.00  0.00    -0.152 C  
HETATM   29  C   UNL     1      -8.012   4.558  67.181  1.00  0.00    -0.101 C  
HETATM   30  C   UNL     1      -8.289   5.863  68.018  1.00  0.00    -0.111 C  
HETATM   31  O   UNL     1      -7.123   4.403  66.377  1.00  0.00    -0.067 OA 
HETATM   32  C   UNL     1      -8.143   7.345  67.313  1.00  0.00    -0.112 C  
HETATM   33  C   UNL     1      -7.197   7.120  66.063  1.00  0.00    -0.074 C  
HETATM   34  C   UNL     1      -9.513   7.611  66.513  1.00  0.00    -0.250 C  
HETATM   35  C   UNL     1      -9.560   9.045  65.934  1.00  0.00    -0.317 C  
BRANCH  17  36
HETATM   36  C   UNL     1     -10.173   8.819  70.013  1.00  0.00    -0.208 C  
HETATM   37  C   UNL     1     -11.391   9.097  70.499  1.00  0.00    -0.300 C  
ENDBRANCH  17  36
ENDBRANCH  14  15
ENDBRANCH  12  14
ENDBRANCH  11  12
ENDBRANCH  10  11
ENDBRANCH   8  10
TORSDOF 6
ENDMDL
MODEL      101
REMARK 921   NORMALIZED FREE ENERGY PREDICTED BY IDOCK:   -4.30 KCAL/MOL
REMARK 922        TOTAL FREE ENERGY PREDICTED BY IDOCK:   -7.57 KCAL/MOL
REMARK 923 INTER-LIGAND FREE ENERGY PREDICTED BY IDOCK:   -6.42 KCAL/MOL
REMARK 924 INTRA-LIGAND FREE ENERGY PREDICTED BY IDOCK:   -1.15 KCAL/MOL
REMARK 927      BINDING AFFINITY PREDICTED BY RF-SCORE:    0.00 PKD
ROOT
HETATM    1  C   UNL     1     -10.715  14.256  67.643  1.00  0.00    -0.258 C  
HETATM    2  C   UNL     1     -11.134  14.647  69.075  1.00  0.00    -0.273 C  
HETATM    3  C   UNL     1     -11.870  13.415  69.602  1.00  0.00    -0.394 C  
HETATM    4  C   UNL     1     -11.835  12.413  68.428  1.00  0.00    -0.309 C  
HETATM    5  C   UNL     1     -10.596  11.456  68.429  1.00  0.00    -0.230 C  
HETATM    6  N   UNL     1     -11.830  13.370  67.316  1.00  0.00    -0.372 NA 
HETATM    7  C   UNL     1     -11.828  12.834  65.982  1.00  0.00    -0.439 C  
HETATM    8  C   UNL     1      -9.317  11.972  67.709  1.00  0.00    -0.190 C  
HETATM    9  C   UNL     1      -9.334  13.535  67.508  1.00  0.00    -0.220 C  
ENDROOT
BRANCH   8  10
HETATM   10  S   UNL     1      -8.198  10.736  66.381  1.00  0.00    -0.159 SA 
BRANCH  10  11
HETATM   11  C   UNL     1      -7.565   9.165  67.195  1.00  0.00    -0.091 C  
BRANCH  11  12
HETATM   12  C   UNL     1      -6.753   8.996  68.645  1.00  0.00    -0.058 C  
HETATM   13  O   UNL     1      -6.368  10.057  69.156  1.00  0.00    -0.043 OA 
BRANCH  12  14
HETATM   14  O   UNL     1      -6.437   7.815  69.310  1.00  0.00    -0.035 OA 
BRANCH  14  15
HETATM   15  C   UNL     1      -7.526   6.680  69.687  1.00  0.00    -0.096 C  
HETATM   16  C   UNL     1      -8.601   7.662  70.386  1.00  0.00    -0.138 C  
HETATM   17  C   UNL     1     -10.024   7.180  70.774  1.00  0.00    -0.194 C  
HETATM   18  C   UNL     1      -9.607   2.968  70.983  1.00  0.00    -0.224 C  
HETATM   19  C   UNL     1     -11.100   8.255  71.069  1.00  0.00    -0.284 C  
HETATM   20  C   UNL     1      -9.814   6.474  72.150  1.00  0.00    -0.157 C  
HETATM   21  O   UNL     1     -10.132   7.218  73.324  1.00  0.00    -0.230 OA 
HETATM   22  C   UNL     1     -10.377   5.077  72.170  1.00  0.00    -0.276 C  
HETATM   23  C   UNL     1      -9.051   3.115  69.547  1.00  0.00    -0.198 C  
HETATM   24  C   UNL     1      -9.202   4.014  72.065  1.00  0.00    -0.174 C  
HETATM   25  C   UNL     1     -11.421   4.861  73.296  1.00  0.00    -0.359 C  
HETATM   26  H   UNL     1     -10.004   6.788  74.161  1.00  0.00     0.000 HD 
HETATM   27  C   UNL     1      -9.095   3.373  73.484  1.00  0.00    -0.099 C  
HETATM   28  C   UNL     1      -7.802   2.622  73.540  1.00  0.00    -0.055 C  
HETATM   29  C   UNL     1      -6.927   3.455  72.644  1.00  0.00    -0.042 C  
HETATM   30  C   UNL     1      -7.708   4.543  71.813  1.00  0.00    -0.091 C  
HETATM   31  O   UNL     1      -5.727   3.348  72.726  1.00  0.00    -0.007 OA 
HETATM   32  C   UNL     1      -7.178   4.977  70.315  1.00  0.00    -0.054 C  
HETATM   33  C   UNL     1      -5.645   4.579  70.284  1.00  0.00    -0.012 C  
HETATM   34  C   UNL     1      -7.721   3.858  69.294  1.00  0.00    -0.053 C  
HETATM   35  C   UNL     1      -7.419   4.241  67.825  1.00  0.00    -0.069 C  
BRANCH  17  36
HETATM   36  C   UNL     1     -10.502   6.377  69.556  1.00  0.00    -0.279 C  
HETATM   37  C   UNL     1     -11.011   6.825  68.400  1.00  0.00    -0.257 C  
ENDBRANCH  17  36
ENDBRANCH  14  15
ENDBRANCH  12  14
ENDBRANCH  11  12
ENDBRANCH  10  11
ENDBRANCH   8  10
TORSDOF 6
ENDMDL
MODEL      102
REMARK 921   NORMALIZED FREE ENERGY PREDICTED BY IDOCK:   -4.30 KCAL/MOL
REMARK 922        TOTAL FREE ENERGY PREDICTED BY IDOCK:   -7.55 KCAL/MOL
REMARK 923 INTER-LIGAND FREE ENERGY PREDICTED BY IDOCK:   -6.51 KCAL/MOL
REMARK 924 INTRA-LIGAND FREE ENERGY PREDICTED BY IDOCK:   -1.05 KCAL/MOL
REMARK 927      BINDING AFFINITY PREDICTED BY RF-SCORE:    0.00 PKD
ROOT
HETATM    1  C   UNL     1     -12.096  13.163  65.475  1.00  0.00    -0.442 C  
HETATM    2  C   UNL     1     -12.765  12.381  64.325  1.00  0.00    -0.437 C  
HETATM    3  C   UNL     1     -11.600  11.971  63.423  1.00  0.00    -0.495 C  
HETATM    4  C   UNL     1     -10.352  12.562  64.111  1.00  0.00    -0.390 C  
HETATM    5  C   UNL     1      -9.662  11.603  65.138  1.00  0.00    -0.245 C  
HETATM    6  N   UNL     1     -10.973  13.734  64.736  1.00  0.00    -0.371 NA 
HETATM    7  C   UNL     1     -10.118  14.616  65.485  1.00  0.00    -0.377 C  
HETATM    8  C   UNL     1     -10.192  11.652  66.600  1.00  0.00    -0.216 C  
HETATM    9  C   UNL     1     -11.621  12.309  66.696  1.00  0.00    -0.438 C  
ENDROOT
BRANCH   8  10
HETATM   10  S   UNL     1      -8.873  11.715  68.273  1.00  0.00    -0.164 SA 
BRANCH  10  11
HETATM   11  C   UNL     1      -7.117  11.194  67.846  1.00  0.00    -0.081 C  
BRANCH  11  12
HETATM   12  C   UNL     1      -6.592   9.767  67.158  1.00  0.00    -0.070 C  
HETATM   13  O   UNL     1      -6.556   9.764  65.919  1.00  0.00    -0.076 OA 
BRANCH  12  14
HETATM   14  O   UNL     1      -6.230   8.591  67.808  1.00  0.00    -0.050 OA 
BRANCH  14  15
HETATM   15  C   UNL     1      -7.237   7.737  68.743  1.00  0.00    -0.081 C  
HETATM   16  C   UNL     1      -6.290   7.677  70.050  1.00  0.00    -0.034 C  
HETATM   17  C   UNL     1      -6.807   7.158  71.417  1.00  0.00    -0.059 C  
HETATM   18  C   UNL     1     -10.187   4.829  70.365  1.00  0.00    -0.261 C  
HETATM   19  C   UNL     1      -5.978   7.494  72.683  1.00  0.00    -0.040 C  
HETATM   20  C   UNL     1      -6.690   5.607  71.294  1.00  0.00    -0.053 C  
HETATM   21  O   UNL     1      -5.554   4.986  71.890  1.00  0.00    -0.007 OA 
HETATM   22  C   UNL     1      -7.983   4.906  71.622  1.00  0.00    -0.111 C  
HETATM   23  C   UNL     1     -10.646   6.118  69.641  1.00  0.00    -0.347 C  
HETATM   24  C   UNL     1      -8.688   4.410  70.290  1.00  0.00    -0.119 C  
HETATM   25  C   UNL     1      -7.836   3.871  72.767  1.00  0.00    -0.075 C  
HETATM   26  H   UNL     1      -5.483   4.042  71.814  1.00  0.00     0.000 HD 
HETATM   27  C   UNL     1      -8.517   2.858  70.283  1.00  0.00    -0.094 C  
HETATM   28  C   UNL     1      -8.855   2.376  68.908  1.00  0.00    -0.149 C  
HETATM   29  C   UNL     1      -8.402   3.533  68.060  1.00  0.00    -0.084 C  
HETATM   30  C   UNL     1      -8.049   4.832  68.879  1.00  0.00    -0.082 C  
HETATM   31  O   UNL     1      -8.201   3.358  66.882  1.00  0.00    -0.090 OA 
HETATM   32  C   UNL     1      -8.301   6.320  68.219  1.00  0.00    -0.115 C  
HETATM   33  C   UNL     1      -8.332   6.081  66.653  1.00  0.00    -0.111 C  
HETATM   34  C   UNL     1      -9.861   6.656  68.426  1.00  0.00    -0.138 C  
HETATM   35  C   UNL     1     -10.189   8.103  67.984  1.00  0.00    -0.263 C  
BRANCH  17  36
HETATM   36  C   UNL     1      -8.182   7.821  71.583  1.00  0.00    -0.121 C  
HETATM   37  C   UNL     1      -8.551   9.077  71.291  1.00  0.00    -0.221 C  
ENDBRANCH  17  36
ENDBRANCH  14  15
ENDBRANCH  12  14
ENDBRANCH  11  12
ENDBRANCH  10  11
ENDBRANCH   8  10
TORSDOF 6
ENDMDL
MODEL      103
REMARK 921   NORMALIZED FREE ENERGY PREDICTED BY IDOCK:   -4.29 KCAL/MOL
REMARK 922        TOTAL FREE ENERGY PREDICTED BY IDOCK:   -7.54 KCAL/MOL
REMARK 923 INTER-LIGAND FREE ENERGY PREDICTED BY IDOCK:   -6.69 KCAL/MOL
REMARK 924 INTRA-LIGAND FREE ENERGY PREDICTED BY IDOCK:   -0.86 KCAL/MOL
REMARK 927      BINDING AFFINITY PREDICTED BY RF-SCORE:    0.00 PKD
ROOT
HETATM    1  C   UNL     1      -9.674   6.563  70.201  1.00  0.00    -0.167 C  
HETATM    2  C   UNL     1      -9.685   5.081  69.773  1.00  0.00    -0.266 C  
HETATM    3  C   UNL     1     -10.033   4.323  71.055  1.00  0.00    -0.223 C  
HETATM    4  C   UNL     1     -10.179   5.424  72.127  1.00  0.00    -0.203 C  
HETATM    5  C   UNL     1     -11.630   5.992  72.279  1.00  0.00    -0.359 C  
HETATM    6  N   UNL     1      -9.227   6.397  71.581  1.00  0.00    -0.145 NA 
HETATM    7  C   UNL     1      -9.028   7.614  72.322  1.00  0.00    -0.135 C  
HETATM    8  C   UNL     1     -12.012   7.183  71.352  1.00  0.00    -0.328 C  
HETATM    9  C   UNL     1     -11.046   7.310  70.114  1.00  0.00    -0.281 C  
ENDROOT
BRANCH   8  10
HETATM   10  S   UNL     1     -13.031   8.902  72.093  1.00  0.00    -0.436 SA 
BRANCH  10  11
HETATM   11  C   UNL     1     -12.609  10.472  71.148  1.00  0.00    -0.417 C  
BRANCH  11  12
HETATM   12  C   UNL     1     -12.921  12.058  71.569  1.00  0.00    -0.304 C  
HETATM   13  O   UNL     1     -13.377  12.217  72.710  1.00  0.00    -0.060 OA 
BRANCH  12  14
HETATM   14  O   UNL     1     -12.762  13.194  70.781  1.00  0.00    -0.273 OA 
BRANCH  14  15
HETATM   15  C   UNL     1     -11.516  13.419  69.774  1.00  0.00    -0.166 C  
HETATM   16  C   UNL     1     -11.426  15.024  69.928  1.00  0.00    -0.320 C  
HETATM   17  C   UNL     1     -10.238  15.840  69.353  1.00  0.00    -0.262 C  
HETATM   18  C   UNL     1      -8.625  13.268  66.396  1.00  0.00     0.313 C  
HETATM   19  C   UNL     1     -10.031  17.285  69.871  1.00  0.00     0.566 C  
HETATM   20  C   UNL     1     -10.612  16.032  67.851  1.00  0.00    -0.301 C  
HETATM   21  O   UNL     1     -11.189  17.279  67.472  1.00  0.00    -0.074 OA 
HETATM   22  C   UNL     1      -9.509  15.589  66.924  1.00  0.00    -0.244 C  
HETATM   23  C   UNL     1      -8.558  12.246  67.556  1.00  0.00    -0.174 C  
HETATM   24  C   UNL     1      -9.875  14.190  66.270  1.00  0.00    -0.321 C  
HETATM   25  C   UNL     1      -9.039  16.713  65.964  1.00  0.00    -0.259 C  
HETATM   26  H   UNL     1     -11.417  17.395  66.558  1.00  0.00     0.000 HD 
HETATM   27  C   UNL     1     -10.216  14.506  64.779  1.00  0.00    -0.234 C  
HETATM   28  C   UNL     1     -10.889  13.298  64.208  1.00  0.00    -0.414 C  
HETATM   29  C   UNL     1     -11.615  12.757  65.409  1.00  0.00    -0.358 C  
HETATM   30  C   UNL     1     -11.196  13.429  66.771  1.00  0.00    -0.332 C  
HETATM   31  O   UNL     1     -12.535  11.990  65.247  1.00  0.00    -0.427 OA 
HETATM   32  C   UNL     1     -11.221  12.555  68.167  1.00  0.00    -0.312 C  
HETATM   33  C   UNL     1     -12.215  11.354  67.889  1.00  0.00     0.385 C  
HETATM   34  C   UNL     1      -9.852  11.710  68.204  1.00  0.00    -0.191 C  
HETATM   35  C   UNL     1      -9.687  10.964  69.551  1.00  0.00     0.077 C  
BRANCH  17  36
HETATM   36  C   UNL     1      -8.993  15.032  69.745  1.00  0.00     0.115 C  
HETATM   37  C   UNL     1      -7.703  15.391  69.685  1.00  0.00    -0.156 C  
ENDBRANCH  17  36
ENDBRANCH  14  15
ENDBRANCH  12  14
ENDBRANCH  11  12
ENDBRANCH  10  11
ENDBRANCH   8  10
TORSDOF 6
ENDMDL
MODEL      104
REMARK 921   NORMALIZED FREE ENERGY PREDICTED BY IDOCK:   -4.27 KCAL/MOL
REMARK 922        TOTAL FREE ENERGY PREDICTED BY IDOCK:   -7.52 KCAL/MOL
REMARK 923 INTER-LIGAND FREE ENERGY PREDICTED BY IDOCK:   -6.84 KCAL/MOL
REMARK 924 INTRA-LIGAND FREE ENERGY PREDICTED BY IDOCK:   -0.69 KCAL/MOL
REMARK 927      BINDING AFFINITY PREDICTED BY RF-SCORE:    0.00 PKD
ROOT
HETATM    1  C   UNL     1      -9.006  19.858  66.590  1.00  0.00    -0.372 C  
HETATM    2  C   UNL     1      -7.554  20.168  66.170  1.00  0.00    -0.294 C  
HETATM    3  C   UNL     1      -6.704  19.576  67.295  1.00  0.00    -0.216 C  
HETATM    4  C   UNL     1      -7.730  18.987  68.286  1.00  0.00    -0.311 C  
HETATM    5  C   UNL     1      -8.103  17.490  68.019  1.00  0.00    -0.237 C  
HETATM    6  N   UNL     1      -8.838  19.915  68.039  1.00  0.00    -0.301 NA 
HETATM    7  C   UNL     1     -10.038  19.732  68.812  1.00  0.00    -0.421 C  
HETATM    8  C   UNL     1      -9.274  17.230  67.028  1.00  0.00    -0.243 C  
HETATM    9  C   UNL     1      -9.575  18.480  66.118  1.00  0.00    -0.203 C  
ENDROOT
BRANCH   8  10
HETATM   10  S   UNL     1     -10.816  15.822  67.455  1.00  0.00    -0.276 SA 
BRANCH  10  11
HETATM   11  C   UNL     1     -10.330  14.052  67.052  1.00  0.00    -0.267 C  
BRANCH  11  12
HETATM   12  C   UNL     1      -9.460  12.972  67.982  1.00  0.00    -0.217 C  
HETATM   13  O   UNL     1      -8.331  13.359  68.316  1.00  0.00    -0.154 OA 
BRANCH  12  14
HETATM   14  O   UNL     1      -9.842  11.697  68.387  1.00  0.00    -0.193 OA 
BRANCH  14  15
HETATM   15  C   UNL     1      -8.948  10.372  68.138  1.00  0.00    -0.132 C  
HETATM   16  C   UNL     1      -8.600  10.657  66.587  1.00  0.00    -0.139 C  
HETATM   17  C   UNL     1      -7.548   9.821  65.812  1.00  0.00    -0.108 C  
HETATM   18  C   UNL     1      -7.281   6.248  68.076  1.00  0.00    -0.087 C  
HETATM   19  C   UNL     1      -6.999  10.394  64.482  1.00  0.00    -0.003 C  
HETATM   20  C   UNL     1      -8.336   8.547  65.374  1.00  0.00    -0.156 C  
HETATM   21  O   UNL     1      -8.828   8.508  64.037  1.00  0.00    -0.414 OA 
HETATM   22  C   UNL     1      -7.641   7.274  65.781  1.00  0.00    -0.091 C  
HETATM   23  C   UNL     1      -6.999   7.209  69.255  1.00  0.00    -0.070 C  
HETATM   24  C   UNL     1      -8.374   6.628  67.032  1.00  0.00    -0.113 C  
HETATM   25  C   UNL     1      -7.342   6.337  64.582  1.00  0.00    -0.073 C  
HETATM   26  H   UNL     1      -9.308   7.733  63.771  1.00  0.00     0.000 HD 
HETATM   27  C   UNL     1      -9.111   5.369  66.477  1.00  0.00    -0.135 C  
HETATM   28  C   UNL     1     -10.082   4.921  67.522  1.00  0.00    -0.184 C  
HETATM   29  C   UNL     1     -10.471   6.227  68.159  1.00  0.00    -0.226 C  
HETATM   30  C   UNL     1      -9.567   7.445  67.730  1.00  0.00    -0.162 C  
HETATM   31  O   UNL     1     -11.489   6.290  68.805  1.00  0.00    -0.294 OA 
HETATM   32  C   UNL     1      -9.279   8.674  68.788  1.00  0.00    -0.142 C  
HETATM   33  C   UNL     1     -10.462   8.605  69.839  1.00  0.00    -0.221 C  
HETATM   34  C   UNL     1      -8.091   8.179  69.754  1.00  0.00    -0.116 C  
HETATM   35  C   UNL     1      -7.622   9.314  70.697  1.00  0.00    -0.161 C  
BRANCH  17  36
HETATM   36  C   UNL     1      -6.363   9.703  66.782  1.00  0.00    -0.066 C  
HETATM   37  C   UNL     1      -5.438  10.622  67.095  1.00  0.00    -0.042 C  
ENDBRANCH  17  36
ENDBRANCH  14  15
ENDBRANCH  12  14
ENDBRANCH  11  12
ENDBRANCH  10  11
ENDBRANCH   8  10
TORSDOF 6
ENDMDL
MODEL      105
REMARK 921   NORMALIZED FREE ENERGY PREDICTED BY IDOCK:   -4.27 KCAL/MOL
REMARK 922        TOTAL FREE ENERGY PREDICTED BY IDOCK:   -7.52 KCAL/MOL
REMARK 923 INTER-LIGAND FREE ENERGY PREDICTED BY IDOCK:   -6.81 KCAL/MOL
REMARK 924 INTRA-LIGAND FREE ENERGY PREDICTED BY IDOCK:   -0.71 KCAL/MOL
REMARK 927      BINDING AFFINITY PREDICTED BY RF-SCORE:    0.00 PKD
ROOT
HETATM    1  C   UNL     1     -11.035  14.919  66.344  1.00  0.00    -0.336 C  
HETATM    2  C   UNL     1     -10.745  15.274  67.817  1.00  0.00    -0.286 C  
HETATM    3  C   UNL     1     -11.395  14.140  68.611  1.00  0.00    -0.306 C  
HETATM    4  C   UNL     1     -12.024  13.227  67.537  1.00  0.00    -0.324 C  
HETATM    5  C   UNL     1     -11.082  12.089  67.020  1.00  0.00    -0.351 C  
HETATM    6  N   UNL     1     -12.318  14.245  66.522  1.00  0.00    -0.406 NA 
HETATM    7  C   UNL     1     -12.965  13.806  65.314  1.00  0.00    -0.278 C  
HETATM    8  C   UNL     1     -10.151  12.445  65.825  1.00  0.00    -0.253 C  
HETATM    9  C   UNL     1      -9.982  14.001  65.642  1.00  0.00    -0.309 C  
ENDROOT
BRANCH   8  10
HETATM   10  S   UNL     1      -9.916  11.141  64.155  1.00  0.00    -0.347 SA 
BRANCH  10  11
HETATM   11  C   UNL     1      -9.294   9.434  64.636  1.00  0.00    -0.044 C  
BRANCH  11  12
HETATM   12  C   UNL     1      -9.076   8.795  66.163  1.00  0.00    -0.202 C  
HETATM   13  O   UNL     1      -8.637   9.591  67.006  1.00  0.00    -0.126 OA 
BRANCH  12  14
HETATM   14  O   UNL     1      -9.295   7.485  66.577  1.00  0.00    -0.172 OA 
BRANCH  14  15
HETATM   15  C   UNL     1      -8.941   6.942  68.059  1.00  0.00    -0.121 C  
HETATM   16  C   UNL     1     -10.345   7.336  68.754  1.00  0.00    -0.209 C  
HETATM   17  C   UNL     1     -10.720   6.854  70.180  1.00  0.00    -0.270 C  
HETATM   18  C   UNL     1      -6.971   5.899  71.909  1.00  0.00    -0.081 C  
HETATM   19  C   UNL     1     -12.206   6.941  70.609  1.00  0.00    -0.311 C  
HETATM   20  C   UNL     1     -10.000   7.872  71.118  1.00  0.00    -0.173 C  
HETATM   21  O   UNL     1     -10.783   8.935  71.657  1.00  0.00    -0.293 OA 
HETATM   22  C   UNL     1      -9.142   7.193  72.153  1.00  0.00    -0.143 C  
HETATM   23  C   UNL     1      -6.804   5.007  70.656  1.00  0.00    -0.040 C  
HETATM   24  C   UNL     1      -7.610   7.312  71.755  1.00  0.00    -0.086 C  
HETATM   25  C   UNL     1      -9.523   7.580  73.605  1.00  0.00    -0.338 C  
HETATM   26  H   UNL     1     -10.344   9.555  72.227  1.00  0.00     0.000 HD 
HETATM   27  C   UNL     1      -7.000   8.339  72.760  1.00  0.00    -0.119 C  
HETATM   28  C   UNL     1      -5.662   8.745  72.228  1.00  0.00    -0.063 C  
HETATM   29  C   UNL     1      -5.886   8.664  70.743  1.00  0.00    -0.033 C  
HETATM   30  C   UNL     1      -7.233   7.955  70.334  1.00  0.00    -0.053 C  
HETATM   31  O   UNL     1      -5.136   9.250  69.999  1.00  0.00    -0.029 OA 
HETATM   32  C   UNL     1      -7.321   7.090  68.935  1.00  0.00    -0.093 C  
HETATM   33  C   UNL     1      -6.146   7.643  68.028  1.00  0.00    -0.040 C  
HETATM   34  C   UNL     1      -6.696   5.641  69.251  1.00  0.00    -0.060 C  
HETATM   35  C   UNL     1      -6.866   4.679  68.050  1.00  0.00    -0.056 C  
BRANCH  17  36
HETATM   36  C   UNL     1     -10.326   5.371  70.199  1.00  0.00    -0.361 C  
HETATM   37  C   UNL     1     -10.368   4.502  71.219  1.00  0.00    -0.102 C  
ENDBRANCH  17  36
ENDBRANCH  14  15
ENDBRANCH  12  14
ENDBRANCH  11  12
ENDBRANCH  10  11
ENDBRANCH   8  10
TORSDOF 6
ENDMDL
MODEL      106
REMARK 921   NORMALIZED FREE ENERGY PREDICTED BY IDOCK:   -4.26 KCAL/MOL
REMARK 922        TOTAL FREE ENERGY PREDICTED BY IDOCK:   -7.51 KCAL/MOL
REMARK 923 INTER-LIGAND FREE ENERGY PREDICTED BY IDOCK:   -6.41 KCAL/MOL
REMARK 924 INTRA-LIGAND FREE ENERGY PREDICTED BY IDOCK:   -1.10 KCAL/MOL
REMARK 927      BINDING AFFINITY PREDICTED BY RF-SCORE:    0.00 PKD
ROOT
HETATM    1  C   UNL     1     -10.835   3.394  73.486  1.00  0.00    -0.227 C  
HETATM    2  C   UNL     1     -10.475   2.167  74.349  1.00  0.00    -0.192 C  
HETATM    3  C   UNL     1      -8.962   2.020  74.178  1.00  0.00    -0.069 C  
HETATM    4  C   UNL     1      -8.569   3.161  73.218  1.00  0.00    -0.081 C  
HETATM    5  C   UNL     1      -8.180   4.501  73.928  1.00  0.00    -0.104 C  
HETATM    6  N   UNL     1      -9.816   3.249  72.451  1.00  0.00    -0.147 NA 
HETATM    7  C   UNL     1      -9.870   4.214  71.385  1.00  0.00    -0.184 C  
HETATM    8  C   UNL     1      -9.344   5.488  74.237  1.00  0.00    -0.133 C  
HETATM    9  C   UNL     1     -10.751   4.781  74.203  1.00  0.00    -0.329 C  
ENDROOT
BRANCH   8  10
HETATM   10  S   UNL     1      -9.186   7.574  73.830  1.00  0.00    -0.273 SA 
BRANCH  10  11
HETATM   11  C   UNL     1     -10.448   8.178  72.574  1.00  0.00    -0.339 C  
BRANCH  11  12
HETATM   12  C   UNL     1     -10.246   9.285  71.341  1.00  0.00    -0.301 C  
HETATM   13  O   UNL     1     -11.228  10.009  71.121  1.00  0.00    -0.350 OA 
BRANCH  12  14
HETATM   14  O   UNL     1      -9.131   9.458  70.527  1.00  0.00    -0.236 OA 
BRANCH  14  15
HETATM   15  C   UNL     1      -9.128   9.167  68.936  1.00  0.00    -0.139 C  
HETATM   16  C   UNL     1      -8.690   7.615  69.021  1.00  0.00    -0.136 C  
HETATM   17  C   UNL     1      -8.729   6.681  67.782  1.00  0.00    -0.116 C  
HETATM   18  C   UNL     1      -8.660   9.382  64.517  1.00  0.00    -0.219 C  
HETATM   19  C   UNL     1      -8.674   5.152  68.023  1.00  0.00    -0.102 C  
HETATM   20  C   UNL     1      -7.391   6.991  67.042  1.00  0.00    -0.086 C  
HETATM   21  O   UNL     1      -6.305   6.090  67.243  1.00  0.00    -0.035 OA 
HETATM   22  C   UNL     1      -7.605   7.337  65.591  1.00  0.00    -0.089 C  
HETATM   23  C   UNL     1      -9.882  10.014  65.226  1.00  0.00    -0.388 C  
HETATM   24  C   UNL     1      -7.451   8.902  65.375  1.00  0.00    -0.086 C  
HETATM   25  C   UNL     1      -6.817   6.413  64.626  1.00  0.00    -0.043 C  
HETATM   26  H   UNL     1      -5.491   6.279  66.793  1.00  0.00     0.000 HD 
HETATM   27  C   UNL     1      -6.095   9.085  64.622  1.00  0.00    -0.066 C  
HETATM   28  C   UNL     1      -5.736  10.535  64.693  1.00  0.00    -0.104 C  
HETATM   29  C   UNL     1      -6.312  10.928  66.026  1.00  0.00    -0.102 C  
HETATM   30  C   UNL     1      -7.258   9.841  66.663  1.00  0.00    -0.090 C  
HETATM   31  O   UNL     1      -5.916  11.931  66.569  1.00  0.00    -0.196 OA 
HETATM   32  C   UNL     1      -8.530  10.299  67.604  1.00  0.00    -0.118 C  
HETATM   33  C   UNL     1      -8.169  11.756  68.110  1.00  0.00    -0.153 C  
HETATM   34  C   UNL     1      -9.723  10.699  66.601  1.00  0.00    -0.225 C  
HETATM   35  C   UNL     1     -11.031  11.000  67.372  1.00  0.00    -0.349 C  
BRANCH  17  36
HETATM   36  C   UNL     1     -10.075   6.989  67.112  1.00  0.00    -0.283 C  
HETATM   37  C   UNL     1     -11.030   6.138  66.712  1.00  0.00    -0.322 C  
ENDBRANCH  17  36
ENDBRANCH  14  15
ENDBRANCH  12  14
ENDBRANCH  11  12
ENDBRANCH  10  11
ENDBRANCH   8  10
TORSDOF 6
ENDMDL
MODEL      107
REMARK 921   NORMALIZED FREE ENERGY PREDICTED BY IDOCK:   -4.24 KCAL/MOL
REMARK 922        TOTAL FREE ENERGY PREDICTED BY IDOCK:   -7.49 KCAL/MOL
REMARK 923 INTER-LIGAND FREE ENERGY PREDICTED BY IDOCK:   -6.30 KCAL/MOL
REMARK 924 INTRA-LIGAND FREE ENERGY PREDICTED BY IDOCK:   -1.18 KCAL/MOL
REMARK 927      BINDING AFFINITY PREDICTED BY RF-SCORE:    0.00 PKD
ROOT
HETATM    1  C   UNL     1     -11.147  12.421  67.061  1.00  0.00    -0.278 C  
HETATM    2  C   UNL     1     -11.950  12.604  65.757  1.00  0.00    -0.503 C  
HETATM    3  C   UNL     1     -11.106  11.899  64.694  1.00  0.00    -0.373 C  
HETATM    4  C   UNL     1      -9.873  11.380  65.462  1.00  0.00    -0.231 C  
HETATM    5  C   UNL     1     -10.031   9.934  66.042  1.00  0.00    -0.338 C  
HETATM    6  N   UNL     1      -9.800  12.417  66.497  1.00  0.00    -0.230 NA 
HETATM    7  C   UNL     1      -8.726  12.325  67.450  1.00  0.00    -0.180 C  
HETATM    8  C   UNL     1     -10.661   9.818  67.460  1.00  0.00    -0.264 C  
HETATM    9  C   UNL     1     -11.448  11.119  67.873  1.00  0.00    -0.359 C  
ENDROOT
BRANCH   8  10
HETATM   10  S   UNL     1      -9.829   8.552  68.959  1.00  0.00    -0.188 SA 
BRANCH  10  11
HETATM   11  C   UNL     1      -8.888   9.498  70.283  1.00  0.00    -0.243 C  
BRANCH  11  12
HETATM   12  C   UNL     1      -7.241   9.734  70.423  1.00  0.00    -0.142 C  
HETATM   13  O   UNL     1      -6.856  10.889  70.191  1.00  0.00    -0.171 OA 
BRANCH  12  14
HETATM   14  O   UNL     1      -6.268   8.788  70.731  1.00  0.00    -0.033 OA 
BRANCH  14  15
HETATM   15  C   UNL     1      -6.602   7.312  71.302  1.00  0.00    -0.043 C  
HETATM   16  C   UNL     1      -6.750   6.577  69.871  1.00  0.00    -0.050 C  
HETATM   17  C   UNL     1      -6.857   5.034  69.746  1.00  0.00    -0.052 C  
HETATM   18  C   UNL     1      -8.140   3.828  73.601  1.00  0.00    -0.087 C  
HETATM   19  C   UNL     1      -6.604   4.398  68.357  1.00  0.00    -0.046 C  
HETATM   20  C   UNL     1      -8.365   4.743  70.022  1.00  0.00    -0.068 C  
HETATM   21  O   UNL     1      -9.210   4.536  68.893  1.00  0.00    -0.115 OA 
HETATM   22  C   UNL     1      -8.562   3.709  71.100  1.00  0.00    -0.108 C  
HETATM   23  C   UNL     1      -6.904   4.624  74.083  1.00  0.00    -0.070 C  
HETATM   24  C   UNL     1      -9.015   4.409  72.451  1.00  0.00    -0.135 C  
HETATM   25  C   UNL     1      -9.397   2.491  70.626  1.00  0.00    -0.212 C  
HETATM   26  H   UNL     1     -10.127   4.359  69.061  1.00  0.00     0.000 HD 
HETATM   27  C   UNL     1     -10.523   4.041  72.623  1.00  0.00    -0.222 C  
HETATM   28  C   UNL     1     -11.085   4.938  73.680  1.00  0.00    -0.370 C  
HETATM   29  C   UNL     1     -10.279   6.191  73.476  1.00  0.00    -0.227 C  
HETATM   30  C   UNL     1      -9.045   6.013  72.513  1.00  0.00    -0.135 C  
HETATM   31  O   UNL     1     -10.692   7.237  73.917  1.00  0.00    -0.318 OA 
HETATM   32  C   UNL     1      -7.677   6.900  72.748  1.00  0.00    -0.093 C  
HETATM   33  C   UNL     1      -8.138   8.162  73.588  1.00  0.00    -0.271 C  
HETATM   34  C   UNL     1      -6.839   6.156  73.902  1.00  0.00    -0.080 C  
HETATM   35  C   UNL     1      -5.451   6.812  74.104  1.00  0.00    -0.051 C  
BRANCH  17  36
HETATM   36  C   UNL     1      -5.778   4.497  70.698  1.00  0.00    -0.013 C  
HETATM   37  C   UNL     1      -5.210   3.283  70.726  1.00  0.00    -0.004 C  
ENDBRANCH  17  36
ENDBRANCH  14  15
ENDBRANCH  12  14
ENDBRANCH  11  12
ENDBRANCH  10  11
ENDBRANCH   8  10
TORSDOF 6
ENDMDL
MODEL      108
REMARK 921   NORMALIZED FREE ENERGY PREDICTED BY IDOCK:   -4.24 KCAL/MOL
REMARK 922        TOTAL FREE ENERGY PREDICTED BY IDOCK:   -7.48 KCAL/MOL
REMARK 923 INTER-LIGAND FREE ENERGY PREDICTED BY IDOCK:   -6.33 KCAL/MOL
REMARK 924 INTRA-LIGAND FREE ENERGY PREDICTED BY IDOCK:   -1.15 KCAL/MOL
REMARK 927      BINDING AFFINITY PREDICTED BY RF-SCORE:    0.00 PKD
ROOT
HETATM    1  C   UNL     1     -11.257  13.401  68.204  1.00  0.00    -0.273 C  
HETATM    2  C   UNL     1     -11.868  14.800  68.428  1.00  0.00    -0.319 C  
HETATM    3  C   UNL     1     -10.952  15.740  67.643  1.00  0.00    -0.302 C  
HETATM    4  C   UNL     1      -9.874  14.815  67.042  1.00  0.00    -0.239 C  
HETATM    5  C   UNL     1     -10.219  14.254  65.622  1.00  0.00    -0.366 C  
HETATM    6  N   UNL     1      -9.853  13.785  68.086  1.00  0.00    -0.232 NA 
HETATM    7  C   UNL     1      -8.922  12.700  67.926  1.00  0.00    -0.189 C  
HETATM    8  C   UNL     1     -11.035  12.929  65.577  1.00  0.00    -0.274 C  
HETATM    9  C   UNL     1     -11.763  12.629  66.941  1.00  0.00    -0.453 C  
ENDROOT
BRANCH   8  10
HETATM   10  S   UNL     1     -10.506  11.328  64.273  1.00  0.00    -0.375 SA 
BRANCH  10  11
HETATM   11  C   UNL     1      -9.834   9.827  65.184  1.00  0.00    -0.224 C  
BRANCH  11  12
HETATM   12  C   UNL     1      -8.248   9.451  65.545  1.00  0.00    -0.126 C  
HETATM   13  O   UNL     1      -7.511   9.288  64.561  1.00  0.00    -0.098 OA 
BRANCH  12  14
HETATM   14  O   UNL     1      -7.681   9.269  66.802  1.00  0.00    -0.093 OA 
BRANCH  14  15
HETATM   15  C   UNL     1      -8.223   8.193  67.882  1.00  0.00    -0.129 C  
HETATM   16  C   UNL     1      -7.387   8.747  69.149  1.00  0.00    -0.072 C  
HETATM   17  C   UNL     1      -7.655   8.248  70.593  1.00  0.00    -0.071 C  
HETATM   18  C   UNL     1      -9.596   4.528  69.997  1.00  0.00    -0.267 C  
HETATM   19  C   UNL     1      -7.102   9.092  71.768  1.00  0.00     0.034 C  
HETATM   20  C   UNL     1      -6.850   6.914  70.679  1.00  0.00    -0.058 C  
HETATM   21  O   UNL     1      -5.573   6.958  71.312  1.00  0.00    -0.027 OA 
HETATM   22  C   UNL     1      -7.698   5.760  71.149  1.00  0.00    -0.109 C  
HETATM   23  C   UNL     1     -10.564   5.359  69.122  1.00  0.00    -0.241 C  
HETATM   24  C   UNL     1      -8.067   4.821  69.924  1.00  0.00    -0.069 C  
HETATM   25  C   UNL     1      -7.134   5.072  72.419  1.00  0.00    -0.084 C  
HETATM   26  H   UNL     1      -5.083   6.146  71.363  1.00  0.00     0.000 HD 
HETATM   27  C   UNL     1      -7.217   3.526  70.124  1.00  0.00    -0.041 C  
HETATM   28  C   UNL     1      -7.262   2.758  68.841  1.00  0.00    -0.048 C  
HETATM   29  C   UNL     1      -7.354   3.864  67.826  1.00  0.00    -0.067 C  
HETATM   30  C   UNL     1      -7.646   5.283  68.446  1.00  0.00    -0.080 C  
HETATM   31  O   UNL     1      -7.062   3.636  66.677  1.00  0.00    -0.057 OA 
HETATM   32  C   UNL     1      -8.521   6.392  67.598  1.00  0.00    -0.117 C  
HETATM   33  C   UNL     1      -8.397   5.949  66.082  1.00  0.00    -0.124 C  
HETATM   34  C   UNL     1     -10.071   6.017  67.815  1.00  0.00    -0.185 C  
HETATM   35  C   UNL     1     -11.002   7.085  67.191  1.00  0.00    -0.393 C  
BRANCH  17  36
HETATM   36  C   UNL     1      -9.185   8.239  70.718  1.00  0.00    -0.174 C  
HETATM   37  C   UNL     1      -9.980   9.087  71.385  1.00  0.00    -0.388 C  
ENDBRANCH  17  36
ENDBRANCH  14  15
ENDBRANCH  12  14
ENDBRANCH  11  12
ENDBRANCH  10  11
ENDBRANCH   8  10
TORSDOF 6
ENDMDL
MODEL      109
REMARK 921   NORMALIZED FREE ENERGY PREDICTED BY IDOCK:   -4.22 KCAL/MOL
REMARK 922        TOTAL FREE ENERGY PREDICTED BY IDOCK:   -7.45 KCAL/MOL
REMARK 923 INTER-LIGAND FREE ENERGY PREDICTED BY IDOCK:   -6.53 KCAL/MOL
REMARK 924 INTRA-LIGAND FREE ENERGY PREDICTED BY IDOCK:   -0.91 KCAL/MOL
REMARK 927      BINDING AFFINITY PREDICTED BY RF-SCORE:    0.00 PKD
ROOT
HETATM    1  C   UNL     1     -10.321   7.240  71.829  1.00  0.00    -0.196 C  
HETATM    2  C   UNL     1      -9.003   6.750  71.194  1.00  0.00    -0.147 C  
HETATM    3  C   UNL     1      -9.270   6.797  69.690  1.00  0.00    -0.145 C  
HETATM    4  C   UNL     1     -10.727   7.292  69.571  1.00  0.00    -0.232 C  
HETATM    5  C   UNL     1     -10.877   8.846  69.467  1.00  0.00    -0.163 C  
HETATM    6  N   UNL     1     -11.255   6.739  70.823  1.00  0.00    -0.284 NA 
HETATM    7  C   UNL     1     -12.649   6.955  71.106  1.00  0.00    -0.314 C  
HETATM    8  C   UNL     1     -10.976   9.628  70.809  1.00  0.00    -0.327 C  
HETATM    9  C   UNL     1     -10.450   8.785  72.031  1.00  0.00    -0.414 C  
ENDROOT
BRANCH   8  10
HETATM   10  S   UNL     1     -12.426  11.160  71.113  1.00  0.00    -0.368 SA 
BRANCH  10  11
HETATM   11  C   UNL     1     -12.115  12.688  70.062  1.00  0.00    -0.269 C  
BRANCH  11  12
HETATM   12  C   UNL     1     -11.786  14.247  70.560  1.00  0.00    -0.294 C  
HETATM   13  O   UNL     1     -12.783  14.934  70.823  1.00  0.00    -0.322 OA 
BRANCH  12  14
HETATM   14  O   UNL     1     -10.542  14.858  70.677  1.00  0.00    -0.043 OA 
BRANCH  14  15
HETATM   15  C   UNL     1      -9.687  15.400  69.415  1.00  0.00    -0.273 C  
HETATM   16  C   UNL     1      -8.229  15.284  70.099  1.00  0.00     0.546 C  
HETATM   17  C   UNL     1      -6.921  15.459  69.283  1.00  0.00    -0.168 C  
HETATM   18  C   UNL     1      -8.185  17.612  65.859  1.00  0.00    -0.010 C  
HETATM   19  C   UNL     1      -5.598  14.954  69.913  1.00  0.00    -0.110 C  
HETATM   20  C   UNL     1      -6.734  17.006  69.210  1.00  0.00    -0.234 C  
HETATM   21  O   UNL     1      -5.820  17.601  70.128  1.00  0.00    -0.247 OA 
HETATM   22  C   UNL     1      -6.548  17.495  67.797  1.00  0.00    -0.171 C  
HETATM   23  C   UNL     1      -9.207  16.460  65.714  1.00  0.00    -0.110 C  
HETATM   24  C   UNL     1      -7.881  18.182  67.277  1.00  0.00    -0.230 C  
HETATM   25  C   UNL     1      -5.227  18.284  67.598  1.00  0.00    -0.144 C  
HETATM   26  H   UNL     1      -5.707  18.542  70.083  1.00  0.00     0.000 HD 
HETATM   27  C   UNL     1      -7.571  19.711  67.235  1.00  0.00    -0.280 C  
HETATM   28  C   UNL     1      -8.874  20.429  67.084  1.00  0.00    -0.435 C  
HETATM   29  C   UNL     1      -9.811  19.521  67.832  1.00  0.00    -0.379 C  
HETATM   30  C   UNL     1      -9.189  18.123  68.206  1.00  0.00    -0.307 C  
HETATM   31  O   UNL     1     -10.873  19.951  68.212  1.00  0.00    -0.157 OA 
HETATM   32  C   UNL     1     -10.145  16.784  68.279  1.00  0.00    -0.274 C  
HETATM   33  C   UNL     1     -11.616  17.333  68.493  1.00  0.00     0.856 C  
HETATM   34  C   UNL     1     -10.319  16.261  66.766  1.00  0.00    -0.296 C  
HETATM   35  C   UNL     1     -11.074  14.910  66.720  1.00  0.00    -0.335 C  
BRANCH  17  36
HETATM   36  C   UNL     1      -7.157  14.645  68.003  1.00  0.00    -0.146 C  
HETATM   37  C   UNL     1      -6.498  13.565  67.560  1.00  0.00    -0.113 C  
ENDBRANCH  17  36
ENDBRANCH  14  15
ENDBRANCH  12  14
ENDBRANCH  11  12
ENDBRANCH  10  11
ENDBRANCH   8  10
TORSDOF 6
ENDMDL
MODEL      110
REMARK 921   NORMALIZED FREE ENERGY PREDICTED BY IDOCK:   -4.18 KCAL/MOL
REMARK 922        TOTAL FREE ENERGY PREDICTED BY IDOCK:   -7.40 KCAL/MOL
REMARK 923 INTER-LIGAND FREE ENERGY PREDICTED BY IDOCK:   -5.91 KCAL/MOL
REMARK 924 INTRA-LIGAND FREE ENERGY PREDICTED BY IDOCK:   -1.49 KCAL/MOL
REMARK 927      BINDING AFFINITY PREDICTED BY RF-SCORE:    0.00 PKD
ROOT
HETATM    1  C   UNL     1     -12.137  12.509  66.372  1.00  0.00    -0.207 C  
HETATM    2  C   UNL     1     -12.325  14.037  66.471  1.00  0.00    -0.442 C  
HETATM    3  C   UNL     1     -11.067  14.524  67.191  1.00  0.00    -0.325 C  
HETATM    4  C   UNL     1     -10.258  13.239  67.467  1.00  0.00    -0.222 C  
HETATM    5  C   UNL     1      -9.248  12.852  66.335  1.00  0.00    -0.144 C  
HETATM    6  N   UNL     1     -11.374  12.295  67.598  1.00  0.00    -0.290 NA 
HETATM    7  C   UNL     1     -11.050  10.926  67.899  1.00  0.00    -0.302 C  
HETATM    8  C   UNL     1      -9.801  11.967  65.181  1.00  0.00    -0.200 C  
HETATM    9  C   UNL     1     -11.374  11.996  65.107  1.00  0.00    -0.359 C  
ENDROOT
BRANCH   8  10
HETATM   10  S   UNL     1      -8.726  10.279  64.447  1.00  0.00    -0.210 SA 
BRANCH  10  11
HETATM   11  C   UNL     1      -7.359   9.715  65.606  1.00  0.00    -0.101 C  
BRANCH  11  12
HETATM   12  C   UNL     1      -6.229   8.506  65.377  1.00  0.00    -0.049 C  
HETATM   13  O   UNL     1      -5.180   8.868  64.825  1.00  0.00    -0.038 OA 
BRANCH  12  14
HETATM   14  O   UNL     1      -6.348   7.158  65.699  1.00  0.00    -0.039 OA 
BRANCH  14  15
HETATM   15  C   UNL     1      -7.140   6.614  67.000  1.00  0.00    -0.076 C  
HETATM   16  C   UNL     1      -8.521   6.242  66.250  1.00  0.00    -0.133 C  
HETATM   17  C   UNL     1      -9.648   5.438  66.951  1.00  0.00    -0.150 C  
HETATM   18  C   UNL     1      -8.821   5.988  71.071  1.00  0.00    -0.139 C  
HETATM   19  C   UNL     1     -10.744   4.797  66.064  1.00  0.00    -0.211 C  
HETATM   20  C   UNL     1     -10.416   6.518  67.774  1.00  0.00    -0.227 C  
HETATM   21  O   UNL     1     -11.622   7.035  67.214  1.00  0.00    -0.570 OA 
HETATM   22  C   UNL     1     -10.558   6.141  69.226  1.00  0.00    -0.348 C  
HETATM   23  C   UNL     1      -7.418   5.457  70.693  1.00  0.00    -0.079 C  
HETATM   24  C   UNL     1      -9.542   6.980  70.109  1.00  0.00    -0.164 C  
HETATM   25  C   UNL     1     -12.035   6.101  69.699  1.00  0.00     0.737 C  
HETATM   26  H   UNL     1     -12.089   7.692  67.715  1.00  0.00     0.000 HD 
HETATM   27  C   UNL     1     -10.420   8.010  70.887  1.00  0.00    -0.223 C  
HETATM   28  C   UNL     1      -9.499   9.037  71.466  1.00  0.00    -0.316 C  
HETATM   29  C   UNL     1      -8.408   9.086  70.432  1.00  0.00    -0.164 C  
HETATM   30  C   UNL     1      -8.478   7.926  69.368  1.00  0.00    -0.133 C  
HETATM   31  O   UNL     1      -7.675  10.045  70.392  1.00  0.00    -0.227 OA 
HETATM   32  C   UNL     1      -7.095   7.328  68.704  1.00  0.00    -0.084 C  
HETATM   33  C   UNL     1      -6.013   8.470  68.895  1.00  0.00    -0.044 C  
HETATM   34  C   UNL     1      -6.496   6.273  69.761  1.00  0.00    -0.043 C  
HETATM   35  C   UNL     1      -5.272   5.525  69.180  1.00  0.00    -0.003 C  
BRANCH  17  36
HETATM   36  C   UNL     1      -8.914   4.295  67.667  1.00  0.00    -0.135 C  
HETATM   37  C   UNL     1      -9.265   3.006  67.772  1.00  0.00    -0.244 C  
ENDBRANCH  17  36
ENDBRANCH  14  15
ENDBRANCH  12  14
ENDBRANCH  11  12
ENDBRANCH  10  11
ENDBRANCH   8  10
TORSDOF 6
ENDMDL
MODEL      111
REMARK 921   NORMALIZED FREE ENERGY PREDICTED BY IDOCK:   -4.15 KCAL/MOL
REMARK 922        TOTAL FREE ENERGY PREDICTED BY IDOCK:   -7.36 KCAL/MOL
REMARK 923 INTER-LIGAND FREE ENERGY PREDICTED BY IDOCK:   -5.62 KCAL/MOL
REMARK 924 INTRA-LIGAND FREE ENERGY PREDICTED BY IDOCK:   -1.75 KCAL/MOL
REMARK 927      BINDING AFFINITY PREDICTED BY RF-SCORE:    0.00 PKD
ROOT
HETATM    1  C   UNL     1      -5.968   8.125  73.922  1.00  0.00    -0.093 C  
HETATM    2  C   UNL     1      -5.354   9.403  73.315  1.00  0.00    -0.054 C  
HETATM    3  C   UNL     1      -5.681   9.305  71.825  1.00  0.00    -0.071 C  
HETATM    4  C   UNL     1      -6.444   7.971  71.683  1.00  0.00    -0.043 C  
HETATM    5  C   UNL     1      -7.997   8.092  71.836  1.00  0.00    -0.153 C  
HETATM    6  N   UNL     1      -5.807   7.231  72.778  1.00  0.00    -0.041 NA 
HETATM    7  C   UNL     1      -6.225   5.870  72.988  1.00  0.00    -0.061 C  
HETATM    8  C   UNL     1      -8.565   7.985  73.281  1.00  0.00    -0.235 C  
HETATM    9  C   UNL     1      -7.461   8.234  74.377  1.00  0.00    -0.262 C  
ENDROOT
BRANCH   8  10
HETATM   10  S   UNL     1     -10.268   6.785  73.733  1.00  0.00    -0.374 SA 
BRANCH  10  11
HETATM   11  C   UNL     1     -11.222   6.255  72.202  1.00  0.00    -0.282 C  
BRANCH  11  12
HETATM   12  C   UNL     1     -11.459   7.095  70.778  1.00  0.00    -0.305 C  
HETATM   13  O   UNL     1     -11.855   8.261  70.918  1.00  0.00    -0.284 OA 
BRANCH  12  14
HETATM   14  O   UNL     1     -11.298   6.627  69.478  1.00  0.00    -0.323 OA 
BRANCH  14  15
HETATM   15  C   UNL     1      -9.942   6.822  68.617  1.00  0.00    -0.146 C  
HETATM   16  C   UNL     1     -10.228   8.338  68.140  1.00  0.00    -0.255 C  
HETATM   17  C   UNL     1      -9.144   9.197  67.436  1.00  0.00    -0.142 C  
HETATM   18  C   UNL     1      -6.431   6.309  65.934  1.00  0.00    -0.046 C  
HETATM   19  C   UNL     1      -9.362  10.729  67.368  1.00  0.00    -0.163 C  
HETATM   20  C   UNL     1      -9.220   8.742  65.946  1.00  0.00    -0.220 C  
HETATM   21  O   UNL     1      -9.952   9.568  65.044  1.00  0.00    -0.421 OA 
HETATM   22  C   UNL     1      -7.877   8.327  65.403  1.00  0.00    -0.113 C  
HETATM   23  C   UNL     1      -6.399   5.816  67.400  1.00  0.00    -0.042 C  
HETATM   24  C   UNL     1      -7.790   6.745  65.311  1.00  0.00    -0.121 C  
HETATM   25  C   UNL     1      -7.460   9.129  64.143  1.00  0.00    -0.109 C  
HETATM   26  H   UNL     1      -9.999   9.290  64.137  1.00  0.00     0.000 HD 
HETATM   27  C   UNL     1      -7.864   6.414  63.787  1.00  0.00    -0.111 C  
HETATM   28  C   UNL     1      -8.129   4.947  63.659  1.00  0.00    -0.105 C  
HETATM   29  C   UNL     1      -8.964   4.680  64.881  1.00  0.00    -0.153 C  
HETATM   30  C   UNL     1      -8.997   5.873  65.910  1.00  0.00    -0.149 C  
HETATM   31  O   UNL     1      -9.645   3.683  64.926  1.00  0.00    -0.157 OA 
HETATM   32  C   UNL     1      -9.135   5.570  67.524  1.00  0.00    -0.107 C  
HETATM   33  C   UNL     1      -9.770   4.122  67.623  1.00  0.00    -0.176 C  
HETATM   34  C   UNL     1      -7.659   5.204  68.050  1.00  0.00    -0.083 C  
HETATM   35  C   UNL     1      -7.631   5.050  69.590  1.00  0.00    -0.057 C  
BRANCH  17  36
HETATM   36  C   UNL     1      -7.870   8.953  68.257  1.00  0.00    -0.101 C  
HETATM   37  C   UNL     1      -6.809   9.756  68.423  1.00  0.00    -0.060 C  
ENDBRANCH  17  36
ENDBRANCH  14  15
ENDBRANCH  12  14
ENDBRANCH  11  12
ENDBRANCH  10  11
ENDBRANCH   8  10
TORSDOF 6
ENDMDL
MODEL      112
REMARK 921   NORMALIZED FREE ENERGY PREDICTED BY IDOCK:   -4.13 KCAL/MOL
REMARK 922        TOTAL FREE ENERGY PREDICTED BY IDOCK:   -7.33 KCAL/MOL
REMARK 923 INTER-LIGAND FREE ENERGY PREDICTED BY IDOCK:   -6.16 KCAL/MOL
REMARK 924 INTRA-LIGAND FREE ENERGY PREDICTED BY IDOCK:   -1.16 KCAL/MOL
REMARK 927      BINDING AFFINITY PREDICTED BY RF-SCORE:    0.00 PKD
ROOT
HETATM    1  C   UNL     1      -7.763   3.838  73.175  1.00  0.00    -0.074 C  
HETATM    2  C   UNL     1      -8.481   3.490  74.495  1.00  0.00    -0.084 C  
HETATM    3  C   UNL     1      -9.737   4.362  74.480  1.00  0.00    -0.170 C  
HETATM    4  C   UNL     1      -9.639   5.159  73.162  1.00  0.00    -0.141 C  
HETATM    5  C   UNL     1     -10.319   4.467  71.934  1.00  0.00    -0.167 C  
HETATM    6  N   UNL     1      -8.178   5.233  73.053  1.00  0.00    -0.111 NA 
HETATM    7  C   UNL     1      -7.634   5.948  71.929  1.00  0.00    -0.097 C  
HETATM    8  C   UNL     1      -9.440   3.475  71.118  1.00  0.00    -0.159 C  
HETATM    9  C   UNL     1      -8.178   2.991  71.927  1.00  0.00    -0.059 C  
ENDROOT
BRANCH   8  10
HETATM   10  S   UNL     1      -9.396   3.503  68.987  1.00  0.00    -0.153 SA 
BRANCH  10  11
HETATM   11  C   UNL     1      -9.497   5.239  68.271  1.00  0.00    -0.124 C  
BRANCH  11  12
HETATM   12  C   UNL     1     -10.761   6.327  68.347  1.00  0.00    -0.290 C  
HETATM   13  O   UNL     1     -11.516   6.186  69.320  1.00  0.00    -0.404 OA 
BRANCH  12  14
HETATM   14  O   UNL     1     -11.075   7.332  67.437  1.00  0.00    -0.214 OA 
BRANCH  14  15
HETATM   15  C   UNL     1     -10.216   8.693  67.275  1.00  0.00    -0.268 C  
HETATM   16  C   UNL     1      -9.388   8.248  65.961  1.00  0.00    -0.217 C  
HETATM   17  C   UNL     1      -8.520   9.252  65.157  1.00  0.00    -0.173 C  
HETATM   18  C   UNL     1      -7.793  12.365  67.939  1.00  0.00    -0.145 C  
HETATM   19  C   UNL     1      -8.087   8.852  63.724  1.00  0.00    -0.163 C  
HETATM   20  C   UNL     1      -7.179   9.303  65.952  1.00  0.00    -0.091 C  
HETATM   21  O   UNL     1      -6.094   8.519  65.461  1.00  0.00    -0.048 OA 
HETATM   22  C   UNL     1      -6.773  10.710  66.305  1.00  0.00    -0.129 C  
HETATM   23  C   UNL     1      -9.335  12.387  68.069  1.00  0.00    -0.204 C  
HETATM   24  C   UNL     1      -7.060  10.993  67.840  1.00  0.00    -0.081 C  
HETATM   25  C   UNL     1      -5.367  11.086  65.771  1.00  0.00    -0.125 C  
HETATM   26  H   UNL     1      -5.279   8.550  65.946  1.00  0.00     0.000 HD 
HETATM   27  C   UNL     1      -5.657  11.032  68.523  1.00  0.00    -0.043 C  
HETATM   28  C   UNL     1      -5.876  10.955  70.001  1.00  0.00    -0.089 C  
HETATM   29  C   UNL     1      -7.111  10.101  70.082  1.00  0.00    -0.157 C  
HETATM   30  C   UNL     1      -7.828   9.874  68.697  1.00  0.00    -0.086 C  
HETATM   31  O   UNL     1      -7.379   9.545  71.120  1.00  0.00    -0.318 OA 
HETATM   32  C   UNL     1      -9.465   9.698  68.631  1.00  0.00    -0.147 C  
HETATM   33  C   UNL     1      -9.893   9.239  70.086  1.00  0.00    -0.250 C  
HETATM   34  C   UNL     1     -10.088  11.181  68.671  1.00  0.00    -0.208 C  
HETATM   35  C   UNL     1     -11.621  11.154  68.456  1.00  0.00    -0.385 C  
BRANCH  17  36
HETATM   36  C   UNL     1      -9.398  10.506  65.036  1.00  0.00    -0.268 C  
HETATM   37  C   UNL     1      -9.760  11.175  63.933  1.00  0.00    -0.325 C  
ENDBRANCH  17  36
ENDBRANCH  14  15
ENDBRANCH  12  14
ENDBRANCH  11  12
ENDBRANCH  10  11
ENDBRANCH   8  10
TORSDOF 6
ENDMDL
MODEL      113
REMARK 921   NORMALIZED FREE ENERGY PREDICTED BY IDOCK:   -4.10 KCAL/MOL
REMARK 922        TOTAL FREE ENERGY PREDICTED BY IDOCK:   -7.30 KCAL/MOL
REMARK 923 INTER-LIGAND FREE ENERGY PREDICTED BY IDOCK:   -6.16 KCAL/MOL
REMARK 924 INTRA-LIGAND FREE ENERGY PREDICTED BY IDOCK:   -1.14 KCAL/MOL
REMARK 927      BINDING AFFINITY PREDICTED BY RF-SCORE:    0.00 PKD
ROOT
HETATM    1  C   UNL     1     -11.003  14.995  68.038  1.00  0.00    -0.284 C  
HETATM    2  C   UNL     1     -11.176  16.518  68.212  1.00  0.00    -0.265 C  
HETATM    3  C   UNL     1     -10.145  17.125  67.259  1.00  0.00    -0.294 C  
HETATM    4  C   UNL     1      -9.444  15.906  66.622  1.00  0.00    -0.241 C  
HETATM    5  C   UNL     1     -10.106  15.396  65.298  1.00  0.00    -0.354 C  
HETATM    6  N   UNL     1      -9.574  14.964  67.738  1.00  0.00    -0.206 NA 
HETATM    7  C   UNL     1      -9.002  13.654  67.567  1.00  0.00    -0.209 C  
HETATM    8  C   UNL     1     -11.251  14.353  65.450  1.00  0.00    -0.335 C  
HETATM    9  C   UNL     1     -11.855  14.335  66.904  1.00  0.00    -0.458 C  
ENDROOT
BRANCH   8  10
HETATM   10  S   UNL     1     -11.349  12.607  64.231  1.00  0.00    -0.394 SA 
BRANCH  10  11
HETATM   11  C   UNL     1     -10.464  11.131  64.987  1.00  0.00    -0.293 C  
BRANCH  11  12
HETATM   12  C   UNL     1     -10.880  10.247  66.342  1.00  0.00     0.045 C  
HETATM   13  O   UNL     1     -11.453  10.891  67.232  1.00  0.00    -0.458 OA 
BRANCH  12  14
HETATM   14  O   UNL     1     -10.629   8.901  66.590  1.00  0.00    -0.216 OA 
BRANCH  14  15
HETATM   15  C   UNL     1      -9.352   8.367  67.428  1.00  0.00    -0.148 C  
HETATM   16  C   UNL     1      -8.530   7.767  66.174  1.00  0.00    -0.143 C  
HETATM   17  C   UNL     1      -7.059   7.293  66.306  1.00  0.00    -0.077 C  
HETATM   18  C   UNL     1      -6.627   6.592  70.463  1.00  0.00    -0.049 C  
HETATM   19  C   UNL     1      -6.236   7.105  65.007  1.00  0.00    -0.037 C  
HETATM   20  C   UNL     1      -7.185   5.848  66.881  1.00  0.00    -0.071 C  
HETATM   21  O   UNL     1      -7.078   4.764  65.961  1.00  0.00    -0.071 OA 
HETATM   22  C   UNL     1      -6.354   5.648  68.122  1.00  0.00    -0.041 C  
HETATM   23  C   UNL     1      -7.135   8.047  70.595  1.00  0.00    -0.045 C  
HETATM   24  C   UNL     1      -7.284   5.652  69.408  1.00  0.00    -0.066 C  
HETATM   25  C   UNL     1      -5.340   4.482  67.991  1.00  0.00    -0.011 C  
HETATM   26  H   UNL     1      -7.156   3.885  66.311  1.00  0.00     0.000 HD 
HETATM   27  C   UNL     1      -7.325   4.169  69.894  1.00  0.00    -0.049 C  
HETATM   28  C   UNL     1      -8.441   4.053  70.883  1.00  0.00    -0.096 C  
HETATM   29  C   UNL     1      -9.424   5.061  70.354  1.00  0.00    -0.169 C  
HETATM   30  C   UNL     1      -8.842   5.998  69.229  1.00  0.00    -0.123 C  
HETATM   31  O   UNL     1     -10.581   4.993  70.695  1.00  0.00    -0.200 OA 
HETATM   32  C   UNL     1      -9.378   7.549  69.084  1.00  0.00    -0.147 C  
HETATM   33  C   UNL     1     -10.796   7.566  69.790  1.00  0.00    -0.234 C  
HETATM   34  C   UNL     1      -8.574   8.417  70.175  1.00  0.00    -0.131 C  
HETATM   35  C   UNL     1      -8.880   9.927  70.030  1.00  0.00    -0.194 C  
BRANCH  17  36
HETATM   36  C   UNL     1      -6.373   8.395  67.125  1.00  0.00    -0.057 C  
HETATM   37  C   UNL     1      -5.190   8.989  66.912  1.00  0.00    -0.039 C  
ENDBRANCH  17  36
ENDBRANCH  14  15
ENDBRANCH  12  14
ENDBRANCH  11  12
ENDBRANCH  10  11
ENDBRANCH   8  10
TORSDOF 6
ENDMDL
MODEL      114
REMARK 921   NORMALIZED FREE ENERGY PREDICTED BY IDOCK:   -4.08 KCAL/MOL
REMARK 922        TOTAL FREE ENERGY PREDICTED BY IDOCK:   -7.26 KCAL/MOL
REMARK 923 INTER-LIGAND FREE ENERGY PREDICTED BY IDOCK:   -5.88 KCAL/MOL
REMARK 924 INTRA-LIGAND FREE ENERGY PREDICTED BY IDOCK:   -1.38 KCAL/MOL
REMARK 927      BINDING AFFINITY PREDICTED BY RF-SCORE:    0.00 PKD
ROOT
HETATM    1  C   UNL     1      -9.527   2.468  70.042  1.00  0.00    -0.071 C  
HETATM    2  C   UNL     1      -8.332   1.537  69.749  1.00  0.00    -0.068 C  
HETATM    3  C   UNL     1      -7.145   2.488  69.592  1.00  0.00    -0.036 C  
HETATM    4  C   UNL     1      -7.748   3.895  69.790  1.00  0.00    -0.052 C  
HETATM    5  C   UNL     1      -7.734   4.404  71.270  1.00  0.00    -0.079 C  
HETATM    6  N   UNL     1      -9.097   3.635  69.276  1.00  0.00    -0.118 NA 
HETATM    7  C   UNL     1     -10.020   4.739  69.253  1.00  0.00    -0.184 C  
HETATM    8  C   UNL     1      -8.959   4.021  72.150  1.00  0.00    -0.114 C  
HETATM    9  C   UNL     1      -9.771   2.812  71.548  1.00  0.00    -0.225 C  
ENDROOT
BRANCH   8  10
HETATM   10  S   UNL     1      -9.931   5.443  73.404  1.00  0.00    -0.183 SA 
BRANCH  10  11
HETATM   11  C   UNL     1     -11.363   6.316  72.555  1.00  0.00    -0.275 C  
BRANCH  11  12
HETATM   12  C   UNL     1     -11.314   7.563  71.446  1.00  0.00    -0.258 C  
HETATM   13  O   UNL     1     -12.156   7.491  70.539  1.00  0.00    -0.150 OA 
BRANCH  12  14
HETATM   14  O   UNL     1     -10.427   8.635  71.408  1.00  0.00    -0.217 OA 
BRANCH  14  15
HETATM   15  C   UNL     1      -9.665   9.121  70.067  1.00  0.00    -0.195 C  
HETATM   16  C   UNL     1      -8.224   9.389  70.745  1.00  0.00    -0.173 C  
HETATM   17  C   UNL     1      -6.956   9.674  69.897  1.00  0.00    -0.081 C  
HETATM   18  C   UNL     1      -8.534  10.986  66.190  1.00  0.00    -0.168 C  
HETATM   19  C   UNL     1      -5.575   9.532  70.584  1.00  0.00    -0.049 C  
HETATM   20  C   UNL     1      -7.059  11.198  69.578  1.00  0.00    -0.088 C  
HETATM   21  O   UNL     1      -6.290  12.090  70.380  1.00  0.00    -0.449 OA 
HETATM   22  C   UNL     1      -6.941  11.484  68.103  1.00  0.00    -0.070 C  
HETATM   23  C   UNL     1      -9.321   9.655  66.240  1.00  0.00    -0.238 C  
HETATM   24  C   UNL     1      -8.369  11.819  67.496  1.00  0.00    -0.154 C  
HETATM   25  C   UNL     1      -5.787  12.464  67.767  1.00  0.00    -0.110 C  
HETATM   26  H   UNL     1      -6.353  13.017  70.185  1.00  0.00     0.000 HD 
HETATM   27  C   UNL     1      -8.348  13.353  67.209  1.00  0.00    -0.183 C  
HETATM   28  C   UNL     1      -9.760  13.782  66.961  1.00  0.00    -0.251 C  
HETATM   29  C   UNL     1     -10.525  12.844  67.853  1.00  0.00    -0.224 C  
HETATM   30  C   UNL     1      -9.660  11.663  68.437  1.00  0.00    -0.195 C  
HETATM   31  O   UNL     1     -11.656  13.123  68.172  1.00  0.00    -0.296 OA 
HETATM   32  C   UNL     1     -10.352  10.198  68.731  1.00  0.00    -0.211 C  
HETATM   33  C   UNL     1     -11.902  10.489  68.872  1.00  0.00    -0.136 C  
HETATM   34  C   UNL     1     -10.397   9.420  67.323  1.00  0.00    -0.325 C  
HETATM   35  C   UNL     1     -10.885   7.962  67.499  1.00  0.00    -0.152 C  
BRANCH  17  36
HETATM   36  C   UNL     1      -7.012   8.639  68.765  1.00  0.00    -0.063 C  
HETATM   37  C   UNL     1      -6.200   7.597  68.537  1.00  0.00    -0.039 C  
ENDBRANCH  17  36
ENDBRANCH  14  15
ENDBRANCH  12  14
ENDBRANCH  11  12
ENDBRANCH  10  11
ENDBRANCH   8  10
TORSDOF 6
ENDMDL
MODEL      115
REMARK 921   NORMALIZED FREE ENERGY PREDICTED BY IDOCK:   -4.05 KCAL/MOL
REMARK 922        TOTAL FREE ENERGY PREDICTED BY IDOCK:   -7.22 KCAL/MOL
REMARK 923 INTER-LIGAND FREE ENERGY PREDICTED BY IDOCK:   -6.09 KCAL/MOL
REMARK 924 INTRA-LIGAND FREE ENERGY PREDICTED BY IDOCK:   -1.13 KCAL/MOL
REMARK 927      BINDING AFFINITY PREDICTED BY RF-SCORE:    0.00 PKD
ROOT
HETATM    1  C   UNL     1     -11.217  14.537  68.422  1.00  0.00    -0.271 C  
HETATM    2  C   UNL     1     -11.582  16.030  68.546  1.00  0.00    -0.316 C  
HETATM    3  C   UNL     1     -10.447  16.755  67.821  1.00  0.00    -0.335 C  
HETATM    4  C   UNL     1      -9.506  15.626  67.351  1.00  0.00    -0.215 C  
HETATM    5  C   UNL     1      -9.824  15.069  65.923  1.00  0.00    -0.369 C  
HETATM    6  N   UNL     1      -9.762  14.659  68.423  1.00  0.00    -0.211 NA 
HETATM    7  C   UNL     1      -9.032  13.419  68.384  1.00  0.00    -0.136 C  
HETATM    8  C   UNL     1     -10.859  13.910  65.843  1.00  0.00    -0.287 C  
HETATM    9  C   UNL     1     -11.744  13.808  67.142  1.00  0.00    -0.417 C  
ENDROOT
BRANCH   8  10
HETATM   10  S   UNL     1     -10.520  12.181  64.643  1.00  0.00    -0.315 SA 
BRANCH  10  11
HETATM   11  C   UNL     1      -9.839  10.728  65.621  1.00  0.00    -0.245 C  
BRANCH  11  12
HETATM   12  C   UNL     1     -10.579   9.847  66.832  1.00  0.00    -0.178 C  
HETATM   13  O   UNL     1     -11.114  10.525  67.721  1.00  0.00    -0.290 OA 
BRANCH  12  14
HETATM   14  O   UNL     1     -10.630   8.463  66.968  1.00  0.00    -0.314 OA 
BRANCH  14  15
HETATM   15  C   UNL     1      -9.317   7.524  67.066  1.00  0.00    -0.150 C  
HETATM   16  C   UNL     1      -9.901   6.280  66.215  1.00  0.00    -0.065 C  
HETATM   17  C   UNL     1      -9.000   5.105  65.752  1.00  0.00    -0.152 C  
HETATM   18  C   UNL     1      -5.685   5.319  68.383  1.00  0.00    -0.016 C  
HETATM   19  C   UNL     1      -9.535   4.176  64.635  1.00  0.00    -0.168 C  
HETATM   20  C   UNL     1      -8.925   4.179  67.005  1.00  0.00    -0.127 C  
HETATM   21  O   UNL     1      -9.784   3.041  67.032  1.00  0.00    -0.408 OA 
HETATM   22  C   UNL     1      -7.507   3.852  67.394  1.00  0.00    -0.068 C  
HETATM   23  C   UNL     1      -5.600   6.784  67.896  1.00  0.00    -0.015 C  
HETATM   24  C   UNL     1      -7.083   4.695  68.671  1.00  0.00    -0.053 C  
HETATM   25  C   UNL     1      -7.225   2.328  67.433  1.00  0.00    -0.055 C  
HETATM   26  H   UNL     1      -9.739   2.478  67.795  1.00  0.00     0.000 HD 
HETATM   27  C   UNL     1      -7.032   3.668  69.847  1.00  0.00    -0.041 C  
HETATM   28  C   UNL     1      -6.975   4.449  71.121  1.00  0.00    -0.036 C  
HETATM   29  C   UNL     1      -7.777   5.671  70.767  1.00  0.00    -0.092 C  
HETATM   30  C   UNL     1      -8.098   5.806  69.230  1.00  0.00    -0.101 C  
HETATM   31  O   UNL     1      -8.231   6.357  71.651  1.00  0.00    -0.115 OA 
HETATM   32  C   UNL     1      -8.225   7.296  68.539  1.00  0.00    -0.125 C  
HETATM   33  C   UNL     1      -8.542   8.285  69.735  1.00  0.00    -0.129 C  
HETATM   34  C   UNL     1      -6.724   7.789  68.231  1.00  0.00    -0.066 C  
HETATM   35  C   UNL     1      -6.718   9.116  67.435  1.00  0.00    -0.069 C  
BRANCH  17  36
HETATM   36  C   UNL     1      -7.733   5.784  65.214  1.00  0.00    -0.093 C  
HETATM   37  C   UNL     1      -7.003   5.467  64.134  1.00  0.00    -0.048 C  
ENDBRANCH  17  36
ENDBRANCH  14  15
ENDBRANCH  12  14
ENDBRANCH  11  12
ENDBRANCH  10  11
ENDBRANCH   8  10
TORSDOF 6
ENDMDL
MODEL      116
REMARK 921   NORMALIZED FREE ENERGY PREDICTED BY IDOCK:   -4.03 KCAL/MOL
REMARK 922        TOTAL FREE ENERGY PREDICTED BY IDOCK:   -7.19 KCAL/MOL
REMARK 923 INTER-LIGAND FREE ENERGY PREDICTED BY IDOCK:   -5.83 KCAL/MOL
REMARK 924 INTRA-LIGAND FREE ENERGY PREDICTED BY IDOCK:   -1.36 KCAL/MOL
REMARK 927      BINDING AFFINITY PREDICTED BY RF-SCORE:    0.00 PKD
ROOT
HETATM    1  C   UNL     1      -8.637   8.232  72.824  1.00  0.00    -0.203 C  
HETATM    2  C   UNL     1      -8.278   7.805  74.262  1.00  0.00    -0.286 C  
HETATM    3  C   UNL     1      -8.579   6.306  74.296  1.00  0.00    -0.129 C  
HETATM    4  C   UNL     1      -9.106   5.987  72.881  1.00  0.00    -0.131 C  
HETATM    5  C   UNL     1      -7.999   5.562  71.858  1.00  0.00    -0.114 C  
HETATM    6  N   UNL     1      -9.718   7.283  72.571  1.00  0.00    -0.150 NA 
HETATM    7  C   UNL     1     -10.378   7.415  71.299  1.00  0.00    -0.192 C  
HETATM    8  C   UNL     1      -7.298   6.709  71.074  1.00  0.00    -0.079 C  
HETATM    9  C   UNL     1      -7.490   8.110  71.768  1.00  0.00    -0.098 C  
ENDROOT
BRANCH   8  10
HETATM   10  S   UNL     1      -6.965   6.594  68.972  1.00  0.00    -0.089 SA 
BRANCH  10  11
HETATM   11  C   UNL     1      -8.542   6.303  67.991  1.00  0.00    -0.116 C  
BRANCH  11  12
HETATM   12  C   UNL     1      -9.614   7.430  67.383  1.00  0.00    -0.148 C  
HETATM   13  O   UNL     1     -10.044   7.184  66.247  1.00  0.00    -0.041 OA 
BRANCH  12  14
HETATM   14  O   UNL     1     -10.042   8.609  67.986  1.00  0.00    -0.179 OA 
BRANCH  14  15
HETATM   15  C   UNL     1      -9.510  10.076  67.562  1.00  0.00    -0.148 C  
HETATM   16  C   UNL     1      -8.052   9.963  68.247  1.00  0.00    -0.104 C  
HETATM   17  C   UNL     1      -6.939  11.013  67.992  1.00  0.00    -0.068 C  
HETATM   18  C   UNL     1      -9.091  14.412  66.658  1.00  0.00    -0.265 C  
HETATM   19  C   UNL     1      -5.483  10.633  68.359  1.00  0.00    -0.040 C  
HETATM   20  C   UNL     1      -7.285  12.168  68.982  1.00  0.00    -0.037 C  
HETATM   21  O   UNL     1      -6.559  12.220  70.208  1.00  0.00    -0.439 OA 
HETATM   22  C   UNL     1      -7.375  13.506  68.296  1.00  0.00    -0.116 C  
HETATM   23  C   UNL     1      -9.677  13.429  65.617  1.00  0.00    -0.103 C  
HETATM   24  C   UNL     1      -8.894  13.932  68.127  1.00  0.00    -0.184 C  
HETATM   25  C   UNL     1      -6.411  14.561  68.898  1.00  0.00    -0.092 C  
HETATM   26  H   UNL     1      -6.770  12.923  70.811  1.00  0.00     0.000 HD 
HETATM   27  C   UNL     1      -9.116  15.090  69.151  1.00  0.00    -0.183 C  
HETATM   28  C   UNL     1     -10.592  15.298  69.280  1.00  0.00    -0.256 C  
HETATM   29  C   UNL     1     -11.116  13.904  69.070  1.00  0.00    -0.268 C  
HETATM   30  C   UNL     1     -10.037  12.884  68.541  1.00  0.00    -0.193 C  
HETATM   31  O   UNL     1     -12.231  13.629  69.445  1.00  0.00    -0.324 OA 
HETATM   32  C   UNL     1     -10.484  11.647  67.550  1.00  0.00    -0.228 C  
HETATM   33  C   UNL     1     -12.034  11.446  67.808  1.00  0.00    -0.073 C  
HETATM   34  C   UNL     1     -10.581  12.260  66.065  1.00  0.00    -0.287 C  
HETATM   35  C   UNL     1     -10.843  11.154  65.015  1.00  0.00    -0.244 C  
BRANCH  17  36
HETATM   36  C   UNL     1      -6.980  11.254  66.476  1.00  0.00    -0.100 C  
HETATM   37  C   UNL     1      -6.578  10.446  65.485  1.00  0.00    -0.125 C  
ENDBRANCH  17  36
ENDBRANCH  14  15
ENDBRANCH  12  14
ENDBRANCH  11  12
ENDBRANCH  10  11
ENDBRANCH   8  10
TORSDOF 6
ENDMDL
MODEL      117
REMARK 921   NORMALIZED FREE ENERGY PREDICTED BY IDOCK:   -4.01 KCAL/MOL
REMARK 922        TOTAL FREE ENERGY PREDICTED BY IDOCK:   -7.17 KCAL/MOL
REMARK 923 INTER-LIGAND FREE ENERGY PREDICTED BY IDOCK:   -5.64 KCAL/MOL
REMARK 924 INTRA-LIGAND FREE ENERGY PREDICTED BY IDOCK:   -1.52 KCAL/MOL
REMARK 927      BINDING AFFINITY PREDICTED BY RF-SCORE:    0.00 PKD
ROOT
HETATM    1  C   UNL     1      -7.071  10.441  65.500  1.00  0.00    -0.133 C  
HETATM    2  C   UNL     1      -7.494  11.668  66.333  1.00  0.00     0.112 C  
HETATM    3  C   UNL     1      -9.015  11.551  66.428  1.00  0.00    -0.200 C  
HETATM    4  C   UNL     1      -9.356  10.276  65.629  1.00  0.00    -0.192 C  
HETATM    5  C   UNL     1      -9.378   8.963  66.481  1.00  0.00    -0.252 C  
HETATM    6  N   UNL     1      -8.258  10.320  64.657  1.00  0.00    -0.163 NA 
HETATM    7  C   UNL     1      -8.213   9.281  63.663  1.00  0.00    -0.166 C  
HETATM    8  C   UNL     1      -8.024   8.212  66.638  1.00  0.00    -0.102 C  
HETATM    9  C   UNL     1      -6.789   9.131  66.307  1.00  0.00    -0.082 C  
ENDROOT
BRANCH   8  10
HETATM   10  S   UNL     1      -7.878   6.099  66.400  1.00  0.00    -0.106 SA 
BRANCH  10  11
HETATM   11  C   UNL     1      -9.352   5.174  67.111  1.00  0.00    -0.124 C  
BRANCH  11  12
HETATM   12  C   UNL     1     -10.759   5.796  67.760  1.00  0.00    -0.223 C  
HETATM   13  O   UNL     1     -11.411   6.524  66.997  1.00  0.00    -0.342 OA 
BRANCH  12  14
HETATM   14  O   UNL     1     -11.253   5.619  69.049  1.00  0.00    -0.133 OA 
BRANCH  14  15
HETATM   15  C   UNL     1     -10.524   6.189  70.374  1.00  0.00    -0.230 C  
HETATM   16  C   UNL     1      -9.966   7.557  69.720  1.00  0.00    -0.186 C  
HETATM   17  C   UNL     1      -9.342   8.686  70.581  1.00  0.00    -0.218 C  
HETATM   18  C   UNL     1      -8.218   6.690  74.146  1.00  0.00    -0.141 C  
HETATM   19  C   UNL     1      -9.198  10.091  69.944  1.00  0.00    -0.195 C  
HETATM   20  C   UNL     1      -7.869   8.219  70.794  1.00  0.00    -0.091 C  
HETATM   21  O   UNL     1      -6.870   8.794  69.954  1.00  0.00    -0.041 OA 
HETATM   22  C   UNL     1      -7.475   8.204  72.248  1.00  0.00    -0.139 C  
HETATM   23  C   UNL     1      -9.697   6.236  74.165  1.00  0.00    -0.244 C  
HETATM   24  C   UNL     1      -7.449   6.713  72.791  1.00  0.00    -0.092 C  
HETATM   25  C   UNL     1      -6.234   9.084  72.549  1.00  0.00     0.049 C  
HETATM   26  H   UNL     1      -5.974   8.509  70.084  1.00  0.00     0.000 HD 
HETATM   27  C   UNL     1      -5.938   6.365  72.974  1.00  0.00    -0.049 C  
HETATM   28  C   UNL     1      -5.838   4.884  73.154  1.00  0.00    -0.018 C  
HETATM   29  C   UNL     1      -6.980   4.396  72.306  1.00  0.00    -0.059 C  
HETATM   30  C   UNL     1      -7.958   5.535  71.827  1.00  0.00    -0.114 C  
HETATM   31  O   UNL     1      -6.994   3.246  71.938  1.00  0.00    -0.029 OA 
HETATM   32  C   UNL     1      -9.560   5.215  71.615  1.00  0.00    -0.204 C  
HETATM   33  C   UNL     1      -9.648   3.647  71.412  1.00  0.00    -0.237 C  
HETATM   34  C   UNL     1     -10.241   5.292  73.071  1.00  0.00    -0.213 C  
HETATM   35  C   UNL     1     -11.781   5.162  72.980  1.00  0.00    -0.231 C  
BRANCH  17  36
HETATM   36  C   UNL     1     -10.292   8.824  71.779  1.00  0.00    -0.413 C  
HETATM   37  C   UNL     1     -11.610   9.070  71.784  1.00  0.00    -0.444 C  
ENDBRANCH  17  36
ENDBRANCH  14  15
ENDBRANCH  12  14
ENDBRANCH  11  12
ENDBRANCH  10  11
ENDBRANCH   8  10
TORSDOF 6
ENDMDL
MODEL      118
REMARK 921   NORMALIZED FREE ENERGY PREDICTED BY IDOCK:   -3.99 KCAL/MOL
REMARK 922        TOTAL FREE ENERGY PREDICTED BY IDOCK:   -7.14 KCAL/MOL
REMARK 923 INTER-LIGAND FREE ENERGY PREDICTED BY IDOCK:   -5.70 KCAL/MOL
REMARK 924 INTRA-LIGAND FREE ENERGY PREDICTED BY IDOCK:   -1.44 KCAL/MOL
REMARK 927      BINDING AFFINITY PREDICTED BY RF-SCORE:    0.00 PKD
ROOT
HETATM    1  C   UNL     1      -9.963  14.573  66.143  1.00  0.00    -0.311 C  
HETATM    2  C   UNL     1     -10.793  15.184  64.995  1.00  0.00    -0.457 C  
HETATM    3  C   UNL     1     -11.562  13.996  64.415  1.00  0.00    -0.385 C  
HETATM    4  C   UNL     1     -11.105  12.789  65.260  1.00  0.00    -0.287 C  
HETATM    5  C   UNL     1     -11.984  12.514  66.526  1.00  0.00    -0.367 C  
HETATM    6  N   UNL     1      -9.747  13.242  65.582  1.00  0.00    -0.149 NA 
HETATM    7  C   UNL     1      -8.925  12.360  66.368  1.00  0.00    -0.100 C  
HETATM    8  C   UNL     1     -11.585  13.268  67.828  1.00  0.00    -0.342 C  
HETATM    9  C   UNL     1     -10.667  14.515  67.538  1.00  0.00    -0.276 C  
ENDROOT
BRANCH   8  10
HETATM   10  S   UNL     1     -11.482  12.279  69.713  1.00  0.00    -0.097 SA 
BRANCH  10  11
HETATM   11  C   UNL     1     -12.281  10.577  69.697  1.00  0.00    -0.137 C  
BRANCH  11  12
HETATM   12  C   UNL     1     -12.254   9.401  70.882  1.00  0.00    -0.227 C  
HETATM   13  O   UNL     1     -12.761   9.735  71.962  1.00  0.00    -0.388 OA 
BRANCH  12  14
HETATM   14  O   UNL     1     -11.705   8.126  70.802  1.00  0.00    -0.276 OA 
BRANCH  14  15
HETATM   15  C   UNL     1     -10.241   7.817  70.188  1.00  0.00    -0.205 C  
HETATM   16  C   UNL     1      -9.407   8.798  71.163  1.00  0.00    -0.297 C  
HETATM   17  C   UNL     1      -7.856   8.779  71.217  1.00  0.00    -0.167 C  
HETATM   18  C   UNL     1      -6.769   6.997  67.529  1.00  0.00    -0.068 C  
HETATM   19  C   UNL     1      -7.164   9.451  72.430  1.00  0.00     0.899 C  
HETATM   20  C   UNL     1      -7.433   9.667  70.006  1.00  0.00    -0.141 C  
HETATM   21  O   UNL     1      -7.071  11.019  70.278  1.00  0.00    -0.468 OA 
HETATM   22  C   UNL     1      -6.453   8.969  69.098  1.00  0.00    -0.043 C  
HETATM   23  C   UNL     1      -7.715   5.861  67.987  1.00  0.00    -0.100 C  
HETATM   24  C   UNL     1      -7.187   8.478  67.779  1.00  0.00    -0.084 C  
HETATM   25  C   UNL     1      -5.130   9.757  68.915  1.00  0.00    -0.036 C  
HETATM   26  H   UNL     1      -6.814  11.559  69.540  1.00  0.00     0.000 HD 
HETATM   27  C   UNL     1      -6.679   9.424  66.646  1.00  0.00    -0.072 C  
HETATM   28  C   UNL     1      -7.580   9.234  65.466  1.00  0.00    -0.091 C  
HETATM   29  C   UNL     1      -8.893   8.926  66.131  1.00  0.00    -0.161 C  
HETATM   30  C   UNL     1      -8.780   8.645  67.678  1.00  0.00    -0.136 C  
HETATM   31  O   UNL     1      -9.917   9.055  65.505  1.00  0.00    -0.088 OA 
HETATM   32  C   UNL     1      -9.814   7.588  68.404  1.00  0.00    -0.173 C  
HETATM   33  C   UNL     1     -11.072   7.510  67.445  1.00  0.00     0.005 C  
HETATM   34  C   UNL     1      -9.231   6.113  68.130  1.00  0.00    -0.117 C  
HETATM   35  C   UNL     1     -10.035   5.037  68.900  1.00  0.00    -0.236 C  
BRANCH  17  36
HETATM   36  C   UNL     1      -7.492   7.288  71.251  1.00  0.00    -0.079 C  
HETATM   37  C   UNL     1      -6.323   6.715  71.570  1.00  0.00    -0.042 C  
ENDBRANCH  17  36
ENDBRANCH  14  15
ENDBRANCH  12  14
ENDBRANCH  11  12
ENDBRANCH  10  11
ENDBRANCH   8  10
TORSDOF 6
ENDMDL
MODEL      119
REMARK 921   NORMALIZED FREE ENERGY PREDICTED BY IDOCK:   -3.99 KCAL/MOL
REMARK 922        TOTAL FREE ENERGY PREDICTED BY IDOCK:   -7.14 KCAL/MOL
REMARK 923 INTER-LIGAND FREE ENERGY PREDICTED BY IDOCK:   -5.07 KCAL/MOL
REMARK 924 INTRA-LIGAND FREE ENERGY PREDICTED BY IDOCK:   -2.07 KCAL/MOL
REMARK 927      BINDING AFFINITY PREDICTED BY RF-SCORE:    0.00 PKD
ROOT
HETATM    1  C   UNL     1      -9.120   3.461  70.686  1.00  0.00    -0.115 C  
HETATM    2  C   UNL     1     -10.192   4.327  71.380  1.00  0.00    -0.121 C  
HETATM    3  C   UNL     1      -9.392   5.244  72.306  1.00  0.00    -0.160 C  
HETATM    4  C   UNL     1      -7.923   4.825  72.090  1.00  0.00    -0.106 C  
HETATM    5  C   UNL     1      -7.183   5.616  70.959  1.00  0.00    -0.076 C  
HETATM    6  N   UNL     1      -8.138   3.410  71.765  1.00  0.00    -0.061 NA 
HETATM    7  C   UNL     1      -6.973   2.606  71.509  1.00  0.00    -0.031 C  
HETATM    8  C   UNL     1      -7.305   5.045  69.516  1.00  0.00    -0.057 C  
HETATM    9  C   UNL     1      -8.515   4.048  69.369  1.00  0.00    -0.094 C  
ENDROOT
BRANCH   8  10
HETATM   10  S   UNL     1      -5.614   4.872  68.230  1.00  0.00    -0.017 SA 
BRANCH  10  11
HETATM   11  C   UNL     1      -6.060   4.994  66.408  1.00  0.00    -0.030 C  
BRANCH  11  12
HETATM   12  C   UNL     1      -7.567   4.899  65.694  1.00  0.00    -0.086 C  
HETATM   13  O   UNL     1      -7.766   3.875  65.025  1.00  0.00    -0.083 OA 
BRANCH  12  14
HETATM   14  O   UNL     1      -8.591   5.840  65.738  1.00  0.00    -0.140 OA 
BRANCH  14  15
HETATM   15  C   UNL     1      -8.377   7.376  66.198  1.00  0.00    -0.139 C  
HETATM   16  C   UNL     1      -9.303   7.317  67.520  1.00  0.00    -0.144 C  
HETATM   17  C   UNL     1      -9.328   8.469  68.559  1.00  0.00    -0.139 C  
HETATM   18  C   UNL     1      -7.879  11.794  66.367  1.00  0.00     0.099 C  
HETATM   19  C   UNL     1      -9.922   8.173  69.959  1.00  0.00    -0.192 C  
HETATM   20  C   UNL     1     -10.321   9.502  67.942  1.00  0.00    -0.227 C  
HETATM   21  O   UNL     1     -11.658   9.504  68.438  1.00  0.00    -0.304 OA 
HETATM   22  C   UNL     1      -9.728  10.884  67.850  1.00  0.00    -0.178 C  
HETATM   23  C   UNL     1      -6.681  10.863  66.061  1.00  0.00    -0.073 C  
HETATM   24  C   UNL     1      -9.321  11.204  66.350  1.00  0.00    -0.207 C  
HETATM   25  C   UNL     1     -10.568  11.955  68.594  1.00  0.00    -0.259 C  
HETATM   26  H   UNL     1     -12.262  10.132  68.062  1.00  0.00     0.000 HD 
HETATM   27  C   UNL     1     -10.370  12.247  65.849  1.00  0.00    -0.280 C  
HETATM   28  C   UNL     1     -10.246  12.327  64.360  1.00  0.00    -0.341 C  
HETATM   29  C   UNL     1      -9.845  10.920  64.011  1.00  0.00    -0.322 C  
HETATM   30  C   UNL     1      -9.446  10.038  65.254  1.00  0.00    -0.323 C  
HETATM   31  O   UNL     1      -9.993  10.528  62.878  1.00  0.00    -0.272 OA 
HETATM   32  C   UNL     1      -8.304   8.861  65.100  1.00  0.00    -0.170 C  
HETATM   33  C   UNL     1      -8.264   8.518  63.554  1.00  0.00    -0.133 C  
HETATM   34  C   UNL     1      -6.874   9.592  65.205  1.00  0.00    -0.087 C  
HETATM   35  C   UNL     1      -5.716   8.565  65.232  1.00  0.00    -0.044 C  
BRANCH  17  36
HETATM   36  C   UNL     1      -7.851   8.838  68.758  1.00  0.00    -0.101 C  
HETATM   37  C   UNL     1      -7.206   9.145  69.893  1.00  0.00    -0.062 C  
ENDBRANCH  17  36
ENDBRANCH  14  15
ENDBRANCH  12  14
ENDBRANCH  11  12
ENDBRANCH  10  11
ENDBRANCH   8  10
TORSDOF 6
ENDMDL
MODEL      120
REMARK 921   NORMALIZED FREE ENERGY PREDICTED BY IDOCK:   -3.91 KCAL/MOL
REMARK 922        TOTAL FREE ENERGY PREDICTED BY IDOCK:   -7.03 KCAL/MOL
REMARK 923 INTER-LIGAND FREE ENERGY PREDICTED BY IDOCK:   -6.15 KCAL/MOL
REMARK 924 INTRA-LIGAND FREE ENERGY PREDICTED BY IDOCK:   -0.88 KCAL/MOL
REMARK 927      BINDING AFFINITY PREDICTED BY RF-SCORE:    0.00 PKD
ROOT
HETATM    1  C   UNL     1     -11.951  14.689  66.275  1.00  0.00    -0.251 C  
HETATM    2  C   UNL     1     -11.133  15.229  65.083  1.00  0.00    -0.412 C  
HETATM    3  C   UNL     1      -9.684  15.177  65.568  1.00  0.00    -0.303 C  
HETATM    4  C   UNL     1      -9.777  14.628  67.007  1.00  0.00    -0.243 C  
HETATM    5  C   UNL     1      -9.683  13.069  67.114  1.00  0.00    -0.230 C  
HETATM    6  N   UNL     1     -11.098  15.157  67.364  1.00  0.00    -0.319 NA 
HETATM    7  C   UNL     1     -11.581  14.888  68.693  1.00  0.00    -0.318 C  
HETATM    8  C   UNL     1     -11.019  12.280  66.984  1.00  0.00    -0.268 C  
HETATM    9  C   UNL     1     -12.157  13.139  66.315  1.00  0.00    -0.460 C  
ENDROOT
BRANCH   8  10
HETATM   10  S   UNL     1     -11.520  10.693  68.316  1.00  0.00    -0.162 SA 
BRANCH  10  11
HETATM   11  C   UNL     1     -10.469   9.156  68.059  1.00  0.00    -0.224 C  
BRANCH  11  12
HETATM   12  C   UNL     1      -8.816   9.047  67.845  1.00  0.00    -0.129 C  
HETATM   13  O   UNL     1      -8.339   9.849  67.030  1.00  0.00    -0.120 OA 
BRANCH  12  14
HETATM   14  O   UNL     1      -7.938   8.149  68.444  1.00  0.00    -0.119 OA 
BRANCH  14  15
HETATM   15  C   UNL     1      -8.416   6.891  69.341  1.00  0.00    -0.133 C  
HETATM   16  C   UNL     1      -8.458   7.665  70.759  1.00  0.00    -0.125 C  
HETATM   17  C   UNL     1      -9.080   7.024  72.028  1.00  0.00    -0.140 C  
HETATM   18  C   UNL     1      -9.012   2.876  71.162  1.00  0.00    -0.162 C  
HETATM   19  C   UNL     1      -9.429   7.955  73.216  1.00  0.00    -0.350 C  
HETATM   20  C   UNL     1      -7.937   6.119  72.585  1.00  0.00    -0.103 C  
HETATM   21  O   UNL     1      -7.158   6.636  73.661  1.00  0.00    -0.080 OA 
HETATM   22  C   UNL     1      -8.388   4.700  72.815  1.00  0.00    -0.111 C  
HETATM   23  C   UNL     1      -9.772   3.297  69.883  1.00  0.00    -0.065 C  
HETATM   24  C   UNL     1      -7.830   3.758  71.667  1.00  0.00    -0.062 C  
HETATM   25  C   UNL     1      -8.179   4.228  74.277  1.00  0.00    -0.091 C  
HETATM   26  H   UNL     1      -6.462   6.085  74.000  1.00  0.00     0.000 HD 
HETATM   27  C   UNL     1      -6.712   2.901  72.340  1.00  0.00    -0.019 C  
HETATM   28  C   UNL     1      -5.928   2.248  71.247  1.00  0.00    -0.014 C  
HETATM   29  C   UNL     1      -6.012   3.277  70.154  1.00  0.00    -0.019 C  
HETATM   30  C   UNL     1      -7.053   4.427  70.432  1.00  0.00    -0.045 C  
HETATM   31  O   UNL     1      -5.211   3.246  69.250  1.00  0.00    -0.010 OA 
HETATM   32  C   UNL     1      -7.854   5.138  69.181  1.00  0.00    -0.081 C  
HETATM   33  C   UNL     1      -6.960   4.863  67.903  1.00  0.00    -0.061 C  
HETATM   34  C   UNL     1      -9.081   4.165  68.809  1.00  0.00    -0.188 C  
HETATM   35  C   UNL     1     -10.005   4.805  67.745  1.00  0.00    -0.169 C  
BRANCH  17  36
HETATM   36  C   UNL     1     -10.393   6.399  71.536  1.00  0.00    -0.239 C  
HETATM   37  C   UNL     1     -11.612   6.952  71.462  1.00  0.00    -0.329 C  
ENDBRANCH  17  36
ENDBRANCH  14  15
ENDBRANCH  12  14
ENDBRANCH  11  12
ENDBRANCH  10  11
ENDBRANCH   8  10
TORSDOF 6
ENDMDL
MODEL      121
REMARK 921   NORMALIZED FREE ENERGY PREDICTED BY IDOCK:   -3.89 KCAL/MOL
REMARK 922        TOTAL FREE ENERGY PREDICTED BY IDOCK:   -7.01 KCAL/MOL
REMARK 923 INTER-LIGAND FREE ENERGY PREDICTED BY IDOCK:   -5.92 KCAL/MOL
REMARK 924 INTRA-LIGAND FREE ENERGY PREDICTED BY IDOCK:   -1.09 KCAL/MOL
REMARK 927      BINDING AFFINITY PREDICTED BY RF-SCORE:    0.00 PKD
ROOT
HETATM    1  C   UNL     1      -5.878   6.929  65.128  1.00  0.00    -0.036 C  
HETATM    2  C   UNL     1      -5.746   5.576  64.399  1.00  0.00    -0.017 C  
HETATM    3  C   UNL     1      -6.637   4.628  65.201  1.00  0.00    -0.044 C  
HETATM    4  C   UNL     1      -7.202   5.501  66.342  1.00  0.00    -0.077 C  
HETATM    5  C   UNL     1      -8.558   6.208  66.007  1.00  0.00    -0.145 C  
HETATM    6  N   UNL     1      -6.079   6.434  66.487  1.00  0.00    -0.032 NA 
HETATM    7  C   UNL     1      -6.185   7.442  67.508  1.00  0.00    -0.048 C  
HETATM    8  C   UNL     1      -8.465   7.599  65.314  1.00  0.00    -0.076 C  
HETATM    9  C   UNL     1      -7.054   7.847  64.658  1.00  0.00    -0.076 C  
ENDROOT
BRANCH   8  10
HETATM   10  S   UNL     1      -9.653   9.251  65.948  1.00  0.00    -0.268 SA 
BRANCH  10  11
HETATM   11  C   UNL     1     -10.023  10.466  64.561  1.00  0.00    -0.331 C  
BRANCH  11  12
HETATM   12  C   UNL     1     -11.170  11.680  64.517  1.00  0.00    -0.269 C  
HETATM   13  O   UNL     1     -11.457  12.087  63.382  1.00  0.00    -0.419 OA 
BRANCH  12  14
HETATM   14  O   UNL     1     -11.799  12.296  65.594  1.00  0.00    -0.406 OA 
BRANCH  14  15
HETATM   15  C   UNL     1     -11.007  12.907  66.865  1.00  0.00    -0.266 C  
HETATM   16  C   UNL     1     -12.117  12.544  67.982  1.00  0.00    -0.123 C  
HETATM   17  C   UNL     1     -11.833  12.685  69.500  1.00  0.00    -0.376 C  
HETATM   18  C   UNL     1      -8.581  15.400  69.638  1.00  0.00    -0.124 C  
HETATM   19  C   UNL     1     -12.783  11.963  70.488  1.00  0.00    -0.105 C  
HETATM   20  C   UNL     1     -12.079  14.200  69.784  1.00  0.00    -0.354 C  
HETATM   21  O   UNL     1     -13.337  14.565  70.348  1.00  0.00    -0.510 OA 
HETATM   22  C   UNL     1     -10.913  14.851  70.481  1.00  0.00    -0.135 C  
HETATM   23  C   UNL     1      -7.913  14.394  68.671  1.00  0.00    -0.145 C  
HETATM   24  C   UNL     1     -10.091  15.739  69.455  1.00  0.00    -0.268 C  
HETATM   25  C   UNL     1     -11.304  15.513  71.828  1.00  0.00    -0.463 C  
HETATM   26  H   UNL     1     -13.487  15.487  70.521  1.00  0.00     0.000 HD 
HETATM   27  C   UNL     1     -10.406  17.219  69.842  1.00  0.00     0.292 C  
HETATM   28  C   UNL     1      -9.941  18.086  68.716  1.00  0.00    -0.380 C  
HETATM   29  C   UNL     1     -10.168  17.191  67.528  1.00  0.00    -0.323 C  
HETATM   30  C   UNL     1     -10.499  15.697  67.903  1.00  0.00    -0.267 C  
HETATM   31  O   UNL     1     -10.231  17.679  66.425  1.00  0.00    -0.341 OA 
HETATM   32  C   UNL     1     -10.024  14.471  66.911  1.00  0.00    -0.259 C  
HETATM   33  C   UNL     1      -9.813  15.141  65.491  1.00  0.00    -0.356 C  
HETATM   34  C   UNL     1      -8.479  14.176  67.251  1.00  0.00    -0.228 C  
HETATM   35  C   UNL     1      -7.960  12.933  66.489  1.00  0.00     0.557 C  
BRANCH  17  36
HETATM   36  C   UNL     1     -10.434  12.080  69.686  1.00  0.00     0.545 C  
HETATM   37  C   UNL     1     -10.062  10.793  69.636  1.00  0.00    -0.053 C  
ENDBRANCH  17  36
ENDBRANCH  14  15
ENDBRANCH  12  14
ENDBRANCH  11  12
ENDBRANCH  10  11
ENDBRANCH   8  10
TORSDOF 6
ENDMDL
MODEL      122
REMARK 921   NORMALIZED FREE ENERGY PREDICTED BY IDOCK:   -3.88 KCAL/MOL
REMARK 922        TOTAL FREE ENERGY PREDICTED BY IDOCK:   -6.99 KCAL/MOL
REMARK 923 INTER-LIGAND FREE ENERGY PREDICTED BY IDOCK:   -4.95 KCAL/MOL
REMARK 924 INTRA-LIGAND FREE ENERGY PREDICTED BY IDOCK:   -2.04 KCAL/MOL
REMARK 927      BINDING AFFINITY PREDICTED BY RF-SCORE:    0.00 PKD
ROOT
HETATM    1  C   UNL     1      -7.535   9.806  66.340  1.00  0.00    -0.099 C  
HETATM    2  C   UNL     1      -8.220  10.816  67.284  1.00  0.00    -0.121 C  
HETATM    3  C   UNL     1      -9.714  10.612  67.031  1.00  0.00    -0.207 C  
HETATM    4  C   UNL     1      -9.777   9.514  65.949  1.00  0.00    -0.282 C  
HETATM    5  C   UNL     1      -9.853   8.055  66.509  1.00  0.00    -0.289 C  
HETATM    6  N   UNL     1      -8.516   9.808  65.258  1.00  0.00    -0.137 NA 
HETATM    7  C   UNL     1      -8.184   8.999  64.116  1.00  0.00    -0.166 C  
HETATM    8  C   UNL     1      -8.496   7.350  66.801  1.00  0.00    -0.124 C  
HETATM    9  C   UNL     1      -7.305   8.373  66.922  1.00  0.00    -0.083 C  
ENDROOT
BRANCH   8  10
HETATM   10  S   UNL     1      -8.121   5.340  66.199  1.00  0.00    -0.110 SA 
BRANCH  10  11
HETATM   11  C   UNL     1      -9.171   4.085  67.126  1.00  0.00    -0.165 C  
BRANCH  11  12
HETATM   12  C   UNL     1      -8.748   3.133  68.431  1.00  0.00    -0.105 C  
HETATM   13  O   UNL     1      -7.882   2.278  68.197  1.00  0.00    -0.058 OA 
BRANCH  12  14
HETATM   14  O   UNL     1      -9.276   3.169  69.718  1.00  0.00    -0.122 OA 
BRANCH  14  15
HETATM   15  C   UNL     1      -9.219   4.473  70.674  1.00  0.00    -0.135 C  
HETATM   16  C   UNL     1     -10.635   5.109  70.226  1.00  0.00    -0.230 C  
HETATM   17  C   UNL     1     -11.275   6.304  70.979  1.00  0.00    -0.372 C  
HETATM   18  C   UNL     1      -7.988   8.063  72.995  1.00  0.00    -0.207 C  
HETATM   19  C   UNL     1     -12.778   6.593  70.741  1.00  0.00     0.093 C  
HETATM   20  C   UNL     1     -10.555   7.550  70.378  1.00  0.00    -0.229 C  
HETATM   21  O   UNL     1     -11.243   8.280  69.365  1.00  0.00    -0.440 OA 
HETATM   22  C   UNL     1      -9.960   8.438  71.440  1.00  0.00    -0.275 C  
HETATM   23  C   UNL     1      -7.777   6.636  73.553  1.00  0.00    -0.090 C  
HETATM   24  C   UNL     1      -8.387   8.240  71.499  1.00  0.00    -0.174 C  
HETATM   25  C   UNL     1     -10.484   9.897  71.373  1.00  0.00     0.343 C  
HETATM   26  H   UNL     1     -10.804   9.039  68.999  1.00  0.00     0.000 HD 
HETATM   27  C   UNL     1      -7.782   9.543  70.886  1.00  0.00    -0.022 C  
HETATM   28  C   UNL     1      -6.337   9.277  70.604  1.00  0.00    -0.068 C  
HETATM   29  C   UNL     1      -6.358   7.812  70.264  1.00  0.00    -0.037 C  
HETATM   30  C   UNL     1      -7.722   7.094  70.593  1.00  0.00    -0.094 C  
HETATM   31  O   UNL     1      -5.433   7.334  69.651  1.00  0.00    -0.021 OA 
HETATM   32  C   UNL     1      -7.735   5.510  71.045  1.00  0.00    -0.103 C  
HETATM   33  C   UNL     1      -6.376   4.909  70.497  1.00  0.00    -0.026 C  
HETATM   34  C   UNL     1      -7.380   5.477  72.614  1.00  0.00    -0.095 C  
HETATM   35  C   UNL     1      -7.516   4.047  73.192  1.00  0.00    -0.074 C  
BRANCH  17  36
HETATM   36  C   UNL     1     -11.107   5.954  72.465  1.00  0.00    -0.328 C  
HETATM   37  C   UNL     1     -11.642   4.936  73.155  1.00  0.00    -0.300 C  
ENDBRANCH  17  36
ENDBRANCH  14  15
ENDBRANCH  12  14
ENDBRANCH  11  12
ENDBRANCH  10  11
ENDBRANCH   8  10
TORSDOF 6
ENDMDL
MODEL      123
REMARK 921   NORMALIZED FREE ENERGY PREDICTED BY IDOCK:   -3.84 KCAL/MOL
REMARK 922        TOTAL FREE ENERGY PREDICTED BY IDOCK:   -6.93 KCAL/MOL
REMARK 923 INTER-LIGAND FREE ENERGY PREDICTED BY IDOCK:   -5.28 KCAL/MOL
REMARK 924 INTRA-LIGAND FREE ENERGY PREDICTED BY IDOCK:   -1.65 KCAL/MOL
REMARK 927      BINDING AFFINITY PREDICTED BY RF-SCORE:    0.00 PKD
ROOT
HETATM    1  C   UNL     1      -6.053   6.917  65.319  1.00  0.00    -0.036 C  
HETATM    2  C   UNL     1      -6.828   8.223  65.593  1.00  0.00    -0.066 C  
HETATM    3  C   UNL     1      -8.267   7.895  65.196  1.00  0.00    -0.143 C  
HETATM    4  C   UNL     1      -8.210   6.433  64.705  1.00  0.00    -0.092 C  
HETATM    5  C   UNL     1      -8.462   5.365  65.821  1.00  0.00    -0.131 C  
HETATM    6  N   UNL     1      -6.837   6.423  64.190  1.00  0.00    -0.037 NA 
HETATM    7  C   UNL     1      -6.365   5.203  63.590  1.00  0.00    -0.022 C  
HETATM    8  C   UNL     1      -7.217   4.890  66.625  1.00  0.00    -0.080 C  
HETATM    9  C   UNL     1      -6.006   5.889  66.496  1.00  0.00    -0.022 C  
ENDROOT
BRANCH   8  10
HETATM   10  S   UNL     1      -6.862   2.828  67.033  1.00  0.00    -0.045 SA 
BRANCH  10  11
HETATM   11  C   UNL     1      -8.170   2.061  68.144  1.00  0.00    -0.058 C  
BRANCH  11  12
HETATM   12  C   UNL     1      -8.359   2.222  69.796  1.00  0.00    -0.045 C  
HETATM   13  O   UNL     1      -7.361   1.928  70.468  1.00  0.00    -0.033 OA 
BRANCH  12  14
HETATM   14  O   UNL     1      -9.503   2.608  70.487  1.00  0.00    -0.142 OA 
BRANCH  14  15
HETATM   15  C   UNL     1      -9.748   4.105  71.049  1.00  0.00    -0.190 C  
HETATM   16  C   UNL     1      -9.969   4.819  69.617  1.00  0.00    -0.297 C  
HETATM   17  C   UNL     1     -10.483   6.278  69.495  1.00  0.00    -0.293 C  
HETATM   18  C   UNL     1      -9.596   7.945  73.289  1.00  0.00    -0.351 C  
HETATM   19  C   UNL     1     -11.030   6.744  68.123  1.00  0.00    -0.277 C  
HETATM   20  C   UNL     1      -9.199   7.141  69.698  1.00  0.00    -0.146 C  
HETATM   21  O   UNL     1      -8.557   7.647  68.530  1.00  0.00    -0.128 OA 
HETATM   22  C   UNL     1      -9.372   8.185  70.771  1.00  0.00    -0.174 C  
HETATM   23  C   UNL     1     -10.396   6.735  73.826  1.00  0.00    -0.397 C  
HETATM   24  C   UNL     1      -8.618   7.738  72.094  1.00  0.00    -0.166 C  
HETATM   25  C   UNL     1      -9.107   9.626  70.263  1.00  0.00    -0.272 C  
HETATM   26  H   UNL     1      -7.775   8.172  68.654  1.00  0.00     0.000 HD 
HETATM   27  C   UNL     1      -7.370   8.671  72.195  1.00  0.00    -0.061 C  
HETATM   28  C   UNL     1      -6.451   8.081  73.218  1.00  0.00    -0.098 C  
HETATM   29  C   UNL     1      -6.709   6.609  73.047  1.00  0.00    -0.068 C  
HETATM   30  C   UNL     1      -7.958   6.275  72.146  1.00  0.00    -0.108 C  
HETATM   31  O   UNL     1      -5.898   5.815  73.461  1.00  0.00    -0.044 OA 
HETATM   32  C   UNL     1      -8.855   4.926  72.443  1.00  0.00    -0.130 C  
HETATM   33  C   UNL     1      -7.897   3.959  73.252  1.00  0.00    -0.083 C  
HETATM   34  C   UNL     1      -9.863   5.298  73.641  1.00  0.00    -0.171 C  
HETATM   35  C   UNL     1     -10.870   4.153  73.906  1.00  0.00    -0.321 C  
BRANCH  17  36
HETATM   36  C   UNL     1     -11.640   6.361  70.501  1.00  0.00    -0.424 C  
HETATM   37  C   UNL     1     -12.452   7.395  70.764  1.00  0.00    -0.130 C  
ENDBRANCH  17  36
ENDBRANCH  14  15
ENDBRANCH  12  14
ENDBRANCH  11  12
ENDBRANCH  10  11
ENDBRANCH   8  10
TORSDOF 6
ENDMDL
MODEL      124
REMARK 921   NORMALIZED FREE ENERGY PREDICTED BY IDOCK:   -3.78 KCAL/MOL
REMARK 922        TOTAL FREE ENERGY PREDICTED BY IDOCK:   -6.86 KCAL/MOL
REMARK 923 INTER-LIGAND FREE ENERGY PREDICTED BY IDOCK:   -5.97 KCAL/MOL
REMARK 924 INTRA-LIGAND FREE ENERGY PREDICTED BY IDOCK:   -0.89 KCAL/MOL
REMARK 927      BINDING AFFINITY PREDICTED BY RF-SCORE:    0.00 PKD
ROOT
HETATM    1  C   UNL     1      -9.046   7.421  73.982  1.00  0.00    -0.243 C  
HETATM    2  C   UNL     1      -7.640   7.723  74.540  1.00  0.00    -0.219 C  
HETATM    3  C   UNL     1      -6.728   6.730  73.818  1.00  0.00    -0.072 C  
HETATM    4  C   UNL     1      -7.680   5.919  72.913  1.00  0.00    -0.100 C  
HETATM    5  C   UNL     1      -7.874   6.513  71.478  1.00  0.00    -0.100 C  
HETATM    6  N   UNL     1      -8.890   5.989  73.740  1.00  0.00    -0.124 NA 
HETATM    7  C   UNL     1     -10.062   5.308  73.257  1.00  0.00    -0.175 C  
HETATM    8  C   UNL     1      -9.004   7.570  71.309  1.00  0.00    -0.137 C  
HETATM    9  C   UNL     1      -9.448   8.196  72.684  1.00  0.00    -0.346 C  
ENDROOT
BRANCH   8  10
HETATM   10  S   UNL     1     -10.371   7.501  69.675  1.00  0.00    -0.229 SA 
BRANCH  10  11
HETATM   11  C   UNL     1     -10.904   9.206  69.089  1.00  0.00    -0.110 C  
BRANCH  11  12
HETATM   12  C   UNL     1     -11.694  10.403  69.944  1.00  0.00    -0.264 C  
HETATM   13  O   UNL     1     -11.864  10.161  71.147  1.00  0.00    -0.345 OA 
BRANCH  12  14
HETATM   14  O   UNL     1     -12.202  11.603  69.457  1.00  0.00    -0.271 OA 
BRANCH  14  15
HETATM   15  C   UNL     1     -11.290  12.750  68.771  1.00  0.00    -0.288 C  
HETATM   16  C   UNL     1     -11.672  13.942  69.791  1.00  0.00    -0.372 C  
HETATM   17  C   UNL     1     -10.917  15.298  69.792  1.00  0.00    -0.295 C  
HETATM   18  C   UNL     1      -9.153  15.437  65.941  1.00  0.00    -0.188 C  
HETATM   19  C   UNL     1     -11.075  16.217  71.029  1.00  0.00    -0.105 C  
HETATM   20  C   UNL     1     -11.597  16.101  68.640  1.00  0.00    -0.283 C  
HETATM   21  O   UNL     1     -12.589  17.059  69.005  1.00  0.00     0.990 OA 
HETATM   22  C   UNL     1     -10.599  16.639  67.648  1.00  0.00    -0.321 C  
HETATM   23  C   UNL     1      -8.566  14.062  66.340  1.00  0.00     0.309 C  
HETATM   24  C   UNL     1     -10.628  15.770  66.320  1.00  0.00    -0.313 C  
HETATM   25  C   UNL     1     -10.679  18.179  67.483  1.00  0.00    -0.365 C  
HETATM   26  H   UNL     1     -13.003  17.547  68.303  1.00  0.00     0.000 HD 
HETATM   27  C   UNL     1     -11.313  16.675  65.248  1.00  0.00     0.258 C  
HETATM   28  C   UNL     1     -11.673  15.801  64.088  1.00  0.00    -0.070 C  
HETATM   29  C   UNL     1     -11.968  14.494  64.771  1.00  0.00    -0.442 C  
HETATM   30  C   UNL     1     -11.537  14.448  66.286  1.00  0.00    -0.377 C  
HETATM   31  O   UNL     1     -12.619  13.658  64.191  1.00  0.00    -0.655 OA 
HETATM   32  C   UNL     1     -11.038  13.031  66.962  1.00  0.00    -0.311 C  
HETATM   33  C   UNL     1     -11.647  11.894  66.042  1.00  0.00    -0.296 C  
HETATM   34  C   UNL     1      -9.493  12.846  66.554  1.00  0.00    -0.251 C  
HETATM   35  C   UNL     1      -8.865  11.622  67.263  1.00  0.00    -0.164 C  
BRANCH  17  36
HETATM   36  C   UNL     1      -9.435  14.911  69.696  1.00  0.00     0.060 C  
HETATM   37  C   UNL     1      -8.352  15.672  69.906  1.00  0.00     0.242 C  
ENDBRANCH  17  36
ENDBRANCH  14  15
ENDBRANCH  12  14
ENDBRANCH  11  12
ENDBRANCH  10  11
ENDBRANCH   8  10
TORSDOF 6
ENDMDL
MODEL      125
REMARK 921   NORMALIZED FREE ENERGY PREDICTED BY IDOCK:   -3.75 KCAL/MOL
REMARK 922        TOTAL FREE ENERGY PREDICTED BY IDOCK:   -6.82 KCAL/MOL
REMARK 923 INTER-LIGAND FREE ENERGY PREDICTED BY IDOCK:   -6.65 KCAL/MOL
REMARK 924 INTRA-LIGAND FREE ENERGY PREDICTED BY IDOCK:   -0.17 KCAL/MOL
REMARK 927      BINDING AFFINITY PREDICTED BY RF-SCORE:    0.00 PKD
ROOT
HETATM    1  C   UNL     1     -10.695   8.413  69.941  1.00  0.00    -0.227 C  
HETATM    2  C   UNL     1     -11.372   7.208  69.255  1.00  0.00     0.041 C  
HETATM    3  C   UNL     1     -12.384   6.709  70.286  1.00  0.00     0.106 C  
HETATM    4  C   UNL     1     -12.202   7.652  71.495  1.00  0.00    -0.324 C  
HETATM    5  C   UNL     1     -13.118   8.921  71.471  1.00  0.00    -0.376 C  
HETATM    6  N   UNL     1     -10.777   7.959  71.326  1.00  0.00    -0.226 NA 
HETATM    7  C   UNL     1     -10.168   8.823  72.302  1.00  0.00    -0.240 C  
HETATM    8  C   UNL     1     -12.562  10.167  70.723  1.00  0.00    -0.317 C  
HETATM    9  C   UNL     1     -11.392   9.798  69.734  1.00  0.00    -0.201 C  
ENDROOT
BRANCH   8  10
HETATM   10  S   UNL     1     -12.676  12.124  71.560  1.00  0.00    -0.149 SA 
BRANCH  10  11
HETATM   11  C   UNL     1     -12.464  13.485  70.281  1.00  0.00    -0.239 C  
BRANCH  11  12
HETATM   12  C   UNL     1     -12.613  15.136  70.481  1.00  0.00    -0.380 C  
HETATM   13  O   UNL     1     -13.736  15.521  70.837  1.00  0.00    -0.524 OA 
BRANCH  12  14
HETATM   14  O   UNL     1     -11.645  16.111  70.262  1.00  0.00    -0.337 OA 
BRANCH  14  15
HETATM   15  C   UNL     1     -10.513  16.008  69.111  1.00  0.00    -0.251 C  
HETATM   16  C   UNL     1     -10.074  14.481  69.403  1.00  0.00    -0.011 C  
HETATM   17  C   UNL     1      -9.139  13.697  68.445  1.00  0.00    -0.165 C  
HETATM   18  C   UNL     1      -7.161  16.760  66.284  1.00  0.00    -0.135 C  
HETATM   19  C   UNL     1      -9.084  12.155  68.583  1.00  0.00    -0.007 C  
HETATM   20  C   UNL     1      -7.708  14.160  68.862  1.00  0.00    -0.091 C  
HETATM   21  O   UNL     1      -6.964  13.299  69.720  1.00  0.00    -0.335 OA 
HETATM   22  C   UNL     1      -6.903  14.661  67.691  1.00  0.00    -0.204 C  
HETATM   23  C   UNL     1      -8.598  17.240  65.971  1.00  0.00    -0.127 C  
HETATM   24  C   UNL     1      -6.830  16.246  67.718  1.00  0.00    -0.155 C  
HETATM   25  C   UNL     1      -5.566  13.898  67.505  1.00  0.00     0.130 C  
HETATM   26  H   UNL     1      -6.093  13.582  69.974  1.00  0.00     0.000 HD 
HETATM   27  C   UNL     1      -5.363  16.586  68.132  1.00  0.00    -0.110 C  
HETATM   28  C   UNL     1      -5.326  18.035  68.503  1.00  0.00    -0.158 C  
HETATM   29  C   UNL     1      -6.703  18.239  69.074  1.00  0.00    -0.261 C  
HETATM   30  C   UNL     1      -7.690  17.038  68.819  1.00  0.00    -0.249 C  
HETATM   31  O   UNL     1      -6.912  19.192  69.786  1.00  0.00    -0.147 OA 
HETATM   32  C   UNL     1      -9.302  17.317  68.628  1.00  0.00    -0.267 C  
HETATM   33  C   UNL     1      -9.565  18.722  69.311  1.00  0.00    -0.080 C  
HETATM   34  C   UNL     1      -9.512  17.768  67.098  1.00  0.00    -0.265 C  
HETATM   35  C   UNL     1     -11.015  17.909  66.753  1.00  0.00     0.149 C  
BRANCH  17  36
HETATM   36  C   UNL     1      -9.677  14.011  67.042  1.00  0.00    -0.256 C  
HETATM   37  C   UNL     1      -9.792  13.197  65.983  1.00  0.00    -0.266 C  
ENDBRANCH  17  36
ENDBRANCH  14  15
ENDBRANCH  12  14
ENDBRANCH  11  12
ENDBRANCH  10  11
ENDBRANCH   8  10
TORSDOF 6
ENDMDL
MODEL      126
REMARK 921   NORMALIZED FREE ENERGY PREDICTED BY IDOCK:   -3.70 KCAL/MOL
REMARK 922        TOTAL FREE ENERGY PREDICTED BY IDOCK:   -6.76 KCAL/MOL
REMARK 923 INTER-LIGAND FREE ENERGY PREDICTED BY IDOCK:   -5.95 KCAL/MOL
REMARK 924 INTRA-LIGAND FREE ENERGY PREDICTED BY IDOCK:   -0.81 KCAL/MOL
REMARK 927      BINDING AFFINITY PREDICTED BY RF-SCORE:    0.00 PKD
ROOT
HETATM    1  C   UNL     1     -11.402  13.636  68.371  1.00  0.00    -0.295 C  
HETATM    2  C   UNL     1     -12.048  13.672  69.772  1.00  0.00    -0.396 C  
HETATM    3  C   UNL     1     -12.297  12.202  70.109  1.00  0.00    -0.219 C  
HETATM    4  C   UNL     1     -11.792  11.431  68.870  1.00  0.00    -0.347 C  
HETATM    5  C   UNL     1     -10.286  11.009  68.938  1.00  0.00    -0.223 C  
HETATM    6  N   UNL     1     -12.067  12.446  67.847  1.00  0.00    -0.404 NA 
HETATM    7  C   UNL     1     -11.758  12.109  66.483  1.00  0.00    -0.321 C  
HETATM    8  C   UNL     1      -9.249  12.044  68.415  1.00  0.00    -0.160 C  
HETATM    9  C   UNL     1      -9.845  13.501  68.340  1.00  0.00    -0.225 C  
ENDROOT
BRANCH   8  10
HETATM   10  S   UNL     1      -7.645  11.478  67.131  1.00  0.00    -0.155 SA 
BRANCH  10  11
HETATM   11  C   UNL     1      -6.941   9.783  67.537  1.00  0.00    -0.083 C  
BRANCH  11  12
HETATM   12  C   UNL     1      -6.435   9.189  69.013  1.00  0.00    -0.047 C  
HETATM   13  O   UNL     1      -5.833  10.004  69.727  1.00  0.00    -0.040 OA 
BRANCH  12  14
HETATM   14  O   UNL     1      -6.581   7.896  69.506  1.00  0.00    -0.034 OA 
BRANCH  14  15
HETATM   15  C   UNL     1      -7.676   6.844  68.950  1.00  0.00    -0.110 C  
HETATM   16  C   UNL     1      -7.819   5.974  70.304  1.00  0.00    -0.102 C  
HETATM   17  C   UNL     1      -8.930   4.906  70.482  1.00  0.00    -0.159 C  
HETATM   18  C   UNL     1     -10.060   3.996  66.500  1.00  0.00     0.017 C  
HETATM   19  C   UNL     1      -9.236   4.408  71.917  1.00  0.00    -0.174 C  
HETATM   20  C   UNL     1      -8.352   3.646  69.765  1.00  0.00    -0.052 C  
HETATM   21  O   UNL     1      -7.752   2.644  70.582  1.00  0.00    -0.042 OA 
HETATM   22  C   UNL     1      -9.304   3.079  68.744  1.00  0.00    -0.235 C  
HETATM   23  C   UNL     1     -10.269   5.525  66.384  1.00  0.00    -0.247 C  
HETATM   24  C   UNL     1      -8.823   3.458  67.280  1.00  0.00    -0.152 C  
HETATM   25  C   UNL     1      -9.656   1.592  69.005  1.00  0.00    -0.135 C  
HETATM   26  H   UNL     1      -7.400   1.878  70.145  1.00  0.00     0.000 HD 
HETATM   27  C   UNL     1      -8.280   2.129  66.665  1.00  0.00    -0.087 C  
HETATM   28  C   UNL     1      -7.511   2.486  65.433  1.00  0.00    -0.071 C  
HETATM   29  C   UNL     1      -6.950   3.832  65.803  1.00  0.00    -0.058 C  
HETATM   30  C   UNL     1      -7.570   4.449  67.114  1.00  0.00    -0.085 C  
HETATM   31  O   UNL     1      -6.003   4.266  65.193  1.00  0.00    -0.021 OA 
HETATM   32  C   UNL     1      -7.726   6.081  67.268  1.00  0.00    -0.097 C  
HETATM   33  C   UNL     1      -6.679   6.697  66.251  1.00  0.00    -0.049 C  
HETATM   34  C   UNL     1      -9.069   6.491  66.482  1.00  0.00    -0.166 C  
HETATM   35  C   UNL     1      -9.408   7.987  66.688  1.00  0.00    -0.249 C  
BRANCH  17  36
HETATM   36  C   UNL     1     -10.201   5.583  69.952  1.00  0.00    -0.338 C  
HETATM   37  C   UNL     1     -11.228   6.102  70.642  1.00  0.00    -0.387 C  
ENDBRANCH  17  36
ENDBRANCH  14  15
ENDBRANCH  12  14
ENDBRANCH  11  12
ENDBRANCH  10  11
ENDBRANCH   8  10
TORSDOF 6
ENDMDL
MODEL      127
REMARK 921   NORMALIZED FREE ENERGY PREDICTED BY IDOCK:   -3.68 KCAL/MOL
REMARK 922        TOTAL FREE ENERGY PREDICTED BY IDOCK:   -6.72 KCAL/MOL
REMARK 923 INTER-LIGAND FREE ENERGY PREDICTED BY IDOCK:   -5.29 KCAL/MOL
REMARK 924 INTRA-LIGAND FREE ENERGY PREDICTED BY IDOCK:   -1.43 KCAL/MOL
REMARK 927      BINDING AFFINITY PREDICTED BY RF-SCORE:    0.00 PKD
ROOT
HETATM    1  C   UNL     1     -12.429  15.272  69.476  1.00  0.00    -0.087 C  
HETATM    2  C   UNL     1     -11.149  16.133  69.497  1.00  0.00    -0.344 C  
HETATM    3  C   UNL     1     -10.912  16.417  70.981  1.00  0.00     0.157 C  
HETATM    4  C   UNL     1     -12.083  15.715  71.701  1.00  0.00    -0.426 C  
HETATM    5  C   UNL     1     -11.791  14.235  72.120  1.00  0.00     0.263 C  
HETATM    6  N   UNL     1     -13.097  15.832  70.648  1.00  0.00    -0.438 NA 
HETATM    7  C   UNL     1     -14.406  15.306  70.929  1.00  0.00     0.050 C  
HETATM    8  C   UNL     1     -12.102  13.138  71.061  1.00  0.00    -0.020 C  
HETATM    9  C   UNL     1     -12.216  13.728  69.605  1.00  0.00    -0.359 C  
ENDROOT
BRANCH   8  10
HETATM   10  S   UNL     1     -13.133  11.343  71.571  1.00  0.00    -0.221 SA 
BRANCH  10  11
HETATM   11  C   UNL     1     -12.042   9.815  71.479  1.00  0.00    -0.409 C  
BRANCH  11  12
HETATM   12  C   UNL     1     -10.815   9.473  70.399  1.00  0.00    -0.282 C  
HETATM   13  O   UNL     1     -11.039   8.525  69.634  1.00  0.00    -0.154 OA 
BRANCH  12  14
HETATM   14  O   UNL     1      -9.578  10.101  70.291  1.00  0.00    -0.118 OA 
BRANCH  14  15
HETATM   15  C   UNL     1      -8.757  10.229  68.903  1.00  0.00    -0.152 C  
HETATM   16  C   UNL     1      -9.810  11.185  68.138  1.00  0.00    -0.188 C  
HETATM   17  C   UNL     1      -9.472  11.866  66.786  1.00  0.00    -0.207 C  
HETATM   18  C   UNL     1      -6.303   9.497  65.265  1.00  0.00    -0.073 C  
HETATM   19  C   UNL     1     -10.360  13.049  66.325  1.00  0.00    -0.291 C  
HETATM   20  C   UNL     1      -9.754  10.753  65.729  1.00  0.00    -0.228 C  
HETATM   21  O   UNL     1     -11.000  10.806  65.037  1.00  0.00    -0.087 OA 
HETATM   22  C   UNL     1      -8.582  10.522  64.811  1.00  0.00    -0.173 C  
HETATM   23  C   UNL     1      -5.642   9.796  66.631  1.00  0.00    -0.046 C  
HETATM   24  C   UNL     1      -7.829   9.184  65.213  1.00  0.00    -0.105 C  
HETATM   25  C   UNL     1      -8.941  10.703  63.313  1.00  0.00    -0.229 C  
HETATM   26  H   UNL     1     -11.171  10.128  64.395  1.00  0.00     0.000 HD 
HETATM   27  C   UNL     1      -8.175   8.159  64.088  1.00  0.00    -0.083 C  
HETATM   28  C   UNL     1      -7.781   6.802  64.580  1.00  0.00    -0.112 C  
HETATM   29  C   UNL     1      -8.026   6.932  66.058  1.00  0.00    -0.109 C  
HETATM   30  C   UNL     1      -8.296   8.408  66.539  1.00  0.00    -0.111 C  
HETATM   31  O   UNL     1      -8.147   5.933  66.727  1.00  0.00    -0.101 OA 
HETATM   32  C   UNL     1      -7.821   8.889  68.041  1.00  0.00    -0.102 C  
HETATM   33  C   UNL     1      -7.687   7.553  68.883  1.00  0.00    -0.115 C  
HETATM   34  C   UNL     1      -6.256   9.246  67.937  1.00  0.00    -0.050 C  
HETATM   35  C   UNL     1      -5.729   9.863  69.255  1.00  0.00    -0.034 C  
BRANCH  17  36
HETATM   36  C   UNL     1      -8.049  12.410  66.976  1.00  0.00    -0.124 C  
HETATM   37  C   UNL     1      -7.660  13.592  67.475  1.00  0.00    -0.180 C  
ENDBRANCH  17  36
ENDBRANCH  14  15
ENDBRANCH  12  14
ENDBRANCH  11  12
ENDBRANCH  10  11
ENDBRANCH   8  10
TORSDOF 6
ENDMDL
MODEL      128
REMARK 921   NORMALIZED FREE ENERGY PREDICTED BY IDOCK:   -3.67 KCAL/MOL
REMARK 922        TOTAL FREE ENERGY PREDICTED BY IDOCK:   -6.71 KCAL/MOL
REMARK 923 INTER-LIGAND FREE ENERGY PREDICTED BY IDOCK:   -6.02 KCAL/MOL
REMARK 924 INTRA-LIGAND FREE ENERGY PREDICTED BY IDOCK:   -0.69 KCAL/MOL
REMARK 927      BINDING AFFINITY PREDICTED BY RF-SCORE:    0.00 PKD
ROOT
HETATM    1  C   UNL     1      -8.971   4.816  70.100  1.00  0.00    -0.099 C  
HETATM    2  C   UNL     1      -9.483   3.387  69.825  1.00  0.00    -0.229 C  
HETATM    3  C   UNL     1      -9.606   2.759  71.214  1.00  0.00    -0.227 C  
HETATM    4  C   UNL     1      -9.138   3.867  72.182  1.00  0.00    -0.115 C  
HETATM    5  C   UNL     1     -10.282   4.803  72.698  1.00  0.00    -0.242 C  
HETATM    6  N   UNL     1      -8.183   4.547  71.300  1.00  0.00    -0.093 NA 
HETATM    7  C   UNL     1      -7.469   5.672  71.841  1.00  0.00    -0.095 C  
HETATM    8  C   UNL     1     -10.614   6.045  71.821  1.00  0.00    -0.229 C  
HETATM    9  C   UNL     1     -10.070   5.900  70.350  1.00  0.00    -0.259 C  
ENDROOT
BRANCH   8  10
HETATM   10  S   UNL     1     -10.893   7.979  72.672  1.00  0.00    -0.364 SA 
BRANCH  10  11
HETATM   11  C   UNL     1     -11.176   9.317  71.382  1.00  0.00    -0.362 C  
BRANCH  11  12
HETATM   12  C   UNL     1     -12.325  10.529  71.370  1.00  0.00    -0.372 C  
HETATM   13  O   UNL     1     -12.975  10.645  72.419  1.00  0.00    -0.222 OA 
BRANCH  12  14
HETATM   14  O   UNL     1     -12.651  11.383  70.321  1.00  0.00    -0.231 OA 
BRANCH  14  15
HETATM   15  C   UNL     1     -11.567  12.290  69.534  1.00  0.00    -0.298 C  
HETATM   16  C   UNL     1     -11.988  13.708  70.184  1.00  0.00    -0.407 C  
HETATM   17  C   UNL     1     -11.136  14.989  69.985  1.00  0.00    -0.290 C  
HETATM   18  C   UNL     1      -8.864  14.123  66.514  1.00  0.00    -0.071 C  
HETATM   19  C   UNL     1     -11.385  16.183  70.939  1.00  0.00    -0.394 C  
HETATM   20  C   UNL     1     -11.589  15.523  68.591  1.00  0.00    -0.368 C  
HETATM   21  O   UNL     1     -12.541  16.583  68.573  1.00  0.00     0.462 OA 
HETATM   22  C   UNL     1     -10.426  15.762  67.662  1.00  0.00    -0.282 C  
HETATM   23  C   UNL     1      -8.446  12.859  67.302  1.00  0.00    -0.197 C  
HETATM   24  C   UNL     1     -10.344  14.603  66.581  1.00  0.00    -0.273 C  
HETATM   25  C   UNL     1     -10.361  17.220  67.137  1.00  0.00    -0.321 C  
HETATM   26  H   UNL     1     -12.817  16.908  67.724  1.00  0.00     0.000 HD 
HETATM   27  C   UNL     1     -10.806  15.255  65.239  1.00  0.00    -0.417 C  
HETATM   28  C   UNL     1     -11.074  14.146  64.271  1.00  0.00    -0.146 C  
HETATM   29  C   UNL     1     -11.560  13.055  65.185  1.00  0.00    -0.324 C  
HETATM   30  C   UNL     1     -11.343  13.353  66.717  1.00  0.00    -0.353 C  
HETATM   31  O   UNL     1     -12.192  12.135  64.722  1.00  0.00    -0.360 OA 
HETATM   32  C   UNL     1     -11.053  12.119  67.767  1.00  0.00    -0.302 C  
HETATM   33  C   UNL     1     -11.620  10.823  67.054  1.00  0.00     0.364 C  
HETATM   34  C   UNL     1      -9.486  11.772  67.649  1.00  0.00    -0.180 C  
HETATM   35  C   UNL     1      -9.058  10.726  68.707  1.00  0.00    -0.180 C  
BRANCH  17  36
HETATM   36  C   UNL     1      -9.689  14.524  70.204  1.00  0.00     0.878 C  
HETATM   37  C   UNL     1      -8.560  15.247  70.180  1.00  0.00     0.581 C  
ENDBRANCH  17  36
ENDBRANCH  14  15
ENDBRANCH  12  14
ENDBRANCH  11  12
ENDBRANCH  10  11
ENDBRANCH   8  10
TORSDOF 6
ENDMDL
MODEL      129
REMARK 921   NORMALIZED FREE ENERGY PREDICTED BY IDOCK:   -3.67 KCAL/MOL
REMARK 922        TOTAL FREE ENERGY PREDICTED BY IDOCK:   -6.71 KCAL/MOL
REMARK 923 INTER-LIGAND FREE ENERGY PREDICTED BY IDOCK:   -4.59 KCAL/MOL
REMARK 924 INTRA-LIGAND FREE ENERGY PREDICTED BY IDOCK:   -2.12 KCAL/MOL
REMARK 927      BINDING AFFINITY PREDICTED BY RF-SCORE:    0.00 PKD
ROOT
HETATM    1  C   UNL     1      -9.177   3.573  65.818  1.00  0.00    -0.160 C  
HETATM    2  C   UNL     1      -9.266   3.239  67.322  1.00  0.00    -0.221 C  
HETATM    3  C   UNL     1      -7.846   3.468  67.841  1.00  0.00    -0.072 C  
HETATM    4  C   UNL     1      -7.043   3.899  66.596  1.00  0.00    -0.060 C  
HETATM    5  C   UNL     1      -7.012   5.444  66.347  1.00  0.00    -0.064 C  
HETATM    6  N   UNL     1      -7.797   3.160  65.577  1.00  0.00    -0.084 NA 
HETATM    7  C   UNL     1      -7.345   3.265  64.215  1.00  0.00    -0.063 C  
HETATM    8  C   UNL     1      -8.177   6.037  65.503  1.00  0.00    -0.142 C  
HETATM    9  C   UNL     1      -9.418   5.070  65.435  1.00  0.00    -0.099 C  
ENDROOT
BRANCH   8  10
HETATM   10  S   UNL     1      -7.828   7.440  63.936  1.00  0.00    -0.087 SA 
BRANCH  10  11
HETATM   11  C   UNL     1      -8.711   9.078  64.204  1.00  0.00    -0.096 C  
BRANCH  11  12
HETATM   12  C   UNL     1      -9.606   9.576  65.523  1.00  0.00    -0.279 C  
HETATM   13  O   UNL     1      -9.801  10.798  65.593  1.00  0.00    -0.219 OA 
BRANCH  12  14
HETATM   14  O   UNL     1     -10.117   8.789  66.551  1.00  0.00    -0.274 OA 
BRANCH  14  15
HETATM   15  C   UNL     1      -9.501   8.757  68.046  1.00  0.00    -0.143 C  
HETATM   16  C   UNL     1      -7.949   8.907  67.623  1.00  0.00    -0.102 C  
HETATM   17  C   UNL     1      -6.834   9.171  68.669  1.00  0.00    -0.062 C  
HETATM   18  C   UNL     1      -8.577   7.876  72.308  1.00  0.00    -0.193 C  
HETATM   19  C   UNL     1      -5.464   9.682  68.157  1.00  0.00    -0.040 C  
HETATM   20  C   UNL     1      -6.515   7.753  69.237  1.00  0.00    -0.036 C  
HETATM   21  O   UNL     1      -5.373   7.079  68.714  1.00  0.00    -0.016 OA 
HETATM   22  C   UNL     1      -6.586   7.708  70.741  1.00  0.00    -0.038 C  
HETATM   23  C   UNL     1      -9.716   8.848  71.919  1.00  0.00    -0.349 C  
HETATM   24  C   UNL     1      -7.925   6.991  71.203  1.00  0.00    -0.104 C  
HETATM   25  C   UNL     1      -5.267   7.221  71.395  1.00  0.00    -0.027 C  
HETATM   26  H   UNL     1      -5.180   6.216  69.060  1.00  0.00     0.000 HD 
HETATM   27  C   UNL     1      -7.481   5.601  71.757  1.00  0.00    -0.094 C  
HETATM   28  C   UNL     1      -8.709   4.758  71.888  1.00  0.00    -0.133 C  
HETATM   29  C   UNL     1      -9.552   5.267  70.751  1.00  0.00    -0.176 C  
HETATM   30  C   UNL     1      -9.005   6.587  70.086  1.00  0.00    -0.155 C  
HETATM   31  O   UNL     1     -10.461   4.587  70.338  1.00  0.00    -0.071 OA 
HETATM   32  C   UNL     1     -10.052   7.687  69.448  1.00  0.00    -0.196 C  
HETATM   33  C   UNL     1     -11.381   6.877  69.157  1.00  0.00    -0.097 C  
HETATM   34  C   UNL     1     -10.593   8.573  70.678  1.00  0.00    -0.241 C  
HETATM   35  C   UNL     1     -11.470   9.748  70.183  1.00  0.00    -0.272 C  
BRANCH  17  36
HETATM   36  C   UNL     1      -7.415  10.259  69.582  1.00  0.00    -0.159 C  
HETATM   37  C   UNL     1      -6.869  11.426  69.953  1.00  0.00     0.038 C  
ENDBRANCH  17  36
ENDBRANCH  14  15
ENDBRANCH  12  14
ENDBRANCH  11  12
ENDBRANCH  10  11
ENDBRANCH   8  10
TORSDOF 6
ENDMDL
MODEL      130
REMARK 921   NORMALIZED FREE ENERGY PREDICTED BY IDOCK:   -3.64 KCAL/MOL
REMARK 922        TOTAL FREE ENERGY PREDICTED BY IDOCK:   -6.66 KCAL/MOL
REMARK 923 INTER-LIGAND FREE ENERGY PREDICTED BY IDOCK:   -5.68 KCAL/MOL
REMARK 924 INTRA-LIGAND FREE ENERGY PREDICTED BY IDOCK:   -0.98 KCAL/MOL
REMARK 927      BINDING AFFINITY PREDICTED BY RF-SCORE:    0.00 PKD
ROOT
HETATM    1  C   UNL     1     -10.982  14.985  66.236  1.00  0.00    -0.338 C  
HETATM    2  C   UNL     1     -10.428  15.317  67.638  1.00  0.00    -0.263 C  
HETATM    3  C   UNL     1     -10.926  14.171  68.519  1.00  0.00    -0.271 C  
HETATM    4  C   UNL     1     -11.742  13.275  67.564  1.00  0.00    -0.366 C  
HETATM    5  C   UNL     1     -10.913  12.145  66.867  1.00  0.00    -0.317 C  
HETATM    6  N   UNL     1     -12.213  14.308  66.635  1.00  0.00    -0.440 NA 
HETATM    7  C   UNL     1     -13.069  13.889  65.558  1.00  0.00    -0.187 C  
HETATM    8  C   UNL     1     -10.214  12.519  65.528  1.00  0.00    -0.275 C  
HETATM    9  C   UNL     1     -10.076  14.077  65.341  1.00  0.00    -0.343 C  
ENDROOT
BRANCH   8  10
HETATM   10  S   UNL     1     -10.291  11.241  63.824  1.00  0.00    -0.424 SA 
BRANCH  10  11
HETATM   11  C   UNL     1      -9.284   9.668  64.038  1.00  0.00    -0.148 C  
BRANCH  11  12
HETATM   12  C   UNL     1      -8.996   8.795  65.432  1.00  0.00    -0.160 C  
HETATM   13  O   UNL     1      -8.419   7.711  65.262  1.00  0.00    -0.138 OA 
BRANCH  12  14
HETATM   14  O   UNL     1      -9.356   9.128  66.734  1.00  0.00    -0.149 OA 
BRANCH  14  15
HETATM   15  C   UNL     1      -9.175   8.134  67.996  1.00  0.00    -0.132 C  
HETATM   16  C   UNL     1      -7.602   8.410  68.240  1.00  0.00    -0.098 C  
HETATM   17  C   UNL     1      -6.861   7.892  69.502  1.00  0.00    -0.047 C  
HETATM   18  C   UNL     1      -9.340   4.737  70.865  1.00  0.00    -0.209 C  
HETATM   19  C   UNL     1      -5.487   8.519  69.846  1.00  0.00    -0.029 C  
HETATM   20  C   UNL     1      -6.520   6.411  69.150  1.00  0.00    -0.043 C  
HETATM   21  O   UNL     1      -5.197   6.133  68.696  1.00  0.00    -0.006 OA 
HETATM   22  C   UNL     1      -6.993   5.446  70.206  1.00  0.00    -0.060 C  
HETATM   23  C   UNL     1     -10.450   5.814  70.832  1.00  0.00    -0.317 C  
HETATM   24  C   UNL     1      -8.296   4.689  69.709  1.00  0.00    -0.081 C  
HETATM   25  C   UNL     1      -5.849   4.573  70.784  1.00  0.00    -0.017 C  
HETATM   26  H   UNL     1      -4.990   5.232  68.481  1.00  0.00     0.000 HD 
HETATM   27  C   UNL     1      -7.835   3.229  69.401  1.00  0.00    -0.054 C  
HETATM   28  C   UNL     1      -8.926   2.571  68.617  1.00  0.00    -0.177 C  
HETATM   29  C   UNL     1      -9.486   3.731  67.840  1.00  0.00    -0.170 C  
HETATM   30  C   UNL     1      -8.964   5.138  68.320  1.00  0.00    -0.119 C  
HETATM   31  O   UNL     1     -10.146   3.517  66.852  1.00  0.00     0.176 OA 
HETATM   32  C   UNL     1      -9.936   6.463  68.210  1.00  0.00    -0.147 C  
HETATM   33  C   UNL     1     -11.012   6.100  67.105  1.00  0.00    -0.420 C  
HETATM   34  C   UNL     1     -10.909   6.427  69.491  1.00  0.00    -0.381 C  
HETATM   35  C   UNL     1     -11.769   7.711  69.583  1.00  0.00     0.473 C  
BRANCH  17  36
HETATM   36  C   UNL     1      -7.813   8.213  70.663  1.00  0.00    -0.091 C  
HETATM   37  C   UNL     1      -8.219   9.410  71.111  1.00  0.00     0.082 C  
ENDBRANCH  17  36
ENDBRANCH  14  15
ENDBRANCH  12  14
ENDBRANCH  11  12
ENDBRANCH  10  11
ENDBRANCH   8  10
TORSDOF 6
ENDMDL
MODEL      131
REMARK 921   NORMALIZED FREE ENERGY PREDICTED BY IDOCK:   -3.56 KCAL/MOL
REMARK 922        TOTAL FREE ENERGY PREDICTED BY IDOCK:   -6.56 KCAL/MOL
REMARK 923 INTER-LIGAND FREE ENERGY PREDICTED BY IDOCK:   -5.02 KCAL/MOL
REMARK 924 INTRA-LIGAND FREE ENERGY PREDICTED BY IDOCK:   -1.54 KCAL/MOL
REMARK 927      BINDING AFFINITY PREDICTED BY RF-SCORE:    0.00 PKD
ROOT
HETATM    1  C   UNL     1      -8.604   2.956  73.923  1.00  0.00    -0.073 C  
HETATM    2  C   UNL     1      -7.319   2.505  73.198  1.00  0.00    -0.041 C  
HETATM    3  C   UNL     1      -7.812   1.990  71.846  1.00  0.00    -0.045 C  
HETATM    4  C   UNL     1      -9.344   2.168  71.900  1.00  0.00    -0.100 C  
HETATM    5  C   UNL     1      -9.857   3.546  71.363  1.00  0.00    -0.214 C  
HETATM    6  N   UNL     1      -9.539   1.996  73.344  1.00  0.00    -0.075 NA 
HETATM    7  C   UNL     1     -10.887   2.062  73.841  1.00  0.00    -0.166 C  
HETATM    8  C   UNL     1      -9.929   4.710  72.393  1.00  0.00    -0.173 C  
HETATM    9  C   UNL     1      -9.048   4.434  73.670  1.00  0.00    -0.101 C  
ENDROOT
BRANCH   8  10
HETATM   10  S   UNL     1     -11.627   5.993  72.523  1.00  0.00    -0.216 SA 
BRANCH  10  11
HETATM   11  C   UNL     1     -11.574   7.411  71.291  1.00  0.00    -0.280 C  
BRANCH  11  12
HETATM   12  C   UNL     1     -11.167   9.009  71.556  1.00  0.00    -0.348 C  
HETATM   13  O   UNL     1     -12.127   9.771  71.738  1.00  0.00    -0.390 OA 
BRANCH  12  14
HETATM   14  O   UNL     1      -9.895   9.573  71.560  1.00  0.00    -0.183 OA 
BRANCH  14  15
HETATM   15  C   UNL     1      -8.822   9.375  70.367  1.00  0.00    -0.249 C  
HETATM   16  C   UNL     1      -9.848   9.604  69.139  1.00  0.00    -0.189 C  
HETATM   17  C   UNL     1      -9.357   9.762  67.676  1.00  0.00    -0.157 C  
HETATM   18  C   UNL     1      -5.500   8.007  67.742  1.00  0.00    -0.034 C  
HETATM   19  C   UNL     1     -10.342  10.357  66.639  1.00  0.00    -0.292 C  
HETATM   20  C   UNL     1      -9.149   8.293  67.194  1.00  0.00    -0.139 C  
HETATM   21  O   UNL     1     -10.185   7.708  66.407  1.00  0.00    -0.474 OA 
HETATM   22  C   UNL     1      -7.776   8.066  66.617  1.00  0.00    -0.094 C  
HETATM   23  C   UNL     1      -5.249   8.996  68.904  1.00  0.00    -0.037 C  
HETATM   24  C   UNL     1      -6.873   7.274  67.654  1.00  0.00    -0.074 C  
HETATM   25  C   UNL     1      -7.811   7.531  65.162  1.00  0.00    -0.122 C  
HETATM   26  H   UNL     1     -10.058   6.814  66.114  1.00  0.00     0.000 HD 
HETATM   27  C   UNL     1      -6.728   5.836  67.064  1.00  0.00    -0.062 C  
HETATM   28  C   UNL     1      -6.183   4.959  68.147  1.00  0.00    -0.035 C  
HETATM   29  C   UNL     1      -6.783   5.585  69.376  1.00  0.00    -0.059 C  
HETATM   30  C   UNL     1      -7.459   6.985  69.121  1.00  0.00    -0.095 C  
HETATM   31  O   UNL     1      -6.843   4.942  70.397  1.00  0.00    -0.035 OA 
HETATM   32  C   UNL     1      -7.455   8.133  70.301  1.00  0.00    -0.067 C  
HETATM   33  C   UNL     1      -7.241   7.338  71.655  1.00  0.00    -0.075 C  
HETATM   34  C   UNL     1      -6.017   8.855  70.236  1.00  0.00    -0.030 C  
HETATM   35  C   UNL     1      -5.949  10.064  71.200  1.00  0.00    -0.013 C  
BRANCH  17  36
HETATM   36  C   UNL     1      -8.162  10.721  67.774  1.00  0.00    -0.112 C  
HETATM   37  C   UNL     1      -8.006  11.930  67.215  1.00  0.00    -0.171 C  
ENDBRANCH  17  36
ENDBRANCH  14  15
ENDBRANCH  12  14
ENDBRANCH  11  12
ENDBRANCH  10  11
ENDBRANCH   8  10
TORSDOF 6
ENDMDL
MODEL      132
REMARK 921   NORMALIZED FREE ENERGY PREDICTED BY IDOCK:   -3.56 KCAL/MOL
REMARK 922        TOTAL FREE ENERGY PREDICTED BY IDOCK:   -6.56 KCAL/MOL
REMARK 923 INTER-LIGAND FREE ENERGY PREDICTED BY IDOCK:   -5.37 KCAL/MOL
REMARK 924 INTRA-LIGAND FREE ENERGY PREDICTED BY IDOCK:   -1.18 KCAL/MOL
REMARK 927      BINDING AFFINITY PREDICTED BY RF-SCORE:    0.00 PKD
ROOT
HETATM    1  C   UNL     1      -8.463   4.000  74.234  1.00  0.00    -0.096 C  
HETATM    2  C   UNL     1      -6.933   4.120  74.079  1.00  0.00    -0.061 C  
HETATM    3  C   UNL     1      -6.663   3.659  72.646  1.00  0.00    -0.033 C  
HETATM    4  C   UNL     1      -8.055   3.292  72.090  1.00  0.00    -0.063 C  
HETATM    5  C   UNL     1      -8.802   4.472  71.382  1.00  0.00    -0.153 C  
HETATM    6  N   UNL     1      -8.692   2.867  73.341  1.00  0.00    -0.079 NA 
HETATM    7  C   UNL     1     -10.051   2.399  73.266  1.00  0.00    -0.113 C  
HETATM    8  C   UNL     1      -9.673   5.388  72.290  1.00  0.00    -0.157 C  
HETATM    9  C   UNL     1      -9.292   5.257  73.812  1.00  0.00    -0.132 C  
ENDROOT
BRANCH   8  10
HETATM   10  S   UNL     1     -11.642   5.982  71.727  1.00  0.00    -0.161 SA 
BRANCH  10  11
HETATM   11  C   UNL     1     -11.673   7.568  70.718  1.00  0.00    -0.256 C  
BRANCH  11  12
HETATM   12  C   UNL     1     -11.387   9.133  71.226  1.00  0.00    -0.336 C  
HETATM   13  O   UNL     1     -12.394   9.758  71.588  1.00  0.00    -0.364 OA 
BRANCH  12  14
HETATM   14  O   UNL     1     -10.172   9.810  71.254  1.00  0.00    -0.153 OA 
BRANCH  14  15
HETATM   15  C   UNL     1      -9.340  10.213  69.926  1.00  0.00    -0.093 C  
HETATM   16  C   UNL     1     -10.449  11.201  69.291  1.00  0.00    -0.183 C  
HETATM   17  C   UNL     1     -10.141  12.109  68.072  1.00  0.00    -0.204 C  
HETATM   18  C   UNL     1      -6.782  10.240  66.286  1.00  0.00    -0.105 C  
HETATM   19  C   UNL     1     -11.106  13.285  67.778  1.00  0.00    -0.289 C  
HETATM   20  C   UNL     1     -10.323  11.160  66.847  1.00  0.00    -0.231 C  
HETATM   21  O   UNL     1     -11.558  11.234  66.138  1.00  0.00    -0.213 OA 
HETATM   22  C   UNL     1      -9.123  11.160  65.936  1.00  0.00    -0.218 C  
HETATM   23  C   UNL     1      -6.167  10.365  67.700  1.00  0.00    -0.056 C  
HETATM   24  C   UNL     1      -8.280   9.832  66.145  1.00  0.00    -0.120 C  
HETATM   25  C   UNL     1      -9.471  11.550  64.476  1.00  0.00    -0.108 C  
HETATM   26  H   UNL     1     -11.669  10.656  65.393  1.00  0.00     0.000 HD 
HETATM   27  C   UNL     1      -8.531   8.976  64.863  1.00  0.00    -0.195 C  
HETATM   28  C   UNL     1      -8.046   7.590  65.148  1.00  0.00    -0.130 C  
HETATM   29  C   UNL     1      -8.323   7.466  66.621  1.00  0.00    -0.124 C  
HETATM   30  C   UNL     1      -8.709   8.825  67.319  1.00  0.00    -0.133 C  
HETATM   31  O   UNL     1      -8.381   6.368  67.122  1.00  0.00    -0.112 OA 
HETATM   32  C   UNL     1      -8.295   9.095  68.891  1.00  0.00    -0.124 C  
HETATM   33  C   UNL     1      -8.076   7.656  69.517  1.00  0.00    -0.127 C  
HETATM   34  C   UNL     1      -6.759   9.574  68.886  1.00  0.00    -0.051 C  
HETATM   35  C   UNL     1      -6.300  10.009  70.299  1.00  0.00    -0.107 C  
BRANCH  17  36
HETATM   36  C   UNL     1      -8.765  12.715  68.384  1.00  0.00    -0.118 C  
HETATM   37  C   UNL     1      -8.146  13.746  67.792  1.00  0.00    -0.176 C  
ENDBRANCH  17  36
ENDBRANCH  14  15
ENDBRANCH  12  14
ENDBRANCH  11  12
ENDBRANCH  10  11
ENDBRANCH   8  10
TORSDOF 6
ENDMDL
MODEL      133
REMARK 921   NORMALIZED FREE ENERGY PREDICTED BY IDOCK:   -3.54 KCAL/MOL
REMARK 922        TOTAL FREE ENERGY PREDICTED BY IDOCK:   -6.53 KCAL/MOL
REMARK 923 INTER-LIGAND FREE ENERGY PREDICTED BY IDOCK:   -5.26 KCAL/MOL
REMARK 924 INTRA-LIGAND FREE ENERGY PREDICTED BY IDOCK:   -1.27 KCAL/MOL
REMARK 927      BINDING AFFINITY PREDICTED BY RF-SCORE:    0.00 PKD
ROOT
HETATM    1  C   UNL     1      -9.084   8.183  70.649  1.00  0.00    -0.150 C  
HETATM    2  C   UNL     1      -8.196   8.264  69.391  1.00  0.00    -0.117 C  
HETATM    3  C   UNL     1      -9.171   8.064  68.230  1.00  0.00    -0.134 C  
HETATM    4  C   UNL     1     -10.543   7.864  68.907  1.00  0.00    -0.145 C  
HETATM    5  C   UNL     1     -11.355   9.184  69.130  1.00  0.00     0.275 C  
HETATM    6  N   UNL     1     -10.088   7.244  70.156  1.00  0.00    -0.188 NA 
HETATM    7  C   UNL     1     -11.096   6.854  71.106  1.00  0.00    -0.260 C  
HETATM    8  C   UNL     1     -11.083   9.954  70.455  1.00  0.00    -0.319 C  
HETATM    9  C   UNL     1      -9.722   9.529  71.124  1.00  0.00    -0.134 C  
ENDROOT
BRANCH   8  10
HETATM   10  S   UNL     1     -12.669  10.722  71.653  1.00  0.00    -0.368 SA 
BRANCH  10  11
HETATM   11  C   UNL     1     -13.374  12.337  70.996  1.00  0.00     0.454 C  
BRANCH  11  12
HETATM   12  C   UNL     1     -12.756  13.881  71.144  1.00  0.00    -0.367 C  
HETATM   13  O   UNL     1     -13.603  14.770  71.308  1.00  0.00    -0.383 OA 
BRANCH  12  14
HETATM   14  O   UNL     1     -11.424  14.275  71.070  1.00  0.00    -0.146 OA 
BRANCH  14  15
HETATM   15  C   UNL     1     -10.680  14.664  69.687  1.00  0.00    -0.147 C  
HETATM   16  C   UNL     1     -10.614  16.258  69.941  1.00  0.00    -0.280 C  
HETATM   17  C   UNL     1      -9.782  17.202  69.032  1.00  0.00    -0.212 C  
HETATM   18  C   UNL     1      -9.325  14.967  65.461  1.00  0.00     0.125 C  
HETATM   19  C   UNL     1      -9.459  18.622  69.561  1.00  0.00     0.319 C  
HETATM   20  C   UNL     1     -10.720  17.462  67.812  1.00  0.00    -0.332 C  
HETATM   21  O   UNL     1     -11.457  18.682  67.799  1.00  0.00     0.181 OA 
HETATM   22  C   UNL     1     -10.044  17.171  66.497  1.00  0.00    -0.313 C  
HETATM   23  C   UNL     1      -8.764  13.879  66.407  1.00  0.00     0.197 C  
HETATM   24  C   UNL     1     -10.568  15.793  65.908  1.00  0.00    -0.350 C  
HETATM   25  C   UNL     1     -10.037  18.389  65.537  1.00  0.00     0.405 C  
HETATM   26  H   UNL     1     -12.027  18.840  67.057  1.00  0.00     0.000 HD 
HETATM   27  C   UNL     1     -11.477  16.178  64.698  1.00  0.00    -0.225 C  
HETATM   28  C   UNL     1     -12.260  14.961  64.320  1.00  0.00    -0.365 C  
HETATM   29  C   UNL     1     -12.436  14.286  65.653  1.00  0.00    -0.417 C  
HETATM   30  C   UNL     1     -11.553  14.898  66.805  1.00  0.00    -0.275 C  
HETATM   31  O   UNL     1     -13.308  13.461  65.787  1.00  0.00    -0.276 OA 
HETATM   32  C   UNL     1     -10.991  13.935  68.018  1.00  0.00    -0.267 C  
HETATM   33  C   UNL     1     -11.957  12.679  68.034  1.00  0.00    -0.300 C  
HETATM   34  C   UNL     1      -9.677  13.200  67.450  1.00  0.00    -0.220 C  
HETATM   35  C   UNL     1      -8.966  12.382  68.555  1.00  0.00    -0.058 C  
BRANCH  17  36
HETATM   36  C   UNL     1      -8.446  16.470  68.841  1.00  0.00    -0.235 C  
HETATM   37  C   UNL     1      -7.203  16.970  68.865  1.00  0.00    -0.239 C  
ENDBRANCH  17  36
ENDBRANCH  14  15
ENDBRANCH  12  14
ENDBRANCH  11  12
ENDBRANCH  10  11
ENDBRANCH   8  10
TORSDOF 6
ENDMDL
MODEL      134
REMARK 921   NORMALIZED FREE ENERGY PREDICTED BY IDOCK:   -3.51 KCAL/MOL
REMARK 922        TOTAL FREE ENERGY PREDICTED BY IDOCK:   -6.49 KCAL/MOL
REMARK 923 INTER-LIGAND FREE ENERGY PREDICTED BY IDOCK:   -5.49 KCAL/MOL
REMARK 924 INTRA-LIGAND FREE ENERGY PREDICTED BY IDOCK:   -1.00 KCAL/MOL
REMARK 927      BINDING AFFINITY PREDICTED BY RF-SCORE:    0.00 PKD
ROOT
HETATM    1  C   UNL     1     -11.339  11.802  67.099  1.00  0.00    -0.322 C  
HETATM    2  C   UNL     1     -11.877  13.009  66.302  1.00  0.00    -0.466 C  
HETATM    3  C   UNL     1     -10.619  13.702  65.777  1.00  0.00    -0.285 C  
HETATM    4  C   UNL     1      -9.453  12.854  66.325  1.00  0.00    -0.200 C  
HETATM    5  C   UNL     1      -8.994  11.694  65.378  1.00  0.00     0.085 C  
HETATM    6  N   UNL     1     -10.081  12.381  67.563  1.00  0.00    -0.201 NA 
HETATM    7  C   UNL     1      -9.292  11.544  68.427  1.00  0.00    -0.194 C  
HETATM    8  C   UNL     1      -9.736  10.335  65.533  1.00  0.00    -0.265 C  
HETATM    9  C   UNL     1     -11.114  10.488  66.280  1.00  0.00     0.145 C  
ENDROOT
BRANCH   8  10
HETATM   10  S   UNL     1      -8.685   8.482  65.599  1.00  0.00    -0.171 SA 
BRANCH  10  11
HETATM   11  C   UNL     1      -7.487   8.366  67.043  1.00  0.00    -0.088 C  
BRANCH  11  12
HETATM   12  C   UNL     1      -6.469   7.108  67.456  1.00  0.00    -0.054 C  
HETATM   13  O   UNL     1      -5.374   7.110  66.877  1.00  0.00    -0.020 OA 
BRANCH  12  14
HETATM   14  O   UNL     1      -6.725   6.060  68.334  1.00  0.00    -0.059 OA 
BRANCH  14  15
HETATM   15  C   UNL     1      -7.259   6.268  69.847  1.00  0.00    -0.074 C  
HETATM   16  C   UNL     1      -6.691   4.881  70.449  1.00  0.00    -0.036 C  
HETATM   17  C   UNL     1      -6.691   4.583  71.972  1.00  0.00    -0.034 C  
HETATM   18  C   UNL     1      -9.630   7.236  73.484  1.00  0.00    -0.293 C  
HETATM   19  C   UNL     1      -5.793   3.432  72.488  1.00  0.00    -0.008 C  
HETATM   20  C   UNL     1      -8.142   4.080  72.250  1.00  0.00    -0.086 C  
HETATM   21  O   UNL     1      -8.342   2.671  72.336  1.00  0.00    -0.061 OA 
HETATM   22  C   UNL     1      -8.807   4.837  73.371  1.00  0.00    -0.105 C  
HETATM   23  C   UNL     1      -8.790   8.317  72.763  1.00  0.00    -0.310 C  
HETATM   24  C   UNL     1      -9.864   5.864  72.783  1.00  0.00    -0.181 C  
HETATM   25  C   UNL     1      -9.288   3.915  74.522  1.00  0.00    -0.124 C  
HETATM   26  H   UNL     1      -9.225   2.365  72.506  1.00  0.00     0.000 HD 
HETATM   27  C   UNL     1     -11.263   5.265  73.130  1.00  0.00    -0.382 C  
HETATM   28  C   UNL     1     -12.280   6.000  72.316  1.00  0.00    -0.125 C  
HETATM   29  C   UNL     1     -11.502   6.318  71.069  1.00  0.00    -0.306 C  
HETATM   30  C   UNL     1      -9.954   6.048  71.190  1.00  0.00    -0.227 C  
HETATM   31  O   UNL     1     -12.097   6.600  70.057  1.00  0.00    -0.280 OA 
HETATM   32  C   UNL     1      -8.883   6.984  70.360  1.00  0.00    -0.155 C  
HETATM   33  C   UNL     1      -9.716   7.611  69.167  1.00  0.00    -0.164 C  
HETATM   34  C   UNL     1      -8.680   8.327  71.223  1.00  0.00    -0.186 C  
HETATM   35  C   UNL     1      -7.571   9.222  70.620  1.00  0.00    -0.161 C  
BRANCH  17  36
HETATM   36  C   UNL     1      -6.185   5.882  72.616  1.00  0.00    -0.053 C  
HETATM   37  C   UNL     1      -5.441   6.038  73.720  1.00  0.00    -0.040 C  
ENDBRANCH  17  36
ENDBRANCH  14  15
ENDBRANCH  12  14
ENDBRANCH  11  12
ENDBRANCH  10  11
ENDBRANCH   8  10
TORSDOF 6
ENDMDL
MODEL      135
REMARK 921   NORMALIZED FREE ENERGY PREDICTED BY IDOCK:   -3.48 KCAL/MOL
REMARK 922        TOTAL FREE ENERGY PREDICTED BY IDOCK:   -6.45 KCAL/MOL
REMARK 923 INTER-LIGAND FREE ENERGY PREDICTED BY IDOCK:   -5.66 KCAL/MOL
REMARK 924 INTRA-LIGAND FREE ENERGY PREDICTED BY IDOCK:   -0.79 KCAL/MOL
REMARK 927      BINDING AFFINITY PREDICTED BY RF-SCORE:    0.00 PKD
ROOT
HETATM    1  C   UNL     1     -11.957  14.493  66.384  1.00  0.00    -0.334 C  
HETATM    2  C   UNL     1     -11.121  14.877  65.145  1.00  0.00    -0.399 C  
HETATM    3  C   UNL     1      -9.716  15.115  65.700  1.00  0.00    -0.351 C  
HETATM    4  C   UNL     1      -9.852  14.868  67.217  1.00  0.00    -0.229 C  
HETATM    5  C   UNL     1      -9.584  13.391  67.660  1.00  0.00    -0.219 C  
HETATM    6  N   UNL     1     -11.248  15.283  67.388  1.00  0.00    -0.328 NA 
HETATM    7  C   UNL     1     -11.795  15.235  68.718  1.00  0.00    -0.307 C  
HETATM    8  C   UNL     1     -10.805  12.426  67.639  1.00  0.00    -0.225 C  
HETATM    9  C   UNL     1     -11.983  12.972  66.746  1.00  0.00    -0.434 C  
ENDROOT
BRANCH   8  10
HETATM   10  S   UNL     1     -11.216  11.098  69.255  1.00  0.00    -0.292 SA 
BRANCH  10  11
HETATM   11  C   UNL     1     -10.020   9.650  69.341  1.00  0.00    -0.197 C  
BRANCH  11  12
HETATM   12  C   UNL     1      -8.351   9.671  69.270  1.00  0.00    -0.137 C  
HETATM   13  O   UNL     1      -7.834  10.787  69.419  1.00  0.00    -0.144 OA 
BRANCH  12  14
HETATM   14  O   UNL     1      -7.497   8.599  69.033  1.00  0.00    -0.085 OA 
BRANCH  14  15
HETATM   15  C   UNL     1      -7.963   7.051  69.089  1.00  0.00    -0.119 C  
HETATM   16  C   UNL     1      -7.429   6.739  70.582  1.00  0.00    -0.083 C  
HETATM   17  C   UNL     1      -7.789   5.426  71.326  1.00  0.00    -0.109 C  
HETATM   18  C   UNL     1      -8.879   2.792  68.190  1.00  0.00    -0.164 C  
HETATM   19  C   UNL     1      -7.573   5.377  72.859  1.00  0.00    -0.097 C  
HETATM   20  C   UNL     1      -6.761   4.391  70.770  1.00  0.00    -0.035 C  
HETATM   21  O   UNL     1      -5.615   4.111  71.570  1.00  0.00    -0.007 OA 
HETATM   22  C   UNL     1      -7.427   3.147  70.243  1.00  0.00    -0.040 C  
HETATM   23  C   UNL     1      -9.861   3.922  67.802  1.00  0.00    -0.060 C  
HETATM   24  C   UNL     1      -7.439   3.164  68.656  1.00  0.00    -0.049 C  
HETATM   25  C   UNL     1      -6.919   1.851  70.928  1.00  0.00    -0.032 C  
HETATM   26  H   UNL     1      -4.989   3.482  71.231  1.00  0.00     0.000 HD 
HETATM   27  C   UNL     1      -6.391   2.092  68.222  1.00  0.00    -0.028 C  
HETATM   28  C   UNL     1      -6.113   2.300  66.767  1.00  0.00    -0.023 C  
HETATM   29  C   UNL     1      -6.277   3.789  66.635  1.00  0.00    -0.032 C  
HETATM   30  C   UNL     1      -6.918   4.480  67.898  1.00  0.00    -0.056 C  
HETATM   31  O   UNL     1      -5.794   4.355  65.684  1.00  0.00    -0.021 OA 
HETATM   32  C   UNL     1      -7.867   5.815  67.719  1.00  0.00    -0.098 C  
HETATM   33  C   UNL     1      -7.456   6.434  66.320  1.00  0.00    -0.085 C  
HETATM   34  C   UNL     1      -9.331   5.286  67.309  1.00  0.00    -0.123 C  
HETATM   35  C   UNL     1     -10.356   6.445  67.265  1.00  0.00    -0.274 C  
BRANCH  17  36
HETATM   36  C   UNL     1      -9.291   5.240  71.070  1.00  0.00    -0.193 C  
HETATM   37  C   UNL     1     -10.274   6.148  71.138  1.00  0.00    -0.245 C  
ENDBRANCH  17  36
ENDBRANCH  14  15
ENDBRANCH  12  14
ENDBRANCH  11  12
ENDBRANCH  10  11
ENDBRANCH   8  10
TORSDOF 6
ENDMDL
MODEL      136
REMARK 921   NORMALIZED FREE ENERGY PREDICTED BY IDOCK:   -3.46 KCAL/MOL
REMARK 922        TOTAL FREE ENERGY PREDICTED BY IDOCK:   -6.43 KCAL/MOL
REMARK 923 INTER-LIGAND FREE ENERGY PREDICTED BY IDOCK:   -6.19 KCAL/MOL
REMARK 924 INTRA-LIGAND FREE ENERGY PREDICTED BY IDOCK:   -0.24 KCAL/MOL
REMARK 927      BINDING AFFINITY PREDICTED BY RF-SCORE:    0.00 PKD
ROOT
HETATM    1  C   UNL     1      -7.961  16.605  66.601  1.00  0.00    -0.280 C  
HETATM    2  C   UNL     1      -6.464  16.674  66.966  1.00  0.00    -0.231 C  
HETATM    3  C   UNL     1      -6.456  17.027  68.453  1.00  0.00    -0.155 C  
HETATM    4  C   UNL     1      -7.948  17.152  68.829  1.00  0.00    -0.255 C  
HETATM    5  C   UNL     1      -8.604  15.822  69.329  1.00  0.00    -0.259 C  
HETATM    6  N   UNL     1      -8.467  17.607  67.535  1.00  0.00    -0.217 NA 
HETATM    7  C   UNL     1      -9.877  17.882  67.448  1.00  0.00    -0.305 C  
HETATM    8  C   UNL     1      -9.206  14.890  68.238  1.00  0.00    -0.187 C  
HETATM    9  C   UNL     1      -8.649  15.215  66.801  1.00  0.00    -0.297 C  
ENDROOT
BRANCH   8  10
HETATM   10  S   UNL     1     -11.125  13.990  68.462  1.00  0.00    -0.271 SA 
BRANCH  10  11
HETATM   11  C   UNL     1     -11.565  12.831  67.049  1.00  0.00    -0.360 C  
BRANCH  11  12
HETATM   12  C   UNL     1     -10.582  11.747  66.244  1.00  0.00    -0.252 C  
HETATM   13  O   UNL     1      -9.681  12.261  65.567  1.00  0.00    -0.234 OA 
BRANCH  12  14
HETATM   14  O   UNL     1     -10.684  10.360  66.224  1.00  0.00    -0.151 OA 
BRANCH  14  15
HETATM   15  C   UNL     1      -9.421   9.366  66.402  1.00  0.00    -0.201 C  
HETATM   16  C   UNL     1      -8.618   9.828  65.079  1.00  0.00    -0.178 C  
HETATM   17  C   UNL     1      -7.160   9.377  64.802  1.00  0.00    -0.102 C  
HETATM   18  C   UNL     1      -6.738   5.907  67.199  1.00  0.00    -0.061 C  
HETATM   19  C   UNL     1      -6.345  10.159  63.742  1.00  0.00    -0.131 C  
HETATM   20  C   UNL     1      -7.324   7.958  64.174  1.00  0.00    -0.097 C  
HETATM   21  O   UNL     1      -7.248   7.856  62.754  1.00  0.00    -0.084 OA 
HETATM   22  C   UNL     1      -6.496   6.917  64.882  1.00  0.00    -0.043 C  
HETATM   23  C   UNL     1      -7.206   6.839  68.342  1.00  0.00    -0.085 C  
HETATM   24  C   UNL     1      -7.422   6.017  65.803  1.00  0.00    -0.082 C  
HETATM   25  C   UNL     1      -5.514   6.178  63.936  1.00  0.00    -0.018 C  
HETATM   26  H   UNL     1      -7.348   6.992  62.372  1.00  0.00     0.000 HD 
HETATM   27  C   UNL     1      -7.502   4.633  65.085  1.00  0.00    -0.076 C  
HETATM   28  C   UNL     1      -8.619   3.864  65.716  1.00  0.00    -0.111 C  
HETATM   29  C   UNL     1      -9.576   4.964  66.087  1.00  0.00    -0.175 C  
HETATM   30  C   UNL     1      -8.970   6.413  65.958  1.00  0.00    -0.143 C  
HETATM   31  O   UNL     1     -10.733   4.693  66.301  1.00  0.00    -0.236 OA 
HETATM   32  C   UNL     1      -9.465   7.610  66.976  1.00  0.00    -0.209 C  
HETATM   33  C   UNL     1     -10.881   7.142  67.511  1.00  0.00    -0.311 C  
HETATM   34  C   UNL     1      -8.636   7.423  68.342  1.00  0.00    -0.124 C  
HETATM   35  C   UNL     1      -8.901   8.588  69.326  1.00  0.00    -0.142 C  
BRANCH  17  36
HETATM   36  C   UNL     1      -6.443   9.550  66.148  1.00  0.00    -0.070 C  
HETATM   37  C   UNL     1      -5.474  10.415  66.480  1.00  0.00    -0.055 C  
ENDBRANCH  17  36
ENDBRANCH  14  15
ENDBRANCH  12  14
ENDBRANCH  11  12
ENDBRANCH  10  11
ENDBRANCH   8  10
TORSDOF 6
ENDMDL
MODEL      137
REMARK 921   NORMALIZED FREE ENERGY PREDICTED BY IDOCK:   -3.46 KCAL/MOL
REMARK 922        TOTAL FREE ENERGY PREDICTED BY IDOCK:   -6.42 KCAL/MOL
REMARK 923 INTER-LIGAND FREE ENERGY PREDICTED BY IDOCK:   -5.99 KCAL/MOL
REMARK 924 INTRA-LIGAND FREE ENERGY PREDICTED BY IDOCK:   -0.44 KCAL/MOL
REMARK 927      BINDING AFFINITY PREDICTED BY RF-SCORE:    0.00 PKD
ROOT
HETATM    1  C   UNL     1      -8.561   4.187  72.588  1.00  0.00    -0.104 C  
HETATM    2  C   UNL     1      -9.072   2.890  73.248  1.00  0.00    -0.095 C  
HETATM    3  C   UNL     1     -10.117   3.368  74.256  1.00  0.00    -0.197 C  
HETATM    4  C   UNL     1     -10.116   4.905  74.115  1.00  0.00    -0.212 C  
HETATM    5  C   UNL     1     -11.134   5.460  73.064  1.00  0.00    -0.368 C  
HETATM    6  N   UNL     1      -8.715   5.093  73.724  1.00  0.00    -0.116 NA 
HETATM    7  C   UNL     1      -8.264   6.443  73.509  1.00  0.00    -0.119 C  
HETATM    8  C   UNL     1     -10.630   5.567  71.595  1.00  0.00    -0.231 C  
HETATM    9  C   UNL     1      -9.357   4.677  71.334  1.00  0.00    -0.206 C  
ENDROOT
BRANCH   8  10
HETATM   10  S   UNL     1     -10.982   7.303  70.409  1.00  0.00    -0.256 SA 
BRANCH  10  11
HETATM   11  C   UNL     1     -10.933   6.955  68.562  1.00  0.00    -0.136 C  
BRANCH  11  12
HETATM   12  C   UNL     1     -10.070   7.751  67.374  1.00  0.00    -0.222 C  
HETATM   13  O   UNL     1      -8.856   7.503  67.353  1.00  0.00    -0.126 OA 
BRANCH  12  14
HETATM   14  O   UNL     1     -10.550   8.670  66.446  1.00  0.00    -0.115 OA 
BRANCH  14  15
HETATM   15  C   UNL     1     -10.683  10.255  66.740  1.00  0.00    -0.146 C  
HETATM   16  C   UNL     1     -10.874  10.725  65.207  1.00  0.00    -0.064 C  
HETATM   17  C   UNL     1     -11.288  12.174  64.836  1.00  0.00    -0.378 C  
HETATM   18  C   UNL     1     -10.235  14.403  68.283  1.00  0.00    -0.241 C  
HETATM   19  C   UNL     1     -11.821  12.434  63.405  1.00  0.00    -0.571 C  
HETATM   20  C   UNL     1      -9.945  12.966  64.885  1.00  0.00    -0.130 C  
HETATM   21  O   UNL     1      -9.286  13.217  63.645  1.00  0.00     0.208 OA 
HETATM   22  C   UNL     1     -10.031  14.189  65.761  1.00  0.00    -0.331 C  
HETATM   23  C   UNL     1     -11.109  13.363  69.023  1.00  0.00    -0.293 C  
HETATM   24  C   UNL     1      -9.291  13.925  67.140  1.00  0.00    -0.244 C  
HETATM   25  C   UNL     1      -9.674  15.498  65.011  1.00  0.00     0.229 C  
HETATM   26  H   UNL     1      -8.469  13.699  63.675  1.00  0.00     0.000 HD 
HETATM   27  C   UNL     1      -7.980  14.771  67.075  1.00  0.00    -0.139 C  
HETATM   28  C   UNL     1      -7.090  14.303  68.183  1.00  0.00    -0.126 C  
HETATM   29  C   UNL     1      -7.451  12.846  68.270  1.00  0.00    -0.125 C  
HETATM   30  C   UNL     1      -8.733  12.450  67.443  1.00  0.00    -0.183 C  
HETATM   31  O   UNL     1      -6.691  12.080  68.813  1.00  0.00    -0.074 OA 
HETATM   32  C   UNL     1      -9.716  11.239  67.970  1.00  0.00    -0.185 C  
HETATM   33  C   UNL     1      -8.815  10.360  68.933  1.00  0.00    -0.161 C  
HETATM   34  C   UNL     1     -10.679  11.881  69.087  1.00  0.00    -0.143 C  
HETATM   35  C   UNL     1     -11.759  10.873  69.549  1.00  0.00    -0.400 C  
BRANCH  17  36
HETATM   36  C   UNL     1     -12.422  12.510  65.815  1.00  0.00    -0.040 C  
HETATM   37  C   UNL     1     -13.108  13.655  65.945  1.00  0.00     0.055 C  
ENDBRANCH  17  36
ENDBRANCH  14  15
ENDBRANCH  12  14
ENDBRANCH  11  12
ENDBRANCH  10  11
ENDBRANCH   8  10
TORSDOF 6
ENDMDL
MODEL      138
REMARK 921   NORMALIZED FREE ENERGY PREDICTED BY IDOCK:   -3.42 KCAL/MOL
REMARK 922        TOTAL FREE ENERGY PREDICTED BY IDOCK:   -6.37 KCAL/MOL
REMARK 923 INTER-LIGAND FREE ENERGY PREDICTED BY IDOCK:   -4.88 KCAL/MOL
REMARK 924 INTRA-LIGAND FREE ENERGY PREDICTED BY IDOCK:   -1.49 KCAL/MOL
REMARK 927      BINDING AFFINITY PREDICTED BY RF-SCORE:    0.00 PKD
ROOT
HETATM    1  C   UNL     1      -5.458   8.298  65.379  1.00  0.00    -0.035 C  
HETATM    2  C   UNL     1      -5.345   9.552  64.488  1.00  0.00    -0.059 C  
HETATM    3  C   UNL     1      -6.324   9.289  63.343  1.00  0.00    -0.091 C  
HETATM    4  C   UNL     1      -6.914   7.897  63.652  1.00  0.00    -0.075 C  
HETATM    5  C   UNL     1      -8.214   7.922  64.523  1.00  0.00    -0.073 C  
HETATM    6  N   UNL     1      -5.760   7.312  64.344  1.00  0.00    -0.033 NA 
HETATM    7  C   UNL     1      -5.880   5.952  64.796  1.00  0.00    -0.025 C  
HETATM    8  C   UNL     1      -8.018   7.913  66.067  1.00  0.00    -0.103 C  
HETATM    9  C   UNL     1      -6.562   8.344  66.486  1.00  0.00    -0.056 C  
ENDROOT
BRANCH   8  10
HETATM   10  S   UNL     1      -9.165   6.645  67.339  1.00  0.00    -0.123 SA 
BRANCH  10  11
HETATM   11  C   UNL     1     -10.172   7.594  68.611  1.00  0.00    -0.199 C  
BRANCH  11  12
HETATM   12  C   UNL     1      -9.630   8.559  69.862  1.00  0.00    -0.171 C  
HETATM   13  O   UNL     1      -9.997   8.207  70.992  1.00  0.00    -0.183 OA 
BRANCH  12  14
HETATM   14  O   UNL     1      -8.855   9.711  69.773  1.00  0.00    -0.176 OA 
BRANCH  14  15
HETATM   15  C   UNL     1      -9.310  11.037  68.967  1.00  0.00    -0.091 C  
HETATM   16  C   UNL     1      -7.885  11.797  69.017  1.00  0.00     0.064 C  
HETATM   17  C   UNL     1      -7.607  13.080  68.189  1.00  0.00    -0.136 C  
HETATM   18  C   UNL     1     -11.487  14.569  67.362  1.00  0.00    -0.385 C  
HETATM   19  C   UNL     1      -6.133  13.511  67.990  1.00  0.00    -0.133 C  
HETATM   20  C   UNL     1      -8.217  14.222  69.060  1.00  0.00     0.020 C  
HETATM   21  O   UNL     1      -7.321  14.979  69.870  1.00  0.00    -0.260 OA 
HETATM   22  C   UNL     1      -9.178  15.085  68.284  1.00  0.00    -0.184 C  
HETATM   23  C   UNL     1     -11.734  13.151  66.797  1.00  0.00    -0.439 C  
HETATM   24  C   UNL     1     -10.673  14.729  68.681  1.00  0.00    -0.253 C  
HETATM   25  C   UNL     1      -8.787  16.585  68.291  1.00  0.00    -0.210 C  
HETATM   26  H   UNL     1      -7.692  15.674  70.400  1.00  0.00     0.000 HD 
HETATM   27  C   UNL     1     -11.175  15.938  69.532  1.00  0.00    -0.325 C  
HETATM   28  C   UNL     1     -12.438  15.515  70.211  1.00  0.00    -0.403 C  
HETATM   29  C   UNL     1     -12.190  14.048  70.431  1.00  0.00    -0.363 C  
HETATM   30  C   UNL     1     -10.933  13.487  69.664  1.00  0.00     0.050 C  
HETATM   31  O   UNL     1     -12.842  13.455  71.256  1.00  0.00    -0.347 OA 
HETATM   32  C   UNL     1     -10.920  11.931  69.123  1.00  0.00    -0.251 C  
HETATM   33  C   UNL     1     -11.994  11.174  70.008  1.00  0.00    -0.447 C  
HETATM   34  C   UNL     1     -11.728  11.922  67.732  1.00  0.00    -0.362 C  
HETATM   35  C   UNL     1     -11.650  10.537  67.044  1.00  0.00     0.652 C  
BRANCH  17  36
HETATM   36  C   UNL     1      -8.184  12.772  66.800  1.00  0.00     0.058 C  
HETATM   37  C   UNL     1      -7.975  11.701  66.021  1.00  0.00     0.270 C  
ENDBRANCH  17  36
ENDBRANCH  14  15
ENDBRANCH  12  14
ENDBRANCH  11  12
ENDBRANCH  10  11
ENDBRANCH   8  10
TORSDOF 6
ENDMDL
MODEL      139
REMARK 921   NORMALIZED FREE ENERGY PREDICTED BY IDOCK:   -3.42 KCAL/MOL
REMARK 922        TOTAL FREE ENERGY PREDICTED BY IDOCK:   -6.37 KCAL/MOL
REMARK 923 INTER-LIGAND FREE ENERGY PREDICTED BY IDOCK:   -4.92 KCAL/MOL
REMARK 924 INTRA-LIGAND FREE ENERGY PREDICTED BY IDOCK:   -1.45 KCAL/MOL
REMARK 927      BINDING AFFINITY PREDICTED BY RF-SCORE:    0.00 PKD
ROOT
HETATM    1  C   UNL     1      -5.674   8.944  64.101  1.00  0.00    -0.069 C  
HETATM    2  C   UNL     1      -6.822   9.954  64.305  1.00  0.00    -0.125 C  
HETATM    3  C   UNL     1      -8.060   9.225  63.783  1.00  0.00    -0.155 C  
HETATM    4  C   UNL     1      -7.530   7.858  63.302  1.00  0.00    -0.119 C  
HETATM    5  C   UNL     1      -7.546   6.735  64.392  1.00  0.00    -0.104 C  
HETATM    6  N   UNL     1      -6.178   8.268  62.908  1.00  0.00    -0.085 NA 
HETATM    7  C   UNL     1      -5.316   7.258  62.354  1.00  0.00    -0.037 C  
HETATM    8  C   UNL     1      -6.288   6.630  65.302  1.00  0.00    -0.042 C  
HETATM    9  C   UNL     1      -5.423   7.946  65.279  1.00  0.00    -0.033 C  
ENDROOT
BRANCH   8  10
HETATM   10  S   UNL     1      -5.371   4.756  65.741  1.00  0.00    -0.013 SA 
BRANCH  10  11
HETATM   11  C   UNL     1      -6.477   3.613  66.744  1.00  0.00    -0.041 C  
BRANCH  11  12
HETATM   12  C   UNL     1      -8.123   3.721  67.007  1.00  0.00    -0.095 C  
HETATM   13  O   UNL     1      -8.821   3.676  65.985  1.00  0.00    -0.116 OA 
BRANCH  12  14
HETATM   14  O   UNL     1      -8.780   3.888  68.222  1.00  0.00    -0.093 OA 
BRANCH  14  15
HETATM   15  C   UNL     1      -8.624   5.202  69.152  1.00  0.00    -0.092 C  
HETATM   16  C   UNL     1      -7.681   4.534  70.281  1.00  0.00    -0.056 C  
HETATM   17  C   UNL     1      -6.981   5.382  71.376  1.00  0.00    -0.065 C  
HETATM   18  C   UNL     1      -9.278   8.942  71.471  1.00  0.00    -0.322 C  
HETATM   19  C   UNL     1      -5.811   4.736  72.158  1.00  0.00    -0.016 C  
HETATM   20  C   UNL     1      -8.090   5.578  72.456  1.00  0.00    -0.103 C  
HETATM   21  O   UNL     1      -8.052   4.724  73.597  1.00  0.00    -0.104 OA 
HETATM   22  C   UNL     1      -8.291   7.028  72.815  1.00  0.00    -0.120 C  
HETATM   23  C   UNL     1      -8.980   8.981  69.953  1.00  0.00    -0.170 C  
HETATM   24  C   UNL     1      -9.618   7.578  72.142  1.00  0.00    -0.190 C  
HETATM   25  C   UNL     1      -8.102   7.308  74.329  1.00  0.00    -0.188 C  
HETATM   26  H   UNL     1      -8.727   4.843  74.254  1.00  0.00     0.000 HD 
HETATM   27  C   UNL     1     -10.639   7.743  73.312  1.00  0.00    -0.350 C  
HETATM   28  C   UNL     1     -11.992   7.928  72.703  1.00  0.00    -0.299 C  
HETATM   29  C   UNL     1     -11.882   7.098  71.454  1.00  0.00    -0.308 C  
HETATM   30  C   UNL     1     -10.415   6.626  71.124  1.00  0.00    -0.247 C  
HETATM   31  O   UNL     1     -12.888   6.735  70.895  1.00  0.00    -0.259 OA 
HETATM   32  C   UNL     1      -9.940   6.435  69.558  1.00  0.00    -0.190 C  
HETATM   33  C   UNL     1     -11.280   6.240  68.737  1.00  0.00    -0.357 C  
HETATM   34  C   UNL     1      -9.553   7.899  69.013  1.00  0.00    -0.155 C  
HETATM   35  C   UNL     1      -8.940   7.828  67.594  1.00  0.00    -0.128 C  
BRANCH  17  36
HETATM   36  C   UNL     1      -6.414   6.591  70.619  1.00  0.00    -0.048 C  
HETATM   37  C   UNL     1      -5.168   7.085  70.638  1.00  0.00    -0.023 C  
ENDBRANCH  17  36
ENDBRANCH  14  15
ENDBRANCH  12  14
ENDBRANCH  11  12
ENDBRANCH  10  11
ENDBRANCH   8  10
TORSDOF 6
ENDMDL
MODEL      140
REMARK 921   NORMALIZED FREE ENERGY PREDICTED BY IDOCK:   -3.39 KCAL/MOL
REMARK 922        TOTAL FREE ENERGY PREDICTED BY IDOCK:   -6.33 KCAL/MOL
REMARK 923 INTER-LIGAND FREE ENERGY PREDICTED BY IDOCK:   -5.61 KCAL/MOL
REMARK 924 INTRA-LIGAND FREE ENERGY PREDICTED BY IDOCK:   -0.72 KCAL/MOL
REMARK 927      BINDING AFFINITY PREDICTED BY RF-SCORE:    0.00 PKD
ROOT
HETATM    1  C   UNL     1      -7.653   3.405  66.593  1.00  0.00    -0.077 C  
HETATM    2  C   UNL     1      -7.280   1.912  66.704  1.00  0.00    -0.055 C  
HETATM    3  C   UNL     1      -6.710   1.772  68.116  1.00  0.00    -0.032 C  
HETATM    4  C   UNL     1      -6.782   3.197  68.705  1.00  0.00    -0.040 C  
HETATM    5  C   UNL     1      -8.112   3.519  69.464  1.00  0.00    -0.064 C  
HETATM    6  N   UNL     1      -6.621   3.961  67.463  1.00  0.00    -0.041 NA 
HETATM    7  C   UNL     1      -6.601   5.396  67.568  1.00  0.00    -0.053 C  
HETATM    8  C   UNL     1      -9.286   4.075  68.607  1.00  0.00    -0.150 C  
HETATM    9  C   UNL     1      -9.092   3.787  67.070  1.00  0.00    -0.179 C  
ENDROOT
BRANCH   8  10
HETATM   10  S   UNL     1     -10.449   5.744  69.242  1.00  0.00    -0.304 SA 
BRANCH  10  11
HETATM   11  C   UNL     1      -9.747   6.594  70.765  1.00  0.00    -0.179 C  
BRANCH  11  12
HETATM   12  C   UNL     1      -8.350   7.499  70.904  1.00  0.00    -0.114 C  
HETATM   13  O   UNL     1      -7.312   6.839  71.057  1.00  0.00    -0.076 OA 
BRANCH  12  14
HETATM   14  O   UNL     1      -8.230   8.885  70.901  1.00  0.00    -0.142 OA 
BRANCH  14  15
HETATM   15  C   UNL     1      -8.546   9.809  69.612  1.00  0.00    -0.191 C  
HETATM   16  C   UNL     1      -7.204  10.706  69.679  1.00  0.00    -0.139 C  
HETATM   17  C   UNL     1      -6.800  11.669  68.532  1.00  0.00    -0.073 C  
HETATM   18  C   UNL     1     -10.449  12.335  66.483  1.00  0.00    -0.254 C  
HETATM   19  C   UNL     1      -5.339  12.183  68.494  1.00  0.00    -0.053 C  
HETATM   20  C   UNL     1      -7.640  12.953  68.812  1.00  0.00    -0.025 C  
HETATM   21  O   UNL     1      -6.986  14.035  69.471  1.00  0.00    -0.237 OA 
HETATM   22  C   UNL     1      -8.435  13.393  67.610  1.00  0.00    -0.187 C  
HETATM   23  C   UNL     1     -10.499  10.790  66.407  1.00  0.00    -0.293 C  
HETATM   24  C   UNL     1      -9.965  13.014  67.799  1.00  0.00    -0.227 C  
HETATM   25  C   UNL     1      -8.120  14.848  67.175  1.00  0.00    -0.239 C  
HETATM   26  H   UNL     1      -7.497  14.816  69.642  1.00  0.00     0.000 HD 
HETATM   27  C   UNL     1     -10.698  14.367  68.059  1.00  0.00    -0.244 C  
HETATM   28  C   UNL     1     -12.064  14.044  68.577  1.00  0.00    -0.329 C  
HETATM   29  C   UNL     1     -11.810  12.771  69.335  1.00  0.00    -0.300 C  
HETATM   30  C   UNL     1     -10.388  12.142  69.079  1.00  0.00    -0.014 C  
HETATM   31  O   UNL     1     -12.608  12.410  70.167  1.00  0.00    -0.053 OA 
HETATM   32  C   UNL     1     -10.186  10.508  69.124  1.00  0.00    -0.241 C  
HETATM   33  C   UNL     1     -11.400   9.962  69.983  1.00  0.00    -0.303 C  
HETATM   34  C   UNL     1     -10.654   9.947  67.691  1.00  0.00    -0.325 C  
HETATM   35  C   UNL     1     -10.362   8.432  67.555  1.00  0.00    -0.333 C  
BRANCH  17  36
HETATM   36  C   UNL     1      -7.031  10.856  67.250  1.00  0.00    -0.089 C  
HETATM   37  C   UNL     1      -6.737  11.181  65.983  1.00  0.00     0.044 C  
ENDBRANCH  17  36
ENDBRANCH  14  15
ENDBRANCH  12  14
ENDBRANCH  11  12
ENDBRANCH  10  11
ENDBRANCH   8  10
TORSDOF 6
ENDMDL
MODEL      141
REMARK 921   NORMALIZED FREE ENERGY PREDICTED BY IDOCK:   -3.39 KCAL/MOL
REMARK 922        TOTAL FREE ENERGY PREDICTED BY IDOCK:   -6.33 KCAL/MOL
REMARK 923 INTER-LIGAND FREE ENERGY PREDICTED BY IDOCK:   -6.76 KCAL/MOL
REMARK 924 INTRA-LIGAND FREE ENERGY PREDICTED BY IDOCK:    0.43 KCAL/MOL
REMARK 927      BINDING AFFINITY PREDICTED BY RF-SCORE:    0.00 PKD
ROOT
HETATM    1  C   UNL     1      -9.437   7.097  70.597  1.00  0.00    -0.161 C  
HETATM    2  C   UNL     1      -9.352   5.625  70.146  1.00  0.00    -0.188 C  
HETATM    3  C   UNL     1     -10.044   4.848  71.266  1.00  0.00    -0.269 C  
HETATM    4  C   UNL     1     -10.460   5.930  72.286  1.00  0.00    -0.205 C  
HETATM    5  C   UNL     1     -11.889   6.524  72.055  1.00  0.00    -0.374 C  
HETATM    6  N   UNL     1      -9.382   6.894  72.042  1.00  0.00    -0.141 NA 
HETATM    7  C   UNL     1      -9.374   8.092  72.839  1.00  0.00    -0.273 C  
HETATM    8  C   UNL     1     -11.990   7.740  71.089  1.00  0.00    -0.291 C  
HETATM    9  C   UNL     1     -10.724   7.872  70.161  1.00  0.00    -0.244 C  
ENDROOT
BRANCH   8  10
HETATM   10  S   UNL     1     -13.148   9.464  71.569  1.00  0.00    -0.382 SA 
BRANCH  10  11
HETATM   11  C   UNL     1     -12.325  11.072  71.049  1.00  0.00    -0.385 C  
BRANCH  11  12
HETATM   12  C   UNL     1     -12.805  12.639  71.366  1.00  0.00    -0.261 C  
HETATM   13  O   UNL     1     -13.501  12.779  72.382  1.00  0.00    -0.557 OA 
BRANCH  12  14
HETATM   14  O   UNL     1     -12.544  13.779  70.611  1.00  0.00    -0.332 OA 
BRANCH  14  15
HETATM   15  C   UNL     1     -11.595  13.788  69.301  1.00  0.00    -0.312 C  
HETATM   16  C   UNL     1     -11.515  12.187  69.105  1.00  0.00    -0.352 C  
HETATM   17  C   UNL     1     -10.902  11.544  67.833  1.00  0.00    -0.257 C  
HETATM   18  C   UNL     1      -8.465  14.631  66.255  1.00  0.00     0.425 C  
HETATM   19  C   UNL     1     -11.212  10.053  67.550  1.00  0.00    -0.052 C  
HETATM   20  C   UNL     1      -9.367  11.560  68.112  1.00  0.00    -0.185 C  
HETATM   21  O   UNL     1      -8.772  10.350  68.578  1.00  0.00    -0.123 OA 
HETATM   22  C   UNL     1      -8.586  12.206  66.997  1.00  0.00    -0.191 C  
HETATM   23  C   UNL     1      -9.764  15.468  66.322  1.00  0.00    -0.328 C  
HETATM   24  C   UNL     1      -8.125  13.663  67.427  1.00  0.00    -0.184 C  
HETATM   25  C   UNL     1      -7.502  11.274  66.397  1.00  0.00    -0.064 C  
HETATM   26  H   UNL     1      -7.838  10.361  68.748  1.00  0.00     0.000 HD 
HETATM   27  C   UNL     1      -6.586  13.556  67.666  1.00  0.00    -0.177 C  
HETATM   28  C   UNL     1      -6.159  14.792  68.393  1.00  0.00    -0.100 C  
HETATM   29  C   UNL     1      -7.378  15.098  69.218  1.00  0.00    -0.188 C  
HETATM   30  C   UNL     1      -8.650  14.254  68.824  1.00  0.00    -0.101 C  
HETATM   31  O   UNL     1      -7.275  15.821  70.180  1.00  0.00     0.091 OA 
HETATM   32  C   UNL     1     -10.155  14.902  68.985  1.00  0.00    -0.237 C  
HETATM   33  C   UNL     1      -9.997  16.067  70.046  1.00  0.00     0.046 C  
HETATM   34  C   UNL     1     -10.403  15.817  67.684  1.00  0.00    -0.281 C  
HETATM   35  C   UNL     1     -11.853  16.359  67.643  1.00  0.00     0.641 C  
BRANCH  17  36
HETATM   36  C   UNL     1     -11.486  12.360  66.671  1.00  0.00    -0.429 C  
HETATM   37  C   UNL     1     -11.621  12.013  65.383  1.00  0.00    -0.343 C  
ENDBRANCH  17  36
ENDBRANCH  14  15
ENDBRANCH  12  14
ENDBRANCH  11  12
ENDBRANCH  10  11
ENDBRANCH   8  10
TORSDOF 6
ENDMDL
MODEL      142
REMARK 921   NORMALIZED FREE ENERGY PREDICTED BY IDOCK:   -3.38 KCAL/MOL
REMARK 922        TOTAL FREE ENERGY PREDICTED BY IDOCK:   -6.32 KCAL/MOL
REMARK 923 INTER-LIGAND FREE ENERGY PREDICTED BY IDOCK:   -5.88 KCAL/MOL
REMARK 924 INTRA-LIGAND FREE ENERGY PREDICTED BY IDOCK:   -0.43 KCAL/MOL
REMARK 927      BINDING AFFINITY PREDICTED BY RF-SCORE:    0.00 PKD
ROOT
HETATM    1  C   UNL     1      -5.697   5.758  64.828  1.00  0.00    -0.024 C  
HETATM    2  C   UNL     1      -6.608   5.992  63.605  1.00  0.00    -0.033 C  
HETATM    3  C   UNL     1      -8.021   6.016  64.189  1.00  0.00    -0.119 C  
HETATM    4  C   UNL     1      -7.819   5.777  65.700  1.00  0.00    -0.100 C  
HETATM    5  C   UNL     1      -7.638   7.083  66.544  1.00  0.00    -0.089 C  
HETATM    6  N   UNL     1      -6.608   4.953  65.637  1.00  0.00    -0.040 NA 
HETATM    7  C   UNL     1      -6.072   4.468  66.881  1.00  0.00    -0.031 C  
HETATM    8  C   UNL     1      -6.186   7.627  66.682  1.00  0.00    -0.045 C  
HETATM    9  C   UNL     1      -5.222   7.044  65.582  1.00  0.00    -0.023 C  
ENDROOT
BRANCH   8  10
HETATM   10  S   UNL     1      -5.402   8.274  68.556  1.00  0.00    -0.033 SA 
BRANCH  10  11
HETATM   11  C   UNL     1      -6.473   9.572  69.394  1.00  0.00    -0.044 C  
BRANCH  11  12
HETATM   12  C   UNL     1      -7.964  10.157  68.922  1.00  0.00    -0.110 C  
HETATM   13  O   UNL     1      -8.867  10.029  69.761  1.00  0.00    -0.203 OA 
BRANCH  12  14
HETATM   14  O   UNL     1      -8.306  10.729  67.700  1.00  0.00    -0.118 OA 
BRANCH  14  15
HETATM   15  C   UNL     1      -9.164  12.092  67.558  1.00  0.00    -0.182 C  
HETATM   16  C   UNL     1      -7.939  13.121  67.787  1.00  0.00    -0.162 C  
HETATM   17  C   UNL     1      -8.088  14.645  67.541  1.00  0.00    -0.200 C  
HETATM   18  C   UNL     1     -12.275  15.266  67.758  1.00  0.00     0.380 C  
HETATM   19  C   UNL     1      -6.796  15.489  67.405  1.00  0.00    -0.224 C  
HETATM   20  C   UNL     1      -8.742  15.171  68.856  1.00  0.00    -0.205 C  
HETATM   21  O   UNL     1      -7.881  15.772  69.821  1.00  0.00    -0.128 OA 
HETATM   22  C   UNL     1      -9.986  15.979  68.596  1.00  0.00    -0.220 C  
HETATM   23  C   UNL     1     -12.330  14.156  66.683  1.00  0.00    -0.375 C  
HETATM   24  C   UNL     1     -11.276  15.123  68.945  1.00  0.00    -0.292 C  
HETATM   25  C   UNL     1      -9.913  17.412  69.186  1.00  0.00    -0.200 C  
HETATM   26  H   UNL     1      -8.279  16.092  70.622  1.00  0.00     0.000 HD 
HETATM   27  C   UNL     1     -11.843  15.744  70.261  1.00  0.00    -0.369 C  
HETATM   28  C   UNL     1     -12.843  14.781  70.817  1.00  0.00    -0.418 C  
HETATM   29  C   UNL     1     -12.266  13.460  70.388  1.00  0.00    -0.345 C  
HETATM   30  C   UNL     1     -11.088  13.580  69.348  1.00  0.00    -0.173 C  
HETATM   31  O   UNL     1     -12.617  12.451  70.951  1.00  0.00    -0.340 OA 
HETATM   32  C   UNL     1     -10.862  12.406  68.215  1.00  0.00    -0.264 C  
HETATM   33  C   UNL     1     -11.574  11.119  68.801  1.00  0.00    -0.389 C  
HETATM   34  C   UNL     1     -11.899  12.712  67.022  1.00  0.00    -0.415 C  
HETATM   35  C   UNL     1     -11.674  11.763  65.821  1.00  0.00    -0.093 C  
BRANCH  17  36
HETATM   36  C   UNL     1      -8.842  14.746  66.207  1.00  0.00    -0.055 C  
HETATM   37  C   UNL     1      -9.409  15.820  65.641  1.00  0.00    -0.202 C  
ENDBRANCH  17  36
ENDBRANCH  14  15
ENDBRANCH  12  14
ENDBRANCH  11  12
ENDBRANCH  10  11
ENDBRANCH   8  10
TORSDOF 6
ENDMDL
MODEL      143
REMARK 921   NORMALIZED FREE ENERGY PREDICTED BY IDOCK:   -3.37 KCAL/MOL
REMARK 922        TOTAL FREE ENERGY PREDICTED BY IDOCK:   -6.30 KCAL/MOL
REMARK 923 INTER-LIGAND FREE ENERGY PREDICTED BY IDOCK:   -5.20 KCAL/MOL
REMARK 924 INTRA-LIGAND FREE ENERGY PREDICTED BY IDOCK:   -1.10 KCAL/MOL
REMARK 927      BINDING AFFINITY PREDICTED BY RF-SCORE:    0.00 PKD
ROOT
HETATM    1  C   UNL     1      -8.506  10.508  63.699  1.00  0.00    -0.133 C  
HETATM    2  C   UNL     1      -9.034   9.555  62.606  1.00  0.00    -0.249 C  
HETATM    3  C   UNL     1      -8.511   8.180  63.024  1.00  0.00     0.046 C  
HETATM    4  C   UNL     1      -7.708   8.447  64.314  1.00  0.00    -0.136 C  
HETATM    5  C   UNL     1      -8.543   8.334  65.633  1.00  0.00    -0.189 C  
HETATM    6  N   UNL     1      -7.263   9.814  64.023  1.00  0.00    -0.123 NA 
HETATM    7  C   UNL     1      -6.426  10.460  64.999  1.00  0.00    -0.086 C  
HETATM    8  C   UNL     1      -9.273   9.624  66.108  1.00  0.00    -0.174 C  
HETATM    9  C   UNL     1      -9.424  10.684  64.953  1.00  0.00    -0.293 C  
ENDROOT
BRANCH   8  10
HETATM   10  S   UNL     1      -9.222  10.260  68.142  1.00  0.00    -0.138 SA 
BRANCH  10  11
HETATM   11  C   UNL     1      -7.479  10.571  68.773  1.00  0.00    -0.097 C  
BRANCH  11  12
HETATM   12  C   UNL     1      -6.735   9.948  70.132  1.00  0.00    -0.112 C  
HETATM   13  O   UNL     1      -6.551  10.762  71.048  1.00  0.00    -0.235 OA 
BRANCH  12  14
HETATM   14  O   UNL     1      -6.275   8.650  70.330  1.00  0.00    -0.033 OA 
BRANCH  14  15
HETATM   15  C   UNL     1      -7.247   7.361  70.432  1.00  0.00    -0.068 C  
HETATM   16  C   UNL     1      -8.568   8.148  70.928  1.00  0.00    -0.144 C  
HETATM   17  C   UNL     1      -9.958   7.462  70.995  1.00  0.00    -0.183 C  
HETATM   18  C   UNL     1      -9.006   3.335  71.132  1.00  0.00    -0.163 C  
HETATM   19  C   UNL     1     -11.210   8.367  71.100  1.00  0.00    -0.307 C  
HETATM   20  C   UNL     1      -9.930   6.703  72.358  1.00  0.00    -0.166 C  
HETATM   21  O   UNL     1     -10.578   7.322  73.467  1.00  0.00    -0.368 OA 
HETATM   22  C   UNL     1     -10.284   5.245  72.210  1.00  0.00    -0.250 C  
HETATM   23  C   UNL     1      -8.199   3.646  69.849  1.00  0.00    -0.070 C  
HETATM   24  C   UNL     1      -8.976   4.353  72.311  1.00  0.00    -0.139 C  
HETATM   25  C   UNL     1     -11.493   4.824  73.086  1.00  0.00    -0.348 C  
HETATM   26  H   UNL     1     -10.561   6.859  74.296  1.00  0.00     0.000 HD 
HETATM   27  C   UNL     1      -9.066   3.641  73.698  1.00  0.00    -0.096 C  
HETATM   28  C   UNL     1      -7.719   3.062  73.993  1.00  0.00    -0.064 C  
HETATM   29  C   UNL     1      -6.807   4.057  73.329  1.00  0.00    -0.053 C  
HETATM   30  C   UNL     1      -7.550   5.086  72.395  1.00  0.00    -0.095 C  
HETATM   31  O   UNL     1      -5.645   4.102  73.654  1.00  0.00    -0.007 OA 
HETATM   32  C   UNL     1      -6.797   5.681  71.056  1.00  0.00    -0.057 C  
HETATM   33  C   UNL     1      -5.249   5.488  71.328  1.00  0.00    -0.009 C  
HETATM   34  C   UNL     1      -6.963   4.569  69.904  1.00  0.00    -0.045 C  
HETATM   35  C   UNL     1      -6.429   5.082  68.544  1.00  0.00    -0.037 C  
BRANCH  17  36
HETATM   36  C   UNL     1     -10.065   6.684  69.676  1.00  0.00    -0.202 C  
HETATM   37  C   UNL     1     -11.119   6.555  68.859  1.00  0.00    -0.371 C  
ENDBRANCH  17  36
ENDBRANCH  14  15
ENDBRANCH  12  14
ENDBRANCH  11  12
ENDBRANCH  10  11
ENDBRANCH   8  10
TORSDOF 6
ENDMDL
MODEL      144
REMARK 921   NORMALIZED FREE ENERGY PREDICTED BY IDOCK:   -3.25 KCAL/MOL
REMARK 922        TOTAL FREE ENERGY PREDICTED BY IDOCK:   -6.14 KCAL/MOL
REMARK 923 INTER-LIGAND FREE ENERGY PREDICTED BY IDOCK:   -4.96 KCAL/MOL
REMARK 924 INTRA-LIGAND FREE ENERGY PREDICTED BY IDOCK:   -1.19 KCAL/MOL
REMARK 927      BINDING AFFINITY PREDICTED BY RF-SCORE:    0.00 PKD
ROOT
HETATM    1  C   UNL     1      -8.152  14.869  69.110  1.00  0.00    -0.160 C  
HETATM    2  C   UNL     1      -8.594  16.127  68.333  1.00  0.00    -0.189 C  
HETATM    3  C   UNL     1      -7.282  16.823  67.968  1.00  0.00    -0.163 C  
HETATM    4  C   UNL     1      -6.185  15.924  68.576  1.00  0.00    -0.108 C  
HETATM    5  C   UNL     1      -5.655  14.807  67.615  1.00  0.00     0.015 C  
HETATM    6  N   UNL     1      -6.936  15.398  69.721  1.00  0.00    -0.177 NA 
HETATM    7  C   UNL     1      -6.244  14.501  70.609  1.00  0.00    -0.141 C  
HETATM    8  C   UNL     1      -6.428  13.456  67.625  1.00  0.00    -0.162 C  
HETATM    9  C   UNL     1      -7.869  13.597  68.246  1.00  0.00    -0.141 C  
ENDROOT
BRANCH   8  10
HETATM   10  S   UNL     1      -5.415  11.582  67.689  1.00  0.00    -0.062 SA 
BRANCH  10  11
HETATM   11  C   UNL     1      -6.276  10.316  68.779  1.00  0.00    -0.047 C  
BRANCH  11  12
HETATM   12  C   UNL     1      -6.652  10.422  70.403  1.00  0.00    -0.119 C  
HETATM   13  O   UNL     1      -5.861  11.092  71.081  1.00  0.00    -0.355 OA 
BRANCH  12  14
HETATM   14  O   UNL     1      -7.715   9.822  71.071  1.00  0.00    -0.292 OA 
BRANCH  14  15
HETATM   15  C   UNL     1      -8.296   8.359  70.700  1.00  0.00    -0.125 C  
HETATM   16  C   UNL     1      -7.020   7.506  71.205  1.00  0.00    -0.050 C  
HETATM   17  C   UNL     1      -7.059   5.960  71.323  1.00  0.00    -0.073 C  
HETATM   18  C   UNL     1     -10.257   4.865  68.767  1.00  0.00    -0.119 C  
HETATM   19  C   UNL     1      -5.961   5.267  72.168  1.00  0.00    -0.026 C  
HETATM   20  C   UNL     1      -6.776   5.470  69.868  1.00  0.00    -0.051 C  
HETATM   21  O   UNL     1      -5.446   5.058  69.562  1.00  0.00    -0.007 OA 
HETATM   22  C   UNL     1      -7.819   4.501  69.375  1.00  0.00    -0.062 C  
HETATM   23  C   UNL     1     -11.068   5.868  69.621  1.00  0.00    -0.414 C  
HETATM   24  C   UNL     1      -8.798   5.224  68.357  1.00  0.00    -0.105 C  
HETATM   25  C   UNL     1      -7.220   3.141  68.931  1.00  0.00    -0.049 C  
HETATM   26  H   UNL     1      -5.274   4.761  68.677  1.00  0.00     0.000 HD 
HETATM   27  C   UNL     1      -8.431   4.651  66.951  1.00  0.00    -0.105 C  
HETATM   28  C   UNL     1      -9.073   5.531  65.927  1.00  0.00    -0.163 C  
HETATM   29  C   UNL     1      -9.035   6.871  66.608  1.00  0.00    -0.145 C  
HETATM   30  C   UNL     1      -8.643   6.806  68.133  1.00  0.00    -0.120 C  
HETATM   31  O   UNL     1      -9.151   7.874  65.946  1.00  0.00    -0.161 OA 
HETATM   32  C   UNL     1      -9.265   7.901  69.195  1.00  0.00    -0.144 C  
HETATM   33  C   UNL     1      -9.703   9.139  68.309  1.00  0.00    -0.171 C  
HETATM   34  C   UNL     1     -10.735   7.375  69.587  1.00  0.00    -0.245 C  
HETATM   35  C   UNL     1     -11.364   8.242  70.705  1.00  0.00    -0.285 C  
BRANCH  17  36
HETATM   36  C   UNL     1      -8.407   5.660  71.993  1.00  0.00    -0.122 C  
HETATM   37  C   UNL     1      -8.705   4.721  72.902  1.00  0.00    -0.114 C  
ENDBRANCH  17  36
ENDBRANCH  14  15
ENDBRANCH  12  14
ENDBRANCH  11  12
ENDBRANCH  10  11
ENDBRANCH   8  10
TORSDOF 6
ENDMDL
MODEL      145
REMARK 921   NORMALIZED FREE ENERGY PREDICTED BY IDOCK:   -3.23 KCAL/MOL
REMARK 922        TOTAL FREE ENERGY PREDICTED BY IDOCK:   -6.12 KCAL/MOL
REMARK 923 INTER-LIGAND FREE ENERGY PREDICTED BY IDOCK:   -5.36 KCAL/MOL
REMARK 924 INTRA-LIGAND FREE ENERGY PREDICTED BY IDOCK:   -0.76 KCAL/MOL
REMARK 927      BINDING AFFINITY PREDICTED BY RF-SCORE:    0.00 PKD
ROOT
HETATM    1  C   UNL     1      -9.314  16.105  67.760  1.00  0.00    -0.211 C  
HETATM    2  C   UNL     1     -10.062  16.792  68.921  1.00  0.00    -0.285 C  
HETATM    3  C   UNL     1     -11.472  16.205  68.859  1.00  0.00    -0.331 C  
HETATM    4  C   UNL     1     -11.435  15.237  67.657  1.00  0.00    -0.280 C  
HETATM    5  C   UNL     1     -11.030  13.769  68.020  1.00  0.00    -0.268 C  
HETATM    6  N   UNL     1     -10.434  15.932  66.840  1.00  0.00    -0.306 NA 
HETATM    7  C   UNL     1     -10.108  15.356  65.563  1.00  0.00    -0.373 C  
HETATM    8  C   UNL     1      -9.507  13.446  68.017  1.00  0.00    -0.218 C  
HETATM    9  C   UNL     1      -8.621  14.745  68.104  1.00  0.00    -0.159 C  
ENDROOT
BRANCH   8  10
HETATM   10  S   UNL     1      -8.733  11.684  67.101  1.00  0.00    -0.170 SA 
BRANCH  10  11
HETATM   11  C   UNL     1     -10.043  10.365  66.817  1.00  0.00    -0.214 C  
BRANCH  11  12
HETATM   12  C   UNL     1      -9.883   8.705  66.887  1.00  0.00    -0.238 C  
HETATM   13  O   UNL     1     -10.948   8.080  66.989  1.00  0.00    -0.191 OA 
BRANCH  12  14
HETATM   14  O   UNL     1      -8.706   7.962  66.879  1.00  0.00    -0.125 OA 
BRANCH  14  15
HETATM   15  C   UNL     1      -8.622   6.411  67.329  1.00  0.00    -0.110 C  
HETATM   16  C   UNL     1      -8.036   6.668  68.813  1.00  0.00    -0.118 C  
HETATM   17  C   UNL     1      -7.941   5.534  69.867  1.00  0.00    -0.083 C  
HETATM   18  C   UNL     1      -8.030   2.006  67.521  1.00  0.00    -0.064 C  
HETATM   19  C   UNL     1      -7.743   5.935  71.350  1.00  0.00    -0.107 C  
HETATM   20  C   UNL     1      -6.616   4.796  69.500  1.00  0.00    -0.036 C  
HETATM   21  O   UNL     1      -5.454   5.116  70.261  1.00  0.00    -0.004 OA 
HETATM   22  C   UNL     1      -6.814   3.312  69.328  1.00  0.00    -0.041 C  
HETATM   23  C   UNL     1      -9.330   2.616  66.947  1.00  0.00    -0.062 C  
HETATM   24  C   UNL     1      -6.808   2.937  67.786  1.00  0.00    -0.048 C  
HETATM   25  C   UNL     1      -5.908   2.468  70.260  1.00  0.00    -0.018 C  
HETATM   26  H   UNL     1      -4.648   4.667  70.037  1.00  0.00     0.000 HD 
HETATM   27  C   UNL     1      -5.453   2.201  67.544  1.00  0.00    -0.017 C  
HETATM   28  C   UNL     1      -5.241   2.127  66.065  1.00  0.00    -0.005 C  
HETATM   29  C   UNL     1      -5.897   3.397  65.599  1.00  0.00    -0.019 C  
HETATM   30  C   UNL     1      -6.752   4.123  66.706  1.00  0.00    -0.050 C  
HETATM   31  O   UNL     1      -5.620   3.841  64.510  1.00  0.00    -0.013 OA 
HETATM   32  C   UNL     1      -8.094   4.981  66.285  1.00  0.00    -0.108 C  
HETATM   33  C   UNL     1      -7.896   5.339  64.754  1.00  0.00    -0.097 C  
HETATM   34  C   UNL     1      -9.287   3.914  66.113  1.00  0.00    -0.179 C  
HETATM   35  C   UNL     1     -10.643   4.619  65.869  1.00  0.00    -0.265 C  
BRANCH  17  36
HETATM   36  C   UNL     1      -9.288   4.804  69.767  1.00  0.00    -0.208 C  
HETATM   37  C   UNL     1     -10.510   5.245  70.097  1.00  0.00    -0.338 C  
ENDBRANCH  17  36
ENDBRANCH  14  15
ENDBRANCH  12  14
ENDBRANCH  11  12
ENDBRANCH  10  11
ENDBRANCH   8  10
TORSDOF 6
ENDMDL
MODEL      146
REMARK 921   NORMALIZED FREE ENERGY PREDICTED BY IDOCK:   -3.18 KCAL/MOL
REMARK 922        TOTAL FREE ENERGY PREDICTED BY IDOCK:   -6.05 KCAL/MOL
REMARK 923 INTER-LIGAND FREE ENERGY PREDICTED BY IDOCK:   -6.09 KCAL/MOL
REMARK 924 INTRA-LIGAND FREE ENERGY PREDICTED BY IDOCK:    0.04 KCAL/MOL
REMARK 927      BINDING AFFINITY PREDICTED BY RF-SCORE:    0.00 PKD
ROOT
HETATM    1  C   UNL     1      -9.997   6.274  68.155  1.00  0.00    -0.138 C  
HETATM    2  C   UNL     1     -11.055   5.950  69.230  1.00  0.00    -0.352 C  
HETATM    3  C   UNL     1     -11.035   7.168  70.154  1.00  0.00    -0.293 C  
HETATM    4  C   UNL     1      -9.956   8.093  69.552  1.00  0.00    -0.187 C  
HETATM    5  C   UNL     1     -10.496   9.120  68.501  1.00  0.00    -0.238 C  
HETATM    6  N   UNL     1      -9.082   7.069  68.970  1.00  0.00    -0.136 NA 
HETATM    7  C   UNL     1      -7.888   7.519  68.306  1.00  0.00    -0.122 C  
HETATM    8  C   UNL     1     -10.560   8.635  67.024  1.00  0.00    -0.223 C  
HETATM    9  C   UNL     1     -10.511   7.065  66.907  1.00  0.00    -0.356 C  
ENDROOT
BRANCH   8  10
HETATM   10  S   UNL     1      -9.871   9.848  65.412  1.00  0.00    -0.267 SA 
BRANCH  10  11
HETATM   11  C   UNL     1     -10.959  11.350  65.103  1.00  0.00    -0.192 C  
BRANCH  11  12
HETATM   12  C   UNL     1     -10.533  12.833  64.464  1.00  0.00    -0.368 C  
HETATM   13  O   UNL     1      -9.803  12.782  63.464  1.00  0.00    -0.230 OA 
BRANCH  12  14
HETATM   14  O   UNL     1     -10.871  14.095  64.942  1.00  0.00    -0.366 OA 
BRANCH  14  15
HETATM   15  C   UNL     1     -10.276  14.725  66.308  1.00  0.00    -0.298 C  
HETATM   16  C   UNL     1      -9.493  15.964  65.628  1.00  0.00    -0.217 C  
HETATM   17  C   UNL     1      -8.879  17.111  66.473  1.00  0.00    -0.293 C  
HETATM   18  C   UNL     1      -8.476  15.386  70.322  1.00  0.00     0.866 C  
HETATM   19  C   UNL     1      -8.500  18.426  65.746  1.00  0.00     0.347 C  
HETATM   20  C   UNL     1      -7.506  16.534  66.940  1.00  0.00    -0.221 C  
HETATM   21  O   UNL     1      -6.346  16.929  66.211  1.00  0.00    -0.234 OA 
HETATM   22  C   UNL     1      -7.322  16.628  68.433  1.00  0.00    -0.190 C  
HETATM   23  C   UNL     1      -9.983  15.073  70.161  1.00  0.00     0.119 C  
HETATM   24  C   UNL     1      -7.528  15.203  69.099  1.00  0.00    -0.176 C  
HETATM   25  C   UNL     1      -6.049  17.416  68.837  1.00  0.00    -0.189 C  
HETATM   26  H   UNL     1      -5.512  16.577  66.496  1.00  0.00     0.000 HD 
HETATM   27  C   UNL     1      -6.102  14.738  69.532  1.00  0.00    -0.112 C  
HETATM   28  C   UNL     1      -6.184  13.278  69.850  1.00  0.00    -0.097 C  
HETATM   29  C   UNL     1      -7.244  12.815  68.889  1.00  0.00    -0.039 C  
HETATM   30  C   UNL     1      -8.020  13.986  68.175  1.00  0.00    -0.149 C  
HETATM   31  O   UNL     1      -7.327  11.640  68.621  1.00  0.00    -0.098 OA 
HETATM   32  C   UNL     1      -9.602  13.795  67.756  1.00  0.00    -0.219 C  
HETATM   33  C   UNL     1      -9.826  12.229  67.677  1.00  0.00    -0.196 C  
HETATM   34  C   UNL     1     -10.467  14.079  69.083  1.00  0.00    -0.103 C  
HETATM   35  C   UNL     1     -11.984  14.083  68.777  1.00  0.00    -0.382 C  
BRANCH  17  36
HETATM   36  C   UNL     1      -9.966  17.454  67.501  1.00  0.00    -0.298 C  
HETATM   37  C   UNL     1     -10.403  18.659  67.892  1.00  0.00    -0.442 C  
ENDBRANCH  17  36
ENDBRANCH  14  15
ENDBRANCH  12  14
ENDBRANCH  11  12
ENDBRANCH  10  11
ENDBRANCH   8  10
TORSDOF 6
ENDMDL
MODEL      147
REMARK 921   NORMALIZED FREE ENERGY PREDICTED BY IDOCK:   -3.18 KCAL/MOL
REMARK 922        TOTAL FREE ENERGY PREDICTED BY IDOCK:   -6.04 KCAL/MOL
REMARK 923 INTER-LIGAND FREE ENERGY PREDICTED BY IDOCK:   -5.17 KCAL/MOL
REMARK 924 INTRA-LIGAND FREE ENERGY PREDICTED BY IDOCK:   -0.88 KCAL/MOL
REMARK 927      BINDING AFFINITY PREDICTED BY RF-SCORE:    0.00 PKD
ROOT
HETATM    1  C   UNL     1     -11.107  13.337  67.190  1.00  0.00    -0.286 C  
HETATM    2  C   UNL     1     -11.465  12.932  65.745  1.00  0.00    -0.376 C  
HETATM    3  C   UNL     1     -10.817  11.558  65.569  1.00  0.00    -0.313 C  
HETATM    4  C   UNL     1     -10.121  11.284  66.919  1.00  0.00    -0.212 C  
HETATM    5  C   UNL     1     -11.011  10.534  67.966  1.00  0.00    -0.345 C  
HETATM    6  N   UNL     1      -9.815  12.667  67.299  1.00  0.00    -0.203 NA 
HETATM    7  C   UNL     1      -9.109  12.872  68.536  1.00  0.00    -0.049 C  
HETATM    8  C   UNL     1     -11.903  11.421  68.882  1.00  0.00    -0.347 C  
HETATM    9  C   UNL     1     -12.107  12.869  68.298  1.00  0.00    -0.173 C  
ENDROOT
BRANCH   8  10
HETATM   10  S   UNL     1     -12.036  11.088  70.984  1.00  0.00    -0.240 SA 
BRANCH  10  11
HETATM   11  C   UNL     1     -12.030   9.265  71.443  1.00  0.00    -0.351 C  
BRANCH  11  12
HETATM   12  C   UNL     1     -12.119   7.936  70.436  1.00  0.00     0.234 C  
HETATM   13  O   UNL     1     -12.782   6.987  70.878  1.00  0.00    -0.334 OA 
BRANCH  12  14
HETATM   14  O   UNL     1     -11.512   7.767  69.195  1.00  0.00     0.337 OA 
BRANCH  14  15
HETATM   15  C   UNL     1     -10.319   6.711  68.917  1.00  0.00    -0.193 C  
HETATM   16  C   UNL     1      -9.872   6.509  70.456  1.00  0.00    -0.197 C  
HETATM   17  C   UNL     1      -8.874   5.401  70.884  1.00  0.00    -0.149 C  
HETATM   18  C   UNL     1      -6.833   4.479  67.286  1.00  0.00    -0.055 C  
HETATM   19  C   UNL     1      -8.802   5.028  72.386  1.00  0.00    -0.133 C  
HETATM   20  C   UNL     1      -7.476   6.026  70.587  1.00  0.00    -0.087 C  
HETATM   21  O   UNL     1      -6.764   6.593  71.684  1.00  0.00    -0.059 OA 
HETATM   22  C   UNL     1      -6.617   5.131  69.730  1.00  0.00    -0.039 C  
HETATM   23  C   UNL     1      -8.258   4.261  66.725  1.00  0.00    -0.101 C  
HETATM   24  C   UNL     1      -6.570   5.681  68.243  1.00  0.00    -0.049 C  
HETATM   25  C   UNL     1      -5.260   4.780  70.393  1.00  0.00     0.000 C  
HETATM   26  H   UNL     1      -5.913   6.974  71.502  1.00  0.00     0.000 HD 
HETATM   27  C   UNL     1      -5.134   6.265  68.061  1.00  0.00    -0.004 C  
HETATM   28  C   UNL     1      -5.140   7.092  66.815  1.00  0.00    -0.017 C  
HETATM   29  C   UNL     1      -6.548   7.620  66.806  1.00  0.00    -0.061 C  
HETATM   30  C   UNL     1      -7.501   6.930  67.855  1.00  0.00    -0.099 C  
HETATM   31  O   UNL     1      -6.810   8.593  66.140  1.00  0.00    -0.071 OA 
HETATM   32  C   UNL     1      -9.104   6.752  67.525  1.00  0.00    -0.117 C  
HETATM   33  C   UNL     1      -9.426   7.843  66.422  1.00  0.00    -0.258 C  
HETATM   34  C   UNL     1      -9.240   5.446  66.595  1.00  0.00    -0.132 C  
HETATM   35  C   UNL     1     -10.724   5.083  66.345  1.00  0.00    -0.242 C  
BRANCH  17  36
HETATM   36  C   UNL     1      -9.341   4.151  70.125  1.00  0.00    -0.234 C  
HETATM   37  C   UNL     1      -9.496   2.899  70.580  1.00  0.00    -0.210 C  
ENDBRANCH  17  36
ENDBRANCH  14  15
ENDBRANCH  12  14
ENDBRANCH  11  12
ENDBRANCH  10  11
ENDBRANCH   8  10
TORSDOF 6
ENDMDL
MODEL      148
REMARK 921   NORMALIZED FREE ENERGY PREDICTED BY IDOCK:   -3.16 KCAL/MOL
REMARK 922        TOTAL FREE ENERGY PREDICTED BY IDOCK:   -6.03 KCAL/MOL
REMARK 923 INTER-LIGAND FREE ENERGY PREDICTED BY IDOCK:   -5.36 KCAL/MOL
REMARK 924 INTRA-LIGAND FREE ENERGY PREDICTED BY IDOCK:   -0.66 KCAL/MOL
REMARK 927      BINDING AFFINITY PREDICTED BY RF-SCORE:    0.00 PKD
ROOT
HETATM    1  C   UNL     1      -8.899   4.821  65.729  1.00  0.00    -0.131 C  
HETATM    2  C   UNL     1      -9.956   4.770  66.851  1.00  0.00    -0.245 C  
HETATM    3  C   UNL     1      -9.193   5.201  68.105  1.00  0.00    -0.136 C  
HETATM    4  C   UNL     1      -7.752   5.451  67.613  1.00  0.00    -0.092 C  
HETATM    5  C   UNL     1      -7.469   6.919  67.151  1.00  0.00    -0.095 C  
HETATM    6  N   UNL     1      -7.717   4.478  66.516  1.00  0.00    -0.094 NA 
HETATM    7  C   UNL     1      -6.489   4.359  65.776  1.00  0.00    -0.037 C  
HETATM    8  C   UNL     1      -7.776   7.251  65.662  1.00  0.00    -0.105 C  
HETATM    9  C   UNL     1      -8.741   6.196  65.001  1.00  0.00     0.055 C  
ENDROOT
BRANCH   8  10
HETATM   10  S   UNL     1      -6.412   8.357  64.452  1.00  0.00    -0.066 SA 
BRANCH  10  11
HETATM   11  C   UNL     1      -7.262   9.337  63.092  1.00  0.00    -0.095 C  
BRANCH  11  12
HETATM   12  C   UNL     1      -8.575  10.362  63.209  1.00  0.00    -0.190 C  
HETATM   13  O   UNL     1      -8.556  11.328  62.433  1.00  0.00    -0.288 OA 
BRANCH  12  14
HETATM   14  O   UNL     1      -9.649  10.272  64.090  1.00  0.00    -0.289 OA 
BRANCH  14  15
HETATM   15  C   UNL     1      -9.898  11.307  65.307  1.00  0.00    -0.246 C  
HETATM   16  C   UNL     1     -10.669  12.438  64.449  1.00  0.00    -0.371 C  
HETATM   17  C   UNL     1     -11.387  13.636  65.125  1.00  0.00    -0.319 C  
HETATM   18  C   UNL     1      -9.547  13.857  68.936  1.00  0.00     0.021 C  
HETATM   19  C   UNL     1     -12.411  14.439  64.284  1.00  0.00    -0.402 C  
HETATM   20  C   UNL     1     -10.237  14.657  65.389  1.00  0.00    -0.387 C  
HETATM   21  O   UNL     1     -10.087  15.730  64.462  1.00  0.00    -0.301 OA 
HETATM   22  C   UNL     1     -10.191  15.112  66.825  1.00  0.00    -0.265 C  
HETATM   23  C   UNL     1      -9.955  12.368  69.039  1.00  0.00     0.191 C  
HETATM   24  C   UNL     1      -8.993  14.400  67.584  1.00  0.00    -0.192 C  
HETATM   25  C   UNL     1     -10.305  16.651  66.977  1.00  0.00    -0.301 C  
HETATM   26  H   UNL     1      -9.387  16.351  64.623  1.00  0.00     0.000 HD 
HETATM   27  C   UNL     1      -7.920  15.513  67.800  1.00  0.00    -0.157 C  
HETATM   28  C   UNL     1      -6.646  14.836  68.198  1.00  0.00    -0.138 C  
HETATM   29  C   UNL     1      -6.743  13.537  67.446  1.00  0.00    -0.027 C  
HETATM   30  C   UNL     1      -8.160  13.265  66.813  1.00  0.00     0.223 C  
HETATM   31  O   UNL     1      -5.742  12.890  67.253  1.00  0.00    -0.317 OA 
HETATM   32  C   UNL     1      -8.719  11.722  66.668  1.00  0.00    -0.186 C  
HETATM   33  C   UNL     1      -7.427  10.806  66.703  1.00  0.00    -0.135 C  
HETATM   34  C   UNL     1      -9.322  11.315  68.104  1.00  0.00    -0.181 C  
HETATM   35  C   UNL     1     -10.021   9.935  68.051  1.00  0.00    -0.179 C  
BRANCH  17  36
HETATM   36  C   UNL     1     -12.153  13.010  66.300  1.00  0.00    -0.453 C  
HETATM   37  C   UNL     1     -12.759  13.619  67.329  1.00  0.00     0.563 C  
ENDBRANCH  17  36
ENDBRANCH  14  15
ENDBRANCH  12  14
ENDBRANCH  11  12
ENDBRANCH  10  11
ENDBRANCH   8  10
TORSDOF 6
ENDMDL
MODEL      149
REMARK 921   NORMALIZED FREE ENERGY PREDICTED BY IDOCK:   -3.16 KCAL/MOL
REMARK 922        TOTAL FREE ENERGY PREDICTED BY IDOCK:   -6.02 KCAL/MOL
REMARK 923 INTER-LIGAND FREE ENERGY PREDICTED BY IDOCK:   -4.56 KCAL/MOL
REMARK 924 INTRA-LIGAND FREE ENERGY PREDICTED BY IDOCK:   -1.46 KCAL/MOL
REMARK 927      BINDING AFFINITY PREDICTED BY RF-SCORE:    0.00 PKD
ROOT
HETATM    1  C   UNL     1     -12.158  14.465  69.832  1.00  0.00    -0.344 C  
HETATM    2  C   UNL     1     -10.834  15.197  70.132  1.00  0.00    -0.265 C  
HETATM    3  C   UNL     1     -10.930  15.554  71.616  1.00  0.00    -0.104 C  
HETATM    4  C   UNL     1     -12.309  15.016  72.054  1.00  0.00    -0.347 C  
HETATM    5  C   UNL     1     -12.291  13.546  72.590  1.00  0.00     0.507 C  
HETATM    6  N   UNL     1     -13.022  15.163  70.780  1.00  0.00    -0.411 NA 
HETATM    7  C   UNL     1     -14.410  14.786  70.752  1.00  0.00     0.422 C  
HETATM    8  C   UNL     1     -12.457  12.417  71.532  1.00  0.00    -0.018 C  
HETATM    9  C   UNL     1     -12.153  12.919  70.070  1.00  0.00    -0.357 C  
ENDROOT
BRANCH   8  10
HETATM   10  S   UNL     1     -13.771  10.768  71.843  1.00  0.00     0.288 SA 
BRANCH  10  11
HETATM   11  C   UNL     1     -12.879   9.210  72.399  1.00  0.00    -0.367 C  
BRANCH  11  12
HETATM   12  C   UNL     1     -11.697   8.343  71.599  1.00  0.00    -0.298 C  
HETATM   13  O   UNL     1     -12.119   7.524  70.770  1.00  0.00    -0.259 OA 
BRANCH  12  14
HETATM   14  O   UNL     1     -10.320   8.413  71.782  1.00  0.00    -0.218 OA 
BRANCH  14  15
HETATM   15  C   UNL     1      -9.251   8.375  70.568  1.00  0.00    -0.151 C  
HETATM   16  C   UNL     1      -9.620   9.815  69.935  1.00  0.00    -0.269 C  
HETATM   17  C   UNL     1      -8.753  10.475  68.831  1.00  0.00    -0.154 C  
HETATM   18  C   UNL     1      -6.635   7.204  67.166  1.00  0.00    -0.059 C  
HETATM   19  C   UNL     1      -8.944  11.989  68.566  1.00  0.00    -0.098 C  
HETATM   20  C   UNL     1      -9.250   9.799  67.516  1.00  0.00    -0.130 C  
HETATM   21  O   UNL     1     -10.184  10.524  66.718  1.00  0.00    -0.217 OA 
HETATM   22  C   UNL     1      -8.121   9.211  66.710  1.00  0.00    -0.111 C  
HETATM   23  C   UNL     1      -6.210   6.944  68.631  1.00  0.00    -0.027 C  
HETATM   24  C   UNL     1      -8.103   7.632  66.867  1.00  0.00    -0.116 C  
HETATM   25  C   UNL     1      -8.050   9.775  65.267  1.00  0.00    -0.126 C  
HETATM   26  H   UNL     1     -10.486  10.112  65.918  1.00  0.00     0.000 HD 
HETATM   27  C   UNL     1      -8.605   7.074  65.498  1.00  0.00    -0.091 C  
HETATM   28  C   UNL     1      -8.930   5.627  65.696  1.00  0.00    -0.139 C  
HETATM   29  C   UNL     1      -9.400   5.614  67.125  1.00  0.00    -0.115 C  
HETATM   30  C   UNL     1      -9.118   6.951  67.908  1.00  0.00    -0.122 C  
HETATM   31  O   UNL     1     -10.066   4.686  67.519  1.00  0.00    -0.150 OA 
HETATM   32  C   UNL     1      -8.810   6.914  69.526  1.00  0.00    -0.133 C  
HETATM   33  C   UNL     1      -9.428   5.548  70.036  1.00  0.00    -0.205 C  
HETATM   34  C   UNL     1      -7.255   6.532  69.689  1.00  0.00    -0.078 C  
HETATM   35  C   UNL     1      -6.806   6.619  71.168  1.00  0.00    -0.059 C  
BRANCH  17  36
HETATM   36  C   UNL     1      -7.308  10.273  69.308  1.00  0.00    -0.099 C  
HETATM   37  C   UNL     1      -6.474  11.162  69.865  1.00  0.00    -0.142 C  
ENDBRANCH  17  36
ENDBRANCH  14  15
ENDBRANCH  12  14
ENDBRANCH  11  12
ENDBRANCH  10  11
ENDBRANCH   8  10
TORSDOF 6
ENDMDL
MODEL      150
REMARK 921   NORMALIZED FREE ENERGY PREDICTED BY IDOCK:   -3.13 KCAL/MOL
REMARK 922        TOTAL FREE ENERGY PREDICTED BY IDOCK:   -5.98 KCAL/MOL
REMARK 923 INTER-LIGAND FREE ENERGY PREDICTED BY IDOCK:   -4.46 KCAL/MOL
REMARK 924 INTRA-LIGAND FREE ENERGY PREDICTED BY IDOCK:   -1.52 KCAL/MOL
REMARK 927      BINDING AFFINITY PREDICTED BY RF-SCORE:    0.00 PKD
ROOT
HETATM    1  C   UNL     1      -8.446  10.457  63.703  1.00  0.00    -0.168 C  
HETATM    2  C   UNL     1      -8.942   9.513  62.588  1.00  0.00    -0.249 C  
HETATM    3  C   UNL     1      -8.273   8.175  62.904  1.00  0.00    -0.120 C  
HETATM    4  C   UNL     1      -7.430   8.453  64.166  1.00  0.00    -0.114 C  
HETATM    5  C   UNL     1      -8.179   8.197  65.516  1.00  0.00    -0.144 C  
HETATM    6  N   UNL     1      -7.128   9.868  63.927  1.00  0.00    -0.124 NA 
HETATM    7  C   UNL     1      -6.302  10.541  64.894  1.00  0.00    -0.028 C  
HETATM    8  C   UNL     1      -8.996   9.388  66.095  1.00  0.00    -0.161 C  
HETATM    9  C   UNL     1      -9.306  10.485  65.008  1.00  0.00    -0.268 C  
ENDROOT
BRANCH   8  10
HETATM   10  S   UNL     1      -8.893   9.925  68.156  1.00  0.00    -0.118 SA 
BRANCH  10  11
HETATM   11  C   UNL     1      -7.222  10.628  68.651  1.00  0.00    -0.090 C  
BRANCH  11  12
HETATM   12  C   UNL     1      -6.303  10.281  70.001  1.00  0.00    -0.101 C  
HETATM   13  O   UNL     1      -6.273  11.176  70.859  1.00  0.00    -0.361 OA 
BRANCH  12  14
HETATM   14  O   UNL     1      -5.554   9.135  70.249  1.00  0.00    -0.030 OA 
BRANCH  14  15
HETATM   15  C   UNL     1      -6.206   7.692  70.579  1.00  0.00    -0.037 C  
HETATM   16  C   UNL     1      -6.336   7.181  69.052  1.00  0.00    -0.035 C  
HETATM   17  C   UNL     1      -6.706   5.715  68.704  1.00  0.00    -0.057 C  
HETATM   18  C   UNL     1      -8.575   4.312  72.240  1.00  0.00    -0.114 C  
HETATM   19  C   UNL     1      -6.430   5.218  67.263  1.00  0.00    -0.052 C  
HETATM   20  C   UNL     1      -8.262   5.688  68.818  1.00  0.00    -0.103 C  
HETATM   21  O   UNL     1      -9.010   5.788  67.608  1.00  0.00    -0.110 OA 
HETATM   22  C   UNL     1      -8.753   4.586  69.721  1.00  0.00    -0.111 C  
HETATM   23  C   UNL     1      -7.272   4.790  72.923  1.00  0.00    -0.080 C  
HETATM   24  C   UNL     1      -9.208   5.189  71.117  1.00  0.00    -0.183 C  
HETATM   25  C   UNL     1      -9.740   3.620  69.017  1.00  0.00    -0.062 C  
HETATM   26  H   UNL     1      -9.956   5.772  67.678  1.00  0.00     0.000 HD 
HETATM   27  C   UNL     1     -10.767   5.099  71.119  1.00  0.00    -0.141 C  
HETATM   28  C   UNL     1     -11.264   5.950  72.243  1.00  0.00    -0.343 C  
HETATM   29  C   UNL     1     -10.229   7.040  72.281  1.00  0.00    -0.186 C  
HETATM   30  C   UNL     1      -8.954   6.748  71.402  1.00  0.00    -0.142 C  
HETATM   31  O   UNL     1     -10.489   8.084  72.831  1.00  0.00    -0.329 OA 
HETATM   32  C   UNL     1      -7.481   7.320  71.864  1.00  0.00    -0.084 C  
HETATM   33  C   UNL     1      -7.790   8.533  72.835  1.00  0.00    -0.066 C  
HETATM   34  C   UNL     1      -6.913   6.291  72.965  1.00  0.00    -0.079 C  
HETATM   35  C   UNL     1      -5.459   6.638  73.364  1.00  0.00    -0.042 C  
BRANCH  17  36
HETATM   36  C   UNL     1      -5.845   4.867  69.652  1.00  0.00    -0.017 C  
HETATM   37  C   UNL     1      -5.178   3.733  69.395  1.00  0.00    -0.011 C  
ENDBRANCH  17  36
ENDBRANCH  14  15
ENDBRANCH  12  14
ENDBRANCH  11  12
ENDBRANCH  10  11
ENDBRANCH   8  10
TORSDOF 6
ENDMDL
MODEL      151
REMARK 921   NORMALIZED FREE ENERGY PREDICTED BY IDOCK:   -3.13 KCAL/MOL
REMARK 922        TOTAL FREE ENERGY PREDICTED BY IDOCK:   -5.98 KCAL/MOL
REMARK 923 INTER-LIGAND FREE ENERGY PREDICTED BY IDOCK:   -5.34 KCAL/MOL
REMARK 924 INTRA-LIGAND FREE ENERGY PREDICTED BY IDOCK:   -0.63 KCAL/MOL
REMARK 927      BINDING AFFINITY PREDICTED BY RF-SCORE:    0.00 PKD
ROOT
HETATM    1  C   UNL     1      -8.724  18.489  66.427  1.00  0.00    -0.260 C  
HETATM    2  C   UNL     1      -8.632  19.746  67.317  1.00  0.00    -0.374 C  
HETATM    3  C   UNL     1      -9.653  19.495  68.427  1.00  0.00    -0.473 C  
HETATM    4  C   UNL     1     -10.268  18.122  68.084  1.00  0.00    -0.388 C  
HETATM    5  C   UNL     1      -9.530  16.901  68.729  1.00  0.00    -0.264 C  
HETATM    6  N   UNL     1     -10.136  18.176  66.624  1.00  0.00    -0.352 NA 
HETATM    7  C   UNL     1     -10.636  17.054  65.873  1.00  0.00    -0.216 C  
HETATM    8  C   UNL     1      -8.342  16.300  67.923  1.00  0.00    -0.166 C  
HETATM    9  C   UNL     1      -7.796  17.297  66.832  1.00  0.00    -0.251 C  
ENDROOT
BRANCH   8  10
HETATM   10  S   UNL     1      -8.110  14.198  67.662  1.00  0.00    -0.195 SA 
BRANCH  10  11
HETATM   11  C   UNL     1      -7.204  13.374  69.088  1.00  0.00     0.041 C  
BRANCH  11  12
HETATM   12  C   UNL     1      -6.869  11.753  69.313  1.00  0.00    -0.093 C  
HETATM   13  O   UNL     1      -5.944  11.308  68.618  1.00  0.00    -0.043 OA 
BRANCH  12  14
HETATM   14  O   UNL     1      -7.523  10.858  70.153  1.00  0.00    -0.004 OA 
BRANCH  14  15
HETATM   15  C   UNL     1      -8.056   9.407  69.675  1.00  0.00    -0.123 C  
HETATM   16  C   UNL     1      -7.018   8.521  70.538  1.00  0.00    -0.040 C  
HETATM   17  C   UNL     1      -7.169   6.984  70.682  1.00  0.00    -0.068 C  
HETATM   18  C   UNL     1      -9.591   5.926  67.369  1.00  0.00    -0.117 C  
HETATM   19  C   UNL     1      -6.386   6.279  71.817  1.00  0.00    -0.046 C  
HETATM   20  C   UNL     1      -6.522   6.424  69.377  1.00  0.00    -0.040 C  
HETATM   21  O   UNL     1      -5.183   5.942  69.464  1.00  0.00    -0.004 OA 
HETATM   22  C   UNL     1      -7.439   5.481  68.641  1.00  0.00    -0.076 C  
HETATM   23  C   UNL     1     -10.551   6.998  67.937  1.00  0.00    -0.276 C  
HETATM   24  C   UNL     1      -8.058   6.204  67.371  1.00  0.00    -0.109 C  
HETATM   25  C   UNL     1      -6.813   4.080  68.417  1.00  0.00    -0.047 C  
HETATM   26  H   UNL     1      -4.790   5.601  68.670  1.00  0.00     0.000 HD 
HETATM   27  C   UNL     1      -7.348   5.558  66.139  1.00  0.00    -0.078 C  
HETATM   28  C   UNL     1      -7.634   6.423  64.952  1.00  0.00    -0.093 C  
HETATM   29  C   UNL     1      -7.715   7.787  65.581  1.00  0.00    -0.101 C  
HETATM   30  C   UNL     1      -7.763   7.768  67.156  1.00  0.00    -0.105 C  
HETATM   31  O   UNL     1      -7.590   8.766  64.885  1.00  0.00    -0.092 OA 
HETATM   32  C   UNL     1      -8.595   8.931  67.973  1.00  0.00    -0.130 C  
HETATM   33  C   UNL     1      -8.704  10.149  66.966  1.00  0.00    -0.137 C  
HETATM   34  C   UNL     1     -10.142   8.486  67.955  1.00  0.00    -0.245 C  
HETATM   35  C   UNL     1     -11.008   9.425  68.830  1.00  0.00    -0.081 C  
BRANCH  17  36
HETATM   36  C   UNL     1      -8.664   6.771  70.958  1.00  0.00    -0.137 C  
HETATM   37  C   UNL     1      -9.278   5.703  71.487  1.00  0.00    -0.158 C  
ENDBRANCH  17  36
ENDBRANCH  14  15
ENDBRANCH  12  14
ENDBRANCH  11  12
ENDBRANCH  10  11
ENDBRANCH   8  10
TORSDOF 6
ENDMDL
MODEL      152
REMARK 921   NORMALIZED FREE ENERGY PREDICTED BY IDOCK:   -3.12 KCAL/MOL
REMARK 922        TOTAL FREE ENERGY PREDICTED BY IDOCK:   -5.97 KCAL/MOL
REMARK 923 INTER-LIGAND FREE ENERGY PREDICTED BY IDOCK:   -4.76 KCAL/MOL
REMARK 924 INTRA-LIGAND FREE ENERGY PREDICTED BY IDOCK:   -1.21 KCAL/MOL
REMARK 927      BINDING AFFINITY PREDICTED BY RF-SCORE:    0.00 PKD
ROOT
HETATM    1  C   UNL     1     -11.420  15.463  68.400  1.00  0.00    -0.355 C  
HETATM    2  C   UNL     1     -12.206  15.397  69.726  1.00  0.00    -0.336 C  
HETATM    3  C   UNL     1     -12.615  13.928  69.847  1.00  0.00    -0.172 C  
HETATM    4  C   UNL     1     -12.048  13.263  68.575  1.00  0.00    -0.221 C  
HETATM    5  C   UNL     1     -10.600  12.690  68.732  1.00  0.00    -0.214 C  
HETATM    6  N   UNL     1     -12.124  14.414  67.668  1.00  0.00    -0.335 NA 
HETATM    7  C   UNL     1     -11.700  14.212  66.308  1.00  0.00    -0.390 C  
HETATM    8  C   UNL     1      -9.428  13.674  68.448  1.00  0.00    -0.190 C  
HETATM    9  C   UNL     1      -9.885  15.180  68.501  1.00  0.00    -0.220 C  
ENDROOT
BRANCH   8  10
HETATM   10  S   UNL     1      -7.749  13.108  67.262  1.00  0.00    -0.038 SA 
BRANCH  10  11
HETATM   11  C   UNL     1      -6.789  11.664  67.987  1.00  0.00    -0.072 C  
BRANCH  11  12
HETATM   12  C   UNL     1      -6.372  11.383  69.579  1.00  0.00    -0.113 C  
HETATM   13  O   UNL     1      -5.307  11.904  69.942  1.00  0.00    -0.073 OA 
BRANCH  12  14
HETATM   14  O   UNL     1      -7.057  10.615  70.516  1.00  0.00    -0.227 OA 
BRANCH  14  15
HETATM   15  C   UNL     1      -7.465   9.068  70.279  1.00  0.00    -0.083 C  
HETATM   16  C   UNL     1      -9.064   9.264  70.409  1.00  0.00    -0.288 C  
HETATM   17  C   UNL     1     -10.063   8.134  70.046  1.00  0.00    -0.196 C  
HETATM   18  C   UNL     1      -7.698   4.625  70.275  1.00  0.00    -0.057 C  
HETATM   19  C   UNL     1     -11.547   8.520  69.825  1.00  0.00     0.378 C  
HETATM   20  C   UNL     1     -10.095   7.242  71.326  1.00  0.00    -0.189 C  
HETATM   21  O   UNL     1     -11.183   7.428  72.228  1.00  0.00    -0.247 OA 
HETATM   22  C   UNL     1      -9.827   5.791  71.021  1.00  0.00    -0.227 C  
HETATM   23  C   UNL     1      -6.773   5.381  69.292  1.00  0.00    -0.052 C  
HETATM   24  C   UNL     1      -8.349   5.407  71.456  1.00  0.00    -0.122 C  
HETATM   25  C   UNL     1     -10.966   4.852  71.496  1.00  0.00     0.153 C  
HETATM   26  H   UNL     1     -11.202   6.885  73.007  1.00  0.00     0.000 HD 
HETATM   27  C   UNL     1      -8.510   4.514  72.726  1.00  0.00    -0.113 C  
HETATM   28  C   UNL     1      -7.164   4.406  73.371  1.00  0.00    -0.075 C  
HETATM   29  C   UNL     1      -6.559   5.741  73.039  1.00  0.00    -0.069 C  
HETATM   30  C   UNL     1      -7.373   6.571  71.975  1.00  0.00    -0.091 C  
HETATM   31  O   UNL     1      -5.619   6.141  73.685  1.00  0.00    -0.039 OA 
HETATM   32  C   UNL     1      -6.590   7.578  70.934  1.00  0.00    -0.042 C  
HETATM   33  C   UNL     1      -5.204   7.900  71.631  1.00  0.00    -0.034 C  
HETATM   34  C   UNL     1      -6.031   6.659  69.737  1.00  0.00    -0.022 C  
HETATM   35  C   UNL     1      -5.407   7.518  68.611  1.00  0.00    -0.022 C  
BRANCH  17  36
HETATM   36  C   UNL     1      -9.536   7.568  68.720  1.00  0.00    -0.148 C  
HETATM   37  C   UNL     1     -10.215   6.965  67.734  1.00  0.00    -0.224 C  
ENDBRANCH  17  36
ENDBRANCH  14  15
ENDBRANCH  12  14
ENDBRANCH  11  12
ENDBRANCH  10  11
ENDBRANCH   8  10
TORSDOF 6
ENDMDL
MODEL      153
REMARK 921   NORMALIZED FREE ENERGY PREDICTED BY IDOCK:   -3.12 KCAL/MOL
REMARK 922        TOTAL FREE ENERGY PREDICTED BY IDOCK:   -5.96 KCAL/MOL
REMARK 923 INTER-LIGAND FREE ENERGY PREDICTED BY IDOCK:   -5.16 KCAL/MOL
REMARK 924 INTRA-LIGAND FREE ENERGY PREDICTED BY IDOCK:   -0.80 KCAL/MOL
REMARK 927      BINDING AFFINITY PREDICTED BY RF-SCORE:    0.00 PKD
ROOT
HETATM    1  C   UNL     1     -10.095  15.078  66.336  1.00  0.00    -0.276 C  
HETATM    2  C   UNL     1     -10.885  15.812  65.233  1.00  0.00    -0.409 C  
HETATM    3  C   UNL     1     -11.695  14.708  64.554  1.00  0.00    -0.410 C  
HETATM    4  C   UNL     1     -11.297  13.419  65.304  1.00  0.00    -0.296 C  
HETATM    5  C   UNL     1     -12.202  13.081  66.536  1.00  0.00    -0.316 C  
HETATM    6  N   UNL     1      -9.926  13.788  65.672  1.00  0.00    -0.283 NA 
HETATM    7  C   UNL     1      -9.150  12.814  66.393  1.00  0.00    -0.089 C  
HETATM    8  C   UNL     1     -11.789  13.712  67.897  1.00  0.00    -0.366 C  
HETATM    9  C   UNL     1     -10.817  14.939  67.716  1.00  0.00    -0.286 C  
ENDROOT
BRANCH   8  10
HETATM   10  S   UNL     1     -11.748  12.573  69.698  1.00  0.00    -0.262 SA 
BRANCH  10  11
HETATM   11  C   UNL     1     -11.568  10.726  69.397  1.00  0.00    -0.308 C  
BRANCH  11  12
HETATM   12  C   UNL     1     -11.662   9.476  70.500  1.00  0.00    -0.222 C  
HETATM   13  O   UNL     1     -11.998   9.811  71.645  1.00  0.00    -0.383 OA 
BRANCH  12  14
HETATM   14  O   UNL     1     -11.376   8.131  70.288  1.00  0.00    -0.236 OA 
BRANCH  14  15
HETATM   15  C   UNL     1      -9.876   7.548  70.126  1.00  0.00    -0.180 C  
HETATM   16  C   UNL     1     -10.252   5.986  70.291  1.00  0.00    -0.266 C  
HETATM   17  C   UNL     1      -9.227   4.858  70.001  1.00  0.00    -0.182 C  
HETATM   18  C   UNL     1      -5.489   6.831  70.308  1.00  0.00    -0.019 C  
HETATM   19  C   UNL     1      -9.766   3.419  69.805  1.00  0.00    -0.074 C  
HETATM   20  C   UNL     1      -8.392   4.769  71.316  1.00  0.00    -0.106 C  
HETATM   21  O   UNL     1      -8.731   3.736  72.239  1.00  0.00    -0.094 OA 
HETATM   22  C   UNL     1      -6.910   4.867  71.064  1.00  0.00    -0.039 C  
HETATM   23  C   UNL     1      -6.100   7.801  69.269  1.00  0.00    -0.034 C  
HETATM   24  C   UNL     1      -6.381   6.306  71.473  1.00  0.00    -0.045 C  
HETATM   25  C   UNL     1      -6.121   3.647  71.606  1.00  0.00    -0.014 C  
HETATM   26  H   UNL     1      -8.223   3.683  73.040  1.00  0.00     0.000 HD 
HETATM   27  C   UNL     1      -5.559   6.089  72.782  1.00  0.00    -0.036 C  
HETATM   28  C   UNL     1      -5.327   7.434  73.394  1.00  0.00    -0.045 C  
HETATM   29  C   UNL     1      -6.574   8.172  72.992  1.00  0.00    -0.090 C  
HETATM   30  C   UNL     1      -7.448   7.420  71.918  1.00  0.00    -0.080 C  
HETATM   31  O   UNL     1      -6.892   9.169  73.595  1.00  0.00    -0.325 OA 
HETATM   32  C   UNL     1      -8.324   8.276  70.816  1.00  0.00    -0.127 C  
HETATM   33  C   UNL     1      -8.516   9.710  71.461  1.00  0.00     1.084 C  
HETATM   34  C   UNL     1      -7.304   8.693  69.643  1.00  0.00    -0.056 C  
HETATM   35  C   UNL     1      -8.046   9.371  68.466  1.00  0.00    -0.105 C  
BRANCH  17  36
HETATM   36  C   UNL     1      -8.557   5.278  68.685  1.00  0.00    -0.087 C  
HETATM   37  C   UNL     1      -8.074   4.504  67.703  1.00  0.00    -0.099 C  
ENDBRANCH  17  36
ENDBRANCH  14  15
ENDBRANCH  12  14
ENDBRANCH  11  12
ENDBRANCH  10  11
ENDBRANCH   8  10
TORSDOF 6
ENDMDL
MODEL      154
REMARK 921   NORMALIZED FREE ENERGY PREDICTED BY IDOCK:   -3.06 KCAL/MOL
REMARK 922        TOTAL FREE ENERGY PREDICTED BY IDOCK:   -5.89 KCAL/MOL
REMARK 923 INTER-LIGAND FREE ENERGY PREDICTED BY IDOCK:   -5.21 KCAL/MOL
REMARK 924 INTRA-LIGAND FREE ENERGY PREDICTED BY IDOCK:   -0.67 KCAL/MOL
REMARK 927      BINDING AFFINITY PREDICTED BY RF-SCORE:    0.00 PKD
ROOT
HETATM    1  C   UNL     1     -10.576   7.381  70.091  1.00  0.00    -0.230 C  
HETATM    2  C   UNL     1     -11.991   6.859  70.414  1.00  0.00    -0.312 C  
HETATM    3  C   UNL     1     -12.528   7.848  71.449  1.00  0.00    -0.330 C  
HETATM    4  C   UNL     1     -11.376   8.854  71.657  1.00  0.00    -0.337 C  
HETATM    5  C   UNL     1     -11.421  10.097  70.707  1.00  0.00    -0.442 C  
HETATM    6  N   UNL     1     -10.246   7.958  71.391  1.00  0.00    -0.189 NA 
HETATM    7  C   UNL     1      -8.922   8.510  71.510  1.00  0.00    -0.213 C  
HETATM    8  C   UNL     1     -10.715   9.944  69.328  1.00  0.00    -0.224 C  
HETATM    9  C   UNL     1     -10.482   8.435  68.940  1.00  0.00    -0.208 C  
ENDROOT
BRANCH   8  10
HETATM   10  S   UNL     1      -9.435  11.459  68.547  1.00  0.00    -0.160 SA 
BRANCH  10  11
HETATM   11  C   UNL     1     -10.227  12.448  67.159  1.00  0.00    -0.216 C  
BRANCH  11  12
HETATM   12  C   UNL     1      -9.496  13.468  66.056  1.00  0.00    -0.088 C  
HETATM   13  O   UNL     1     -10.032  13.504  64.940  1.00  0.00    -0.263 OA 
BRANCH  12  14
HETATM   14  O   UNL     1      -8.353  14.240  66.239  1.00  0.00     0.391 OA 
BRANCH  14  15
HETATM   15  C   UNL     1      -8.287  15.527  67.216  1.00  0.00    -0.193 C  
HETATM   16  C   UNL     1      -9.841  15.949  67.091  1.00  0.00    -0.232 C  
HETATM   17  C   UNL     1     -10.477  17.027  68.008  1.00  0.00    -0.353 C  
HETATM   18  C   UNL     1      -7.133  19.237  69.384  1.00  0.00    -0.280 C  
HETATM   19  C   UNL     1     -12.023  17.090  68.092  1.00  0.00     1.258 C  
HETATM   20  C   UNL     1     -10.085  18.373  67.324  1.00  0.00    -0.352 C  
HETATM   21  O   UNL     1     -11.066  19.003  66.503  1.00  0.00    -0.131 OA 
HETATM   22  C   UNL     1      -9.418  19.329  68.279  1.00  0.00    -0.421 C  
HETATM   23  C   UNL     1      -6.607  17.852  69.829  1.00  0.00     0.021 C  
HETATM   24  C   UNL     1      -7.854  19.368  68.008  1.00  0.00    -0.337 C  
HETATM   25  C   UNL     1     -10.148  20.694  68.379  1.00  0.00     0.065 C  
HETATM   26  H   UNL     1     -10.826  19.822  66.087  1.00  0.00     0.000 HD 
HETATM   27  C   UNL     1      -7.584  20.753  67.339  1.00  0.00    -0.349 C  
HETATM   28  C   UNL     1      -6.206  20.709  66.759  1.00  0.00    -0.272 C  
HETATM   29  C   UNL     1      -6.085  19.261  66.370  1.00  0.00    -0.165 C  
HETATM   30  C   UNL     1      -7.233  18.344  66.940  1.00  0.00    -0.225 C  
HETATM   31  O   UNL     1      -5.248  18.933  65.564  1.00  0.00    -0.143 OA 
HETATM   32  C   UNL     1      -6.924  16.771  67.320  1.00  0.00    -0.210 C  
HETATM   33  C   UNL     1      -5.635  16.386  66.484  1.00  0.00     0.556 C  
HETATM   34  C   UNL     1      -6.250  16.775  68.781  1.00  0.00    -0.151 C  
HETATM   35  C   UNL     1      -6.056  15.336  69.317  1.00  0.00    -0.110 C  
BRANCH  17  36
HETATM   36  C   UNL     1      -9.957  16.691  69.413  1.00  0.00    -0.162 C  
HETATM   37  C   UNL     1     -10.277  15.656  70.203  1.00  0.00    -0.210 C  
ENDBRANCH  17  36
ENDBRANCH  14  15
ENDBRANCH  12  14
ENDBRANCH  11  12
ENDBRANCH  10  11
ENDBRANCH   8  10
TORSDOF 6
ENDMDL
MODEL      155
REMARK 921   NORMALIZED FREE ENERGY PREDICTED BY IDOCK:   -3.05 KCAL/MOL
REMARK 922        TOTAL FREE ENERGY PREDICTED BY IDOCK:   -5.88 KCAL/MOL
REMARK 923 INTER-LIGAND FREE ENERGY PREDICTED BY IDOCK:   -4.92 KCAL/MOL
REMARK 924 INTRA-LIGAND FREE ENERGY PREDICTED BY IDOCK:   -0.96 KCAL/MOL
REMARK 927      BINDING AFFINITY PREDICTED BY RF-SCORE:    0.00 PKD
ROOT
HETATM    1  C   UNL     1      -8.146  14.872  69.114  1.00  0.00    -0.160 C  
HETATM    2  C   UNL     1      -8.662  16.067  68.286  1.00  0.00    -0.177 C  
HETATM    3  C   UNL     1      -7.391  16.792  67.842  1.00  0.00    -0.169 C  
HETATM    4  C   UNL     1      -6.241  15.971  68.462  1.00  0.00    -0.111 C  
HETATM    5  C   UNL     1      -5.695  14.824  67.546  1.00  0.00     0.118 C  
HETATM    6  N   UNL     1      -6.935  15.480  69.657  1.00  0.00    -0.185 NA 
HETATM    7  C   UNL     1      -6.182  14.660  70.569  1.00  0.00    -0.149 C  
HETATM    8  C   UNL     1      -6.412  13.447  67.653  1.00  0.00    -0.162 C  
HETATM    9  C   UNL     1      -7.839  13.566  68.311  1.00  0.00    -0.145 C  
ENDROOT
BRANCH   8  10
HETATM   10  S   UNL     1      -5.323  11.620  67.784  1.00  0.00    -0.059 SA 
BRANCH  10  11
HETATM   11  C   UNL     1      -6.036  10.427  69.050  1.00  0.00    -0.040 C  
BRANCH  11  12
HETATM   12  C   UNL     1      -6.269  10.659  70.687  1.00  0.00    -0.044 C  
HETATM   13  O   UNL     1      -5.458  11.425  71.228  1.00  0.00    -0.310 OA 
BRANCH  12  14
HETATM   14  O   UNL     1      -7.231  10.071  71.502  1.00  0.00     0.169 OA 
BRANCH  14  15
HETATM   15  C   UNL     1      -7.744   8.547  71.327  1.00  0.00    -0.108 C  
HETATM   16  C   UNL     1      -9.301   8.824  71.659  1.00  0.00    -0.345 C  
HETATM   17  C   UNL     1     -10.394   7.747  71.432  1.00  0.00    -0.226 C  
HETATM   18  C   UNL     1      -8.199   4.122  71.373  1.00  0.00    -0.080 C  
HETATM   19  C   UNL     1     -11.873   8.207  71.401  1.00  0.00    -0.329 C  
HETATM   20  C   UNL     1     -10.307   6.855  72.710  1.00  0.00    -0.213 C  
HETATM   21  O   UNL     1     -11.260   7.094  73.743  1.00  0.00    -0.511 OA 
HETATM   22  C   UNL     1     -10.153   5.393  72.380  1.00  0.00    -0.225 C  
HETATM   23  C   UNL     1      -7.371   4.832  70.276  1.00  0.00    -0.051 C  
HETATM   24  C   UNL     1      -8.654   4.933  72.624  1.00  0.00    -0.119 C  
HETATM   25  C   UNL     1     -11.268   4.511  73.001  1.00  0.00    -0.277 C  
HETATM   26  H   UNL     1     -11.206   6.551  74.520  1.00  0.00     0.000 HD 
HETATM   27  C   UNL     1      -8.695   4.048  73.909  1.00  0.00    -0.093 C  
HETATM   28  C   UNL     1      -7.285   3.870  74.376  1.00  0.00    -0.061 C  
HETATM   29  C   UNL     1      -6.660   5.174  73.963  1.00  0.00    -0.074 C  
HETATM   30  C   UNL     1      -7.562   6.045  73.009  1.00  0.00    -0.098 C  
HETATM   31  O   UNL     1      -5.627   5.525  74.481  1.00  0.00    -0.043 OA 
HETATM   32  C   UNL     1      -6.868   7.014  71.871  1.00  0.00    -0.060 C  
HETATM   33  C   UNL     1      -5.390   7.264  72.383  1.00  0.00    -0.037 C  
HETATM   34  C   UNL     1      -6.514   6.070  70.617  1.00  0.00    -0.040 C  
HETATM   35  C   UNL     1      -5.997   6.898  69.416  1.00  0.00    -0.019 C  
BRANCH  17  36
HETATM   36  C   UNL     1     -10.070   7.157  70.052  1.00  0.00    -0.194 C  
HETATM   37  C   UNL     1     -10.913   6.756  69.090  1.00  0.00    -0.290 C  
ENDBRANCH  17  36
ENDBRANCH  14  15
ENDBRANCH  12  14
ENDBRANCH  11  12
ENDBRANCH  10  11
ENDBRANCH   8  10
TORSDOF 6
ENDMDL
MODEL      156
REMARK 921   NORMALIZED FREE ENERGY PREDICTED BY IDOCK:   -3.04 KCAL/MOL
REMARK 922        TOTAL FREE ENERGY PREDICTED BY IDOCK:   -5.86 KCAL/MOL
REMARK 923 INTER-LIGAND FREE ENERGY PREDICTED BY IDOCK:   -5.20 KCAL/MOL
REMARK 924 INTRA-LIGAND FREE ENERGY PREDICTED BY IDOCK:   -0.65 KCAL/MOL
REMARK 927      BINDING AFFINITY PREDICTED BY RF-SCORE:    0.00 PKD
ROOT
HETATM    1  C   UNL     1      -7.130  15.746  69.679  1.00  0.00    -0.150 C  
HETATM    2  C   UNL     1      -6.522  16.874  68.820  1.00  0.00    -0.178 C  
HETATM    3  C   UNL     1      -5.452  16.172  67.982  1.00  0.00    -0.124 C  
HETATM    4  C   UNL     1      -5.512  14.698  68.435  1.00  0.00    -0.108 C  
HETATM    5  C   UNL     1      -6.495  13.805  67.606  1.00  0.00    -0.163 C  
HETATM    6  N   UNL     1      -5.944  14.906  69.821  1.00  0.00    -0.114 NA 
HETATM    7  C   UNL     1      -6.103  13.738  70.646  1.00  0.00    -0.107 C  
HETATM    8  C   UNL     1      -7.973  13.762  68.090  1.00  0.00    -0.150 C  
HETATM    9  C   UNL     1      -8.327  14.969  69.039  1.00  0.00    -0.194 C  
ENDROOT
BRANCH   8  10
HETATM   10  S   UNL     1      -9.052  11.930  68.245  1.00  0.00    -0.167 SA 
BRANCH  10  11
HETATM   11  C   UNL     1      -8.633  10.711  66.876  1.00  0.00    -0.126 C  
BRANCH  11  12
HETATM   12  C   UNL     1      -9.597   9.524  66.205  1.00  0.00    -0.226 C  
HETATM   13  O   UNL     1     -10.645   9.932  65.686  1.00  0.00    -0.039 OA 
BRANCH  12  14
HETATM   14  O   UNL     1      -9.374   8.151  66.196  1.00  0.00    -0.198 OA 
BRANCH  14  15
HETATM   15  C   UNL     1      -8.853   7.319  67.482  1.00  0.00    -0.119 C  
HETATM   16  C   UNL     1      -8.745   5.880  66.755  1.00  0.00    -0.117 C  
HETATM   17  C   UNL     1      -8.063   4.664  67.436  1.00  0.00    -0.101 C  
HETATM   18  C   UNL     1      -8.170   5.661  71.553  1.00  0.00    -0.119 C  
HETATM   19  C   UNL     1      -7.659   3.464  66.544  1.00  0.00    -0.077 C  
HETATM   20  C   UNL     1      -9.178   4.084  68.361  1.00  0.00    -0.150 C  
HETATM   21  O   UNL     1      -9.906   2.955  67.882  1.00  0.00    -0.230 OA 
HETATM   22  C   UNL     1      -8.716   3.922  69.786  1.00  0.00    -0.124 C  
HETATM   23  C   UNL     1      -7.471   6.961  71.089  1.00  0.00    -0.082 C  
HETATM   24  C   UNL     1      -9.327   5.073  70.691  1.00  0.00    -0.216 C  
HETATM   25  C   UNL     1      -8.856   2.468  70.306  1.00  0.00    -0.142 C  
HETATM   26  H   UNL     1     -10.585   2.603  68.445  1.00  0.00     0.000 HD 
HETATM   27  C   UNL     1     -10.412   4.376  71.571  1.00  0.00    -0.007 C  
HETATM   28  C   UNL     1     -11.247   5.452  72.190  1.00  0.00    -0.197 C  
HETATM   29  C   UNL     1     -11.215   6.513  71.125  1.00  0.00    -0.302 C  
HETATM   30  C   UNL     1     -10.162   6.247  69.983  1.00  0.00    -0.237 C  
HETATM   31  O   UNL     1     -12.057   7.379  71.128  1.00  0.00    -0.311 OA 
HETATM   32  C   UNL     1      -9.421   7.510  69.230  1.00  0.00    -0.154 C  
HETATM   33  C   UNL     1     -10.375   8.753  69.465  1.00  0.00    -0.213 C  
HETATM   34  C   UNL     1      -8.212   7.971  70.187  1.00  0.00    -0.120 C  
HETATM   35  C   UNL     1      -7.340   9.056  69.511  1.00  0.00    -0.071 C  
BRANCH  17  36
HETATM   36  C   UNL     1      -6.774   5.237  68.042  1.00  0.00    -0.055 C  
HETATM   37  C   UNL     1      -5.612   4.616  68.287  1.00  0.00    -0.016 C  
ENDBRANCH  17  36
ENDBRANCH  14  15
ENDBRANCH  12  14
ENDBRANCH  11  12
ENDBRANCH  10  11
ENDBRANCH   8  10
TORSDOF 6
ENDMDL
MODEL      157
REMARK 921   NORMALIZED FREE ENERGY PREDICTED BY IDOCK:   -3.02 KCAL/MOL
REMARK 922        TOTAL FREE ENERGY PREDICTED BY IDOCK:   -5.83 KCAL/MOL
REMARK 923 INTER-LIGAND FREE ENERGY PREDICTED BY IDOCK:   -5.08 KCAL/MOL
REMARK 924 INTRA-LIGAND FREE ENERGY PREDICTED BY IDOCK:   -0.75 KCAL/MOL
REMARK 927      BINDING AFFINITY PREDICTED BY RF-SCORE:    0.00 PKD
ROOT
HETATM    1  C   UNL     1      -8.057  10.500  63.343  1.00  0.00    -0.076 C  
HETATM    2  C   UNL     1      -9.159   9.677  62.645  1.00  0.00    -0.267 C  
HETATM    3  C   UNL     1      -8.491   8.335  62.344  1.00  0.00    -0.126 C  
HETATM    4  C   UNL     1      -7.050   8.492  62.876  1.00  0.00    -0.091 C  
HETATM    5  C   UNL     1      -6.857   8.054  64.366  1.00  0.00    -0.064 C  
HETATM    6  N   UNL     1      -6.891   9.936  62.668  1.00  0.00    -0.112 NA 
HETATM    7  C   UNL     1      -5.624  10.519  63.022  1.00  0.00    -0.156 C  
HETATM    8  C   UNL     1      -7.118   9.139  65.450  1.00  0.00    -0.081 C  
HETATM    9  C   UNL     1      -7.968  10.344  64.897  1.00  0.00    -0.115 C  
ENDROOT
BRANCH   8  10
HETATM   10  S   UNL     1      -5.786   9.434  67.088  1.00  0.00    -0.045 SA 
BRANCH  10  11
HETATM   11  C   UNL     1      -5.153   7.823  67.821  1.00  0.00    -0.031 C  
BRANCH  11  12
HETATM   12  C   UNL     1      -6.019   6.464  68.257  1.00  0.00    -0.017 C  
HETATM   13  O   UNL     1      -6.862   6.092  67.428  1.00  0.00    -0.059 OA 
BRANCH  12  14
HETATM   14  O   UNL     1      -5.925   5.738  69.440  1.00  0.00    -0.024 OA 
BRANCH  14  15
HETATM   15  C   UNL     1      -6.923   5.939  70.697  1.00  0.00    -0.062 C  
HETATM   16  C   UNL     1      -7.135   4.373  71.034  1.00  0.00    -0.037 C  
HETATM   17  C   UNL     1      -7.846   3.899  72.328  1.00  0.00    -0.076 C  
HETATM   18  C   UNL     1     -10.099   7.291  73.504  1.00  0.00    -0.387 C  
HETATM   19  C   UNL     1      -7.664   2.423  72.759  1.00  0.00    -0.052 C  
HETATM   20  C   UNL     1      -9.363   4.002  71.976  1.00  0.00    -0.130 C  
HETATM   21  O   UNL     1     -10.030   2.801  71.595  1.00  0.00    -0.163 OA 
HETATM   22  C   UNL     1     -10.135   4.805  72.990  1.00  0.00    -0.201 C  
HETATM   23  C   UNL     1      -8.737   8.021  73.423  1.00  0.00    -0.323 C  
HETATM   24  C   UNL     1     -10.465   6.244  72.409  1.00  0.00    -0.223 C  
HETATM   25  C   UNL     1     -11.312   4.015  73.620  1.00  0.00    -0.253 C  
HETATM   26  H   UNL     1     -10.953   2.863  71.380  1.00  0.00     0.000 HD 
HETATM   27  C   UNL     1     -11.997   6.229  72.108  1.00  0.00    -0.338 C  
HETATM   28  C   UNL     1     -12.297   7.420  71.254  1.00  0.00    -0.380 C  
HETATM   29  C   UNL     1     -11.026   7.556  70.463  1.00  0.00    -0.252 C  
HETATM   30  C   UNL     1      -9.840   6.663  70.991  1.00  0.00    -0.196 C  
HETATM   31  O   UNL     1     -11.034   8.192  69.435  1.00  0.00    -0.146 OA 
HETATM   32  C   UNL     1      -8.284   7.181  70.843  1.00  0.00    -0.116 C  
HETATM   33  C   UNL     1      -8.310   8.250  69.674  1.00  0.00    -0.123 C  
HETATM   34  C   UNL     1      -8.019   8.193  72.067  1.00  0.00    -0.160 C  
HETATM   35  C   UNL     1      -6.535   8.628  72.126  1.00  0.00    -0.074 C  
BRANCH  17  36
HETATM   36  C   UNL     1      -7.248   4.776  73.437  1.00  0.00    -0.081 C  
HETATM   37  C   UNL     1      -6.056   4.670  74.043  1.00  0.00    -0.041 C  
ENDBRANCH  17  36
ENDBRANCH  14  15
ENDBRANCH  12  14
ENDBRANCH  11  12
ENDBRANCH  10  11
ENDBRANCH   8  10
TORSDOF 6
ENDMDL
MODEL      158
REMARK 921   NORMALIZED FREE ENERGY PREDICTED BY IDOCK:   -3.01 KCAL/MOL
REMARK 922        TOTAL FREE ENERGY PREDICTED BY IDOCK:   -5.81 KCAL/MOL
REMARK 923 INTER-LIGAND FREE ENERGY PREDICTED BY IDOCK:   -4.43 KCAL/MOL
REMARK 924 INTRA-LIGAND FREE ENERGY PREDICTED BY IDOCK:   -1.38 KCAL/MOL
REMARK 927      BINDING AFFINITY PREDICTED BY RF-SCORE:    0.00 PKD
ROOT
HETATM    1  C   UNL     1      -6.138   7.260  64.621  1.00  0.00    -0.037 C  
HETATM    2  C   UNL     1      -5.194   8.136  63.773  1.00  0.00    -0.041 C  
HETATM    3  C   UNL     1      -6.077   8.647  62.634  1.00  0.00    -0.087 C  
HETATM    4  C   UNL     1      -7.458   8.012  62.902  1.00  0.00    -0.113 C  
HETATM    5  C   UNL     1      -8.409   8.880  63.793  1.00  0.00    -0.164 C  
HETATM    6  N   UNL     1      -7.014   6.777  63.557  1.00  0.00    -0.053 NA 
HETATM    7  C   UNL     1      -8.030   5.842  63.963  1.00  0.00    -0.121 C  
HETATM    8  C   UNL     1      -8.290   8.686  65.332  1.00  0.00    -0.157 C  
HETATM    9  C   UNL     1      -6.933   8.001  65.746  1.00  0.00    -0.060 C  
ENDROOT
BRANCH   8  10
HETATM   10  S   UNL     1     -10.010   8.485  66.576  1.00  0.00    -0.245 SA 
BRANCH  10  11
HETATM   11  C   UNL     1      -9.690   8.981  68.361  1.00  0.00    -0.156 C  
BRANCH  11  12
HETATM   12  C   UNL     1      -8.244   9.395  69.085  1.00  0.00    -0.112 C  
HETATM   13  O   UNL     1      -8.133  10.592  69.387  1.00  0.00    -0.151 OA 
BRANCH  12  14
HETATM   14  O   UNL     1      -7.157   8.568  69.349  1.00  0.00    -0.052 OA 
BRANCH  14  15
HETATM   15  C   UNL     1      -7.260   7.196  70.200  1.00  0.00    -0.078 C  
HETATM   16  C   UNL     1      -7.397   6.193  68.941  1.00  0.00    -0.085 C  
HETATM   17  C   UNL     1      -7.309   4.652  69.104  1.00  0.00    -0.053 C  
HETATM   18  C   UNL     1      -8.188   4.050  73.206  1.00  0.00    -0.089 C  
HETATM   19  C   UNL     1      -7.060   3.801  67.834  1.00  0.00    -0.055 C  
HETATM   20  C   UNL     1      -8.747   4.244  69.552  1.00  0.00    -0.082 C  
HETATM   21  O   UNL     1      -9.624   3.731  68.552  1.00  0.00    -0.162 OA 
HETATM   22  C   UNL     1      -8.742   3.415  70.810  1.00  0.00    -0.126 C  
HETATM   23  C   UNL     1      -7.039   5.061  73.432  1.00  0.00    -0.077 C  
HETATM   24  C   UNL     1      -9.200   4.298  72.047  1.00  0.00    -0.169 C  
HETATM   25  C   UNL     1      -9.437   2.040  70.632  1.00  0.00    -0.182 C  
HETATM   26  H   UNL     1     -10.499   3.483  68.825  1.00  0.00     0.000 HD 
HETATM   27  C   UNL     1     -10.633   3.795  72.408  1.00  0.00    -0.054 C  
HETATM   28  C   UNL     1     -11.243   4.802  73.330  1.00  0.00    -0.425 C  
HETATM   29  C   UNL     1     -10.621   6.081  72.839  1.00  0.00    -0.235 C  
HETATM   30  C   UNL     1      -9.434   5.871  71.824  1.00  0.00    -0.168 C  
HETATM   31  O   UNL     1     -11.139   7.135  73.119  1.00  0.00    -0.307 OA 
HETATM   32  C   UNL     1      -8.183   6.940  71.781  1.00  0.00    -0.105 C  
HETATM   33  C   UNL     1      -8.752   8.274  72.417  1.00  0.00    -0.279 C  
HETATM   34  C   UNL     1      -7.186   6.529  72.976  1.00  0.00    -0.081 C  
HETATM   35  C   UNL     1      -5.886   7.370  72.940  1.00  0.00    -0.044 C  
BRANCH  17  36
HETATM   36  C   UNL     1      -6.114   4.434  70.042  1.00  0.00    -0.019 C  
HETATM   37  C   UNL     1      -5.135   3.521  69.960  1.00  0.00    -0.004 C  
ENDBRANCH  17  36
ENDBRANCH  14  15
ENDBRANCH  12  14
ENDBRANCH  11  12
ENDBRANCH  10  11
ENDBRANCH   8  10
TORSDOF 6
ENDMDL
MODEL      159
REMARK 921   NORMALIZED FREE ENERGY PREDICTED BY IDOCK:   -2.93 KCAL/MOL
REMARK 922        TOTAL FREE ENERGY PREDICTED BY IDOCK:   -5.71 KCAL/MOL
REMARK 923 INTER-LIGAND FREE ENERGY PREDICTED BY IDOCK:   -5.97 KCAL/MOL
REMARK 924 INTRA-LIGAND FREE ENERGY PREDICTED BY IDOCK:    0.26 KCAL/MOL
REMARK 927      BINDING AFFINITY PREDICTED BY RF-SCORE:    0.00 PKD
ROOT
HETATM    1  C   UNL     1      -9.824  16.738  69.102  1.00  0.00    -0.228 C  
HETATM    2  C   UNL     1     -10.214  17.812  68.065  1.00  0.00    -0.377 C  
HETATM    3  C   UNL     1     -10.952  17.031  66.976  1.00  0.00     0.077 C  
HETATM    4  C   UNL     1     -10.916  15.566  67.459  1.00  0.00    -0.316 C  
HETATM    5  C   UNL     1     -12.137  15.144  68.342  1.00  0.00    -0.107 C  
HETATM    6  N   UNL     1      -9.649  15.604  68.198  1.00  0.00    -0.196 NA 
HETATM    7  C   UNL     1      -9.204  14.381  68.812  1.00  0.00    -0.144 C  
HETATM    8  C   UNL     1     -12.011  15.397  69.872  1.00  0.00    -0.359 C  
HETATM    9  C   UNL     1     -10.885  16.445  70.213  1.00  0.00    -0.218 C  
ENDROOT
BRANCH   8  10
HETATM   10  S   UNL     1     -12.567  13.921  71.306  1.00  0.00    -0.366 SA 
BRANCH  10  11
HETATM   11  C   UNL     1     -12.338  12.163  70.679  1.00  0.00    -0.295 C  
BRANCH  11  12
HETATM   12  C   UNL     1     -11.857  11.650  69.165  1.00  0.00    -0.326 C  
HETATM   13  O   UNL     1     -11.374  12.534  68.442  1.00  0.00    -0.247 OA 
BRANCH  12  14
HETATM   14  O   UNL     1     -11.968  10.373  68.624  1.00  0.00    -0.249 OA 
BRANCH  14  15
HETATM   15  C   UNL     1     -10.864   9.211  68.835  1.00  0.00    -0.070 C  
HETATM   16  C   UNL     1     -11.005   9.095  70.441  1.00  0.00    -0.290 C  
HETATM   17  C   UNL     1     -10.335   7.950  71.245  1.00  0.00    -0.222 C  
HETATM   18  C   UNL     1      -7.267   6.599  68.652  1.00  0.00    -0.085 C  
HETATM   19  C   UNL     1     -10.830   7.690  72.689  1.00  0.00    -0.395 C  
HETATM   20  C   UNL     1      -8.866   8.441  71.435  1.00  0.00    -0.181 C  
HETATM   21  O   UNL     1      -8.531   9.036  72.687  1.00  0.00    -0.311 OA 
HETATM   22  C   UNL     1      -7.856   7.420  70.981  1.00  0.00    -0.092 C  
HETATM   23  C   UNL     1      -8.420   6.448  67.632  1.00  0.00    -0.117 C  
HETATM   24  C   UNL     1      -7.238   7.848  69.584  1.00  0.00    -0.070 C  
HETATM   25  C   UNL     1      -6.857   7.018  72.098  1.00  0.00    -0.057 C  
HETATM   26  H   UNL     1      -7.637   9.335  72.802  1.00  0.00     0.000 HD 
HETATM   27  C   UNL     1      -5.778   8.305  69.898  1.00  0.00    -0.025 C  
HETATM   28  C   UNL     1      -5.267   9.031  68.695  1.00  0.00    -0.034 C  
HETATM   29  C   UNL     1      -6.523   9.663  68.163  1.00  0.00    -0.057 C  
HETATM   30  C   UNL     1      -7.845   9.131  68.835  1.00  0.00    -0.094 C  
HETATM   31  O   UNL     1      -6.438  10.599  67.404  1.00  0.00    -0.057 OA 
HETATM   32  C   UNL     1      -9.242   9.052  67.965  1.00  0.00    -0.143 C  
HETATM   33  C   UNL     1      -9.048  10.075  66.772  1.00  0.00    -0.159 C  
HETATM   34  C   UNL     1      -9.172   7.691  67.108  1.00  0.00    -0.158 C  
HETATM   35  C   UNL     1     -10.503   7.425  66.364  1.00  0.00     0.192 C  
BRANCH  17  36
HETATM   36  C   UNL     1     -10.629   6.685  70.426  1.00  0.00    -0.266 C  
HETATM   37  C   UNL     1     -11.812   6.121  70.145  1.00  0.00     0.067 C  
ENDBRANCH  17  36
ENDBRANCH  14  15
ENDBRANCH  12  14
ENDBRANCH  11  12
ENDBRANCH  10  11
ENDBRANCH   8  10
TORSDOF 6
ENDMDL
MODEL      160
REMARK 921   NORMALIZED FREE ENERGY PREDICTED BY IDOCK:   -2.92 KCAL/MOL
REMARK 922        TOTAL FREE ENERGY PREDICTED BY IDOCK:   -5.70 KCAL/MOL
REMARK 923 INTER-LIGAND FREE ENERGY PREDICTED BY IDOCK:   -5.02 KCAL/MOL
REMARK 924 INTRA-LIGAND FREE ENERGY PREDICTED BY IDOCK:   -0.68 KCAL/MOL
REMARK 927      BINDING AFFINITY PREDICTED BY RF-SCORE:    0.00 PKD
ROOT
HETATM    1  C   UNL     1     -11.518  13.978  68.429  1.00  0.00    -0.306 C  
HETATM    2  C   UNL     1     -11.978  15.440  68.608  1.00  0.00    -0.240 C  
HETATM    3  C   UNL     1     -10.947  16.256  67.828  1.00  0.00    -0.281 C  
HETATM    4  C   UNL     1      -9.962  15.206  67.273  1.00  0.00    -0.230 C  
HETATM    5  C   UNL     1     -10.335  14.652  65.857  1.00  0.00    -0.334 C  
HETATM    6  N   UNL     1     -10.078  14.204  68.338  1.00  0.00    -0.233 NA 
HETATM    7  C   UNL     1      -9.268  13.021  68.225  1.00  0.00    -0.191 C  
HETATM    8  C   UNL     1     -11.288  13.423  65.819  1.00  0.00    -0.305 C  
HETATM    9  C   UNL     1     -12.076  13.236  67.170  1.00  0.00    -0.352 C  
ENDROOT
BRANCH   8  10
HETATM   10  S   UNL     1     -10.909  11.744  64.562  1.00  0.00    -0.335 SA 
BRANCH  10  11
HETATM   11  C   UNL     1      -9.959  10.374  65.431  1.00  0.00    -0.295 C  
BRANCH  11  12
HETATM   12  C   UNL     1     -10.458   9.393  66.686  1.00  0.00    -0.168 C  
HETATM   13  O   UNL     1     -11.034   9.980  67.613  1.00  0.00    -0.290 OA 
BRANCH  12  14
HETATM   14  O   UNL     1     -10.271   8.020  66.820  1.00  0.00    -0.279 OA 
BRANCH  14  15
HETATM   15  C   UNL     1      -9.069   7.359  67.677  1.00  0.00    -0.125 C  
HETATM   16  C   UNL     1      -9.813   5.966  68.017  1.00  0.00    -0.144 C  
HETATM   17  C   UNL     1      -9.063   4.767  68.656  1.00  0.00    -0.149 C  
HETATM   18  C   UNL     1      -5.670   6.576  70.439  1.00  0.00    -0.023 C  
HETATM   19  C   UNL     1      -9.731   3.372  68.588  1.00  0.00    -0.004 C  
HETATM   20  C   UNL     1      -9.056   5.105  70.180  1.00  0.00    -0.128 C  
HETATM   21  O   UNL     1     -10.036   4.468  70.997  1.00  0.00    -0.193 OA 
HETATM   22  C   UNL     1      -7.672   5.051  70.774  1.00  0.00    -0.078 C  
HETATM   23  C   UNL     1      -5.436   7.152  69.022  1.00  0.00    -0.018 C  
HETATM   24  C   UNL     1      -7.121   6.521  71.005  1.00  0.00    -0.069 C  
HETATM   25  C   UNL     1      -7.562   4.064  71.964  1.00  0.00    -0.066 C  
HETATM   26  H   UNL     1     -10.032   4.674  71.924  1.00  0.00     0.000 HD 
HETATM   27  C   UNL     1      -7.151   6.737  72.551  1.00  0.00    -0.075 C  
HETATM   28  C   UNL     1      -6.970   8.200  72.803  1.00  0.00    -0.113 C  
HETATM   29  C   UNL     1      -7.640   8.802  71.599  1.00  0.00    -0.070 C  
HETATM   30  C   UNL     1      -7.988   7.761  70.469  1.00  0.00    -0.098 C  
HETATM   31  O   UNL     1      -7.989   9.958  71.633  1.00  0.00     0.661 OA 
HETATM   32  C   UNL     1      -7.967   8.219  68.886  1.00  0.00    -0.113 C  
HETATM   33  C   UNL     1      -8.137   9.794  68.906  1.00  0.00    -0.101 C  
HETATM   34  C   UNL     1      -6.430   8.164  68.413  1.00  0.00    -0.058 C  
HETATM   35  C   UNL     1      -6.299   8.424  66.893  1.00  0.00    -0.056 C  
BRANCH  17  36
HETATM   36  C   UNL     1      -7.743   4.681  67.876  1.00  0.00    -0.082 C  
HETATM   37  C   UNL     1      -7.519   4.172  66.657  1.00  0.00    -0.080 C  
ENDBRANCH  17  36
ENDBRANCH  14  15
ENDBRANCH  12  14
ENDBRANCH  11  12
ENDBRANCH  10  11
ENDBRANCH   8  10
TORSDOF 6
ENDMDL
MODEL      161
REMARK 921   NORMALIZED FREE ENERGY PREDICTED BY IDOCK:   -2.92 KCAL/MOL
REMARK 922        TOTAL FREE ENERGY PREDICTED BY IDOCK:   -5.70 KCAL/MOL
REMARK 923 INTER-LIGAND FREE ENERGY PREDICTED BY IDOCK:   -4.92 KCAL/MOL
REMARK 924 INTRA-LIGAND FREE ENERGY PREDICTED BY IDOCK:   -0.78 KCAL/MOL
REMARK 927      BINDING AFFINITY PREDICTED BY RF-SCORE:    0.00 PKD
ROOT
HETATM    1  C   UNL     1      -9.433   4.064  67.564  1.00  0.00    -0.188 C  
HETATM    2  C   UNL     1      -8.711   2.778  68.018  1.00  0.00    -0.133 C  
HETATM    3  C   UNL     1      -7.343   2.855  67.339  1.00  0.00    -0.057 C  
HETATM    4  C   UNL     1      -7.387   4.169  66.531  1.00  0.00    -0.080 C  
HETATM    5  C   UNL     1      -6.874   5.427  67.310  1.00  0.00    -0.060 C  
HETATM    6  N   UNL     1      -8.825   4.209  66.244  1.00  0.00    -0.115 NA 
HETATM    7  C   UNL     1      -9.311   5.308  65.452  1.00  0.00    -0.035 C  
HETATM    8  C   UNL     1      -7.927   6.197  68.159  1.00  0.00    -0.107 C  
HETATM    9  C   UNL     1      -9.206   5.327  68.457  1.00  0.00    -0.138 C  
ENDROOT
BRANCH   8  10
HETATM   10  S   UNL     1      -8.067   8.324  68.116  1.00  0.00    -0.125 SA 
BRANCH  10  11
HETATM   11  C   UNL     1      -7.940   9.035  66.381  1.00  0.00    -0.103 C  
BRANCH  11  12
HETATM   12  C   UNL     1      -9.095   9.867  65.508  1.00  0.00    -0.189 C  
HETATM   13  O   UNL     1     -10.029   9.174  65.080  1.00  0.00     0.116 OA 
BRANCH  12  14
HETATM   14  O   UNL     1      -9.105  11.221  65.184  1.00  0.00    -0.189 OA 
BRANCH  14  15
HETATM   15  C   UNL     1      -9.691  12.371  66.158  1.00  0.00    -0.246 C  
HETATM   16  C   UNL     1      -9.958  13.481  65.015  1.00  0.00    -0.193 C  
HETATM   17  C   UNL     1     -10.752  14.782  65.302  1.00  0.00    -0.406 C  
HETATM   18  C   UNL     1     -10.483  15.185  69.512  1.00  0.00    -0.268 C  
HETATM   19  C   UNL     1     -11.291  15.586  64.092  1.00  0.00    -0.004 C  
HETATM   20  C   UNL     1      -9.690  15.732  65.938  1.00  0.00    -0.354 C  
HETATM   21  O   UNL     1      -9.090  16.708  65.089  1.00  0.00     0.382 OA 
HETATM   22  C   UNL     1     -10.146  16.302  67.256  1.00  0.00    -0.264 C  
HETATM   23  C   UNL     1     -11.050  13.746  69.522  1.00  0.00    -0.156 C  
HETATM   24  C   UNL     1      -9.405  15.568  68.453  1.00  0.00    -0.192 C  
HETATM   25  C   UNL     1     -10.149  17.852  67.277  1.00  0.00    -0.344 C  
HETATM   26  H   UNL     1      -8.443  17.285  65.477  1.00  0.00     0.000 HD 
HETATM   27  C   UNL     1      -8.386  16.611  69.011  1.00  0.00    -0.182 C  
HETATM   28  C   UNL     1      -7.435  15.876  69.902  1.00  0.00     0.241 C  
HETATM   29  C   UNL     1      -7.372  14.529  69.236  1.00  0.00    -0.126 C  
HETATM   30  C   UNL     1      -8.463  14.312  68.120  1.00  0.00    -0.167 C  
HETATM   31  O   UNL     1      -6.445  13.793  69.476  1.00  0.00    -0.110 OA 
HETATM   32  C   UNL     1      -9.080  12.809  67.847  1.00  0.00    -0.204 C  
HETATM   33  C   UNL     1      -7.999  11.804  68.422  1.00  0.00    -0.147 C  
HETATM   34  C   UNL     1     -10.221  12.572  68.957  1.00  0.00     0.096 C  
HETATM   35  C   UNL     1     -10.986  11.250  68.706  1.00  0.00    -0.270 C  
BRANCH  17  36
HETATM   36  C   UNL     1     -11.965  14.318  66.119  1.00  0.00    -0.422 C  
HETATM   37  C   UNL     1     -13.088  13.721  65.694  1.00  0.00    -0.181 C  
ENDBRANCH  17  36
ENDBRANCH  14  15
ENDBRANCH  12  14
ENDBRANCH  11  12
ENDBRANCH  10  11
ENDBRANCH   8  10
TORSDOF 6
ENDMDL
MODEL      162
REMARK 921   NORMALIZED FREE ENERGY PREDICTED BY IDOCK:   -2.89 KCAL/MOL
REMARK 922        TOTAL FREE ENERGY PREDICTED BY IDOCK:   -5.65 KCAL/MOL
REMARK 923 INTER-LIGAND FREE ENERGY PREDICTED BY IDOCK:   -5.32 KCAL/MOL
REMARK 924 INTRA-LIGAND FREE ENERGY PREDICTED BY IDOCK:   -0.33 KCAL/MOL
REMARK 927      BINDING AFFINITY PREDICTED BY RF-SCORE:    0.00 PKD
ROOT
HETATM    1  C   UNL     1      -7.585  20.032  66.948  1.00  0.00    -0.281 C  
HETATM    2  C   UNL     1      -6.514  21.142  66.981  1.00  0.00    -0.414 C  
HETATM    3  C   UNL     1      -5.908  21.037  68.381  1.00  0.00    -0.374 C  
HETATM    4  C   UNL     1      -6.688  19.888  69.055  1.00  0.00    -0.320 C  
HETATM    5  C   UNL     1      -6.048  18.472  68.864  1.00  0.00    -0.229 C  
HETATM    6  N   UNL     1      -7.968  20.047  68.357  1.00  0.00    -0.205 NA 
HETATM    7  C   UNL     1      -9.035  19.153  68.722  1.00  0.00    -0.346 C  
HETATM    8  C   UNL     1      -6.467  17.685  67.589  1.00  0.00    -0.166 C  
HETATM    9  C   UNL     1      -7.094  18.621  66.488  1.00  0.00    -0.244 C  
ENDROOT
BRANCH   8  10
HETATM   10  S   UNL     1      -6.997  15.622  67.665  1.00  0.00    -0.188 SA 
BRANCH  10  11
HETATM   11  C   UNL     1      -6.646  14.832  69.335  1.00  0.00    -0.142 C  
BRANCH  11  12
HETATM   12  C   UNL     1      -6.474  13.214  69.708  1.00  0.00    -0.009 C  
HETATM   13  O   UNL     1      -5.321  12.772  69.601  1.00  0.00    -0.073 OA 
BRANCH  12  14
HETATM   14  O   UNL     1      -7.469  12.317  70.084  1.00  0.00     1.062 OA 
BRANCH  14  15
HETATM   15  C   UNL     1      -8.069  11.181  69.101  1.00  0.00    -0.024 C  
HETATM   16  C   UNL     1      -6.654  10.575  68.611  1.00  0.00    -0.052 C  
HETATM   17  C   UNL     1      -6.561   9.261  67.792  1.00  0.00    -0.063 C  
HETATM   18  C   UNL     1     -10.440   8.868  66.131  1.00  0.00     0.281 C  
HETATM   19  C   UNL     1      -5.184   8.556  67.703  1.00  0.00    -0.034 C  
HETATM   20  C   UNL     1      -6.843   9.718  66.327  1.00  0.00    -0.092 C  
HETATM   21  O   UNL     1      -5.718   9.912  65.472  1.00  0.00    -0.054 OA 
HETATM   22  C   UNL     1      -7.942   8.917  65.677  1.00  0.00    -0.098 C  
HETATM   23  C   UNL     1     -10.904   8.999  67.601  1.00  0.00    -0.133 C  
HETATM   24  C   UNL     1      -9.278   9.771  65.620  1.00  0.00    -0.252 C  
HETATM   25  C   UNL     1      -7.492   8.225  64.364  1.00  0.00    -0.102 C  
HETATM   26  H   UNL     1      -5.890  10.190  64.581  1.00  0.00     0.000 HD 
HETATM   27  C   UNL     1      -9.459  10.157  64.117  1.00  0.00    -0.353 C  
HETATM   28  C   UNL     1     -10.497  11.232  64.052  1.00  0.00    -0.440 C  
HETATM   29  C   UNL     1     -10.267  11.956  65.350  1.00  0.00    -0.263 C  
HETATM   30  C   UNL     1      -9.307  11.202  66.347  1.00  0.00    -0.207 C  
HETATM   31  O   UNL     1     -10.687  13.082  65.481  1.00  0.00    -0.274 OA 
HETATM   32  C   UNL     1      -9.523  11.348  67.973  1.00  0.00    -0.181 C  
HETATM   33  C   UNL     1     -10.338  12.693  68.167  1.00  0.00    -0.238 C  
HETATM   34  C   UNL     1     -10.693  10.318  68.376  1.00  0.00    -0.263 C  
HETATM   35  C   UNL     1     -10.880  10.249  69.911  1.00  0.00    -0.355 C  
BRANCH  17  36
HETATM   36  C   UNL     1      -7.522   8.298  68.502  1.00  0.00    -0.095 C  
HETATM   37  C   UNL     1      -7.439   6.966  68.627  1.00  0.00    -0.099 C  
ENDBRANCH  17  36
ENDBRANCH  14  15
ENDBRANCH  12  14
ENDBRANCH  11  12
ENDBRANCH  10  11
ENDBRANCH   8  10
TORSDOF 6
ENDMDL
MODEL      163
REMARK 921   NORMALIZED FREE ENERGY PREDICTED BY IDOCK:   -2.87 KCAL/MOL
REMARK 922        TOTAL FREE ENERGY PREDICTED BY IDOCK:   -5.63 KCAL/MOL
REMARK 923 INTER-LIGAND FREE ENERGY PREDICTED BY IDOCK:   -4.66 KCAL/MOL
REMARK 924 INTRA-LIGAND FREE ENERGY PREDICTED BY IDOCK:   -0.97 KCAL/MOL
REMARK 927      BINDING AFFINITY PREDICTED BY RF-SCORE:    0.00 PKD
ROOT
HETATM    1  C   UNL     1     -12.824   8.658  70.963  1.00  0.00     0.022 C  
HETATM    2  C   UNL     1     -12.962   8.510  72.493  1.00  0.00    -0.300 C  
HETATM    3  C   UNL     1     -11.598   7.985  72.944  1.00  0.00    -0.281 C  
HETATM    4  C   UNL     1     -10.784   7.854  71.639  1.00  0.00    -0.223 C  
HETATM    5  C   UNL     1      -9.967   9.133  71.253  1.00  0.00    -0.373 C  
HETATM    6  N   UNL     1     -11.886   7.566  70.715  1.00  0.00    -0.265 NA 
HETATM    7  C   UNL     1     -11.549   7.337  69.335  1.00  0.00     0.319 C  
HETATM    8  C   UNL     1     -10.709  10.200  70.398  1.00  0.00    -0.266 C  
HETATM    9  C   UNL     1     -12.274  10.031  70.457  1.00  0.00    -0.308 C  
ENDROOT
BRANCH   8  10
HETATM   10  S   UNL     1      -9.795  11.114  68.702  1.00  0.00    -0.193 SA 
BRANCH  10  11
HETATM   11  C   UNL     1     -10.194  10.236  67.089  1.00  0.00    -0.225 C  
BRANCH  11  12
HETATM   12  C   UNL     1      -9.617   8.773  66.527  1.00  0.00    -0.237 C  
HETATM   13  O   UNL     1     -10.490   7.942  66.237  1.00  0.00     0.043 OA 
BRANCH  12  14
HETATM   14  O   UNL     1      -8.290   8.379  66.386  1.00  0.00    -0.109 OA 
BRANCH  14  15
HETATM   15  C   UNL     1      -7.807   6.835  66.396  1.00  0.00    -0.104 C  
HETATM   16  C   UNL     1      -8.461   6.415  64.980  1.00  0.00    -0.032 C  
HETATM   17  C   UNL     1      -8.146   5.056  64.300  1.00  0.00    -0.118 C  
HETATM   18  C   UNL     1      -6.754   2.657  67.504  1.00  0.00    -0.040 C  
HETATM   19  C   UNL     1      -8.491   4.899  62.798  1.00  0.00    -0.114 C  
HETATM   20  C   UNL     1      -9.107   4.054  65.011  1.00  0.00    -0.140 C  
HETATM   21  O   UNL     1     -10.313   3.708  64.334  1.00  0.00    -0.262 OA 
HETATM   22  C   UNL     1      -8.380   2.855  65.563  1.00  0.00    -0.095 C  
HETATM   23  C   UNL     1      -5.760   3.821  67.728  1.00  0.00    -0.022 C  
HETATM   24  C   UNL     1      -8.233   2.983  67.138  1.00  0.00    -0.084 C  
HETATM   25  C   UNL     1      -8.925   1.511  65.015  1.00  0.00    -0.123 C  
HETATM   26  H   UNL     1     -10.898   3.098  64.768  1.00  0.00     0.000 HD 
HETATM   27  C   UNL     1      -9.224   1.934  67.734  1.00  0.00    -0.206 C  
HETATM   28  C   UNL     1      -9.381   2.241  69.189  1.00  0.00    -0.185 C  
HETATM   29  C   UNL     1      -9.228   3.737  69.204  1.00  0.00    -0.160 C  
HETATM   30  C   UNL     1      -8.707   4.344  67.846  1.00  0.00    -0.116 C  
HETATM   31  O   UNL     1      -9.637   4.364  70.152  1.00  0.00    -0.157 OA 
HETATM   32  C   UNL     1      -7.767   5.696  67.851  1.00  0.00    -0.093 C  
HETATM   33  C   UNL     1      -8.067   6.407  69.234  1.00  0.00    -0.111 C  
HETATM   34  C   UNL     1      -6.266   5.211  68.169  1.00  0.00    -0.034 C  
HETATM   35  C   UNL     1      -5.258   6.380  68.045  1.00  0.00    -0.004 C  
BRANCH  17  36
HETATM   36  C   UNL     1      -6.625   4.903  64.438  1.00  0.00    -0.043 C  
HETATM   37  C   UNL     1      -5.728   4.542  63.509  1.00  0.00    -0.017 C  
ENDBRANCH  17  36
ENDBRANCH  14  15
ENDBRANCH  12  14
ENDBRANCH  11  12
ENDBRANCH  10  11
ENDBRANCH   8  10
TORSDOF 6
ENDMDL
MODEL      164
REMARK 921   NORMALIZED FREE ENERGY PREDICTED BY IDOCK:   -2.74 KCAL/MOL
REMARK 922        TOTAL FREE ENERGY PREDICTED BY IDOCK:   -5.46 KCAL/MOL
REMARK 923 INTER-LIGAND FREE ENERGY PREDICTED BY IDOCK:   -5.03 KCAL/MOL
REMARK 924 INTRA-LIGAND FREE ENERGY PREDICTED BY IDOCK:   -0.43 KCAL/MOL
REMARK 927      BINDING AFFINITY PREDICTED BY RF-SCORE:    0.00 PKD
ROOT
HETATM    1  C   UNL     1      -9.232   5.914  71.852  1.00  0.00    -0.147 C  
HETATM    2  C   UNL     1     -10.468   4.994  71.929  1.00  0.00    -0.255 C  
HETATM    3  C   UNL     1     -11.578   5.901  72.462  1.00  0.00    -0.327 C  
HETATM    4  C   UNL     1     -10.894   7.269  72.668  1.00  0.00    -0.290 C  
HETATM    5  C   UNL     1     -10.957   8.219  71.426  1.00  0.00    -0.301 C  
HETATM    6  N   UNL     1      -9.539   6.798  72.974  1.00  0.00    -0.145 NA 
HETATM    7  C   UNL     1      -8.545   7.795  73.271  1.00  0.00    -0.187 C  
HETATM    8  C   UNL     1      -9.812   8.076  70.382  1.00  0.00    -0.183 C  
HETATM    9  C   UNL     1      -9.050   6.704  70.515  1.00  0.00    -0.152 C  
ENDROOT
BRANCH   8  10
HETATM   10  S   UNL     1      -8.818   9.775  69.564  1.00  0.00    -0.207 SA 
BRANCH  10  11
HETATM   11  C   UNL     1      -9.117   9.987  67.720  1.00  0.00    -0.131 C  
BRANCH  11  12
HETATM   12  C   UNL     1      -8.304  10.964  66.637  1.00  0.00    -0.143 C  
HETATM   13  O   UNL     1      -8.333  10.578  65.460  1.00  0.00    -0.163 OA 
BRANCH  12  14
HETATM   14  O   UNL     1      -7.583  12.122  66.911  1.00  0.00    -0.122 OA 
BRANCH  14  15
HETATM   15  C   UNL     1      -8.248  13.593  66.996  1.00  0.00    -0.037 C  
HETATM   16  C   UNL     1      -6.919  14.383  67.466  1.00  0.00    -0.182 C  
HETATM   17  C   UNL     1      -6.856  15.933  67.508  1.00  0.00    -0.213 C  
HETATM   18  C   UNL     1     -10.933  17.076  67.667  1.00  0.00    -0.164 C  
HETATM   19  C   UNL     1      -5.460  16.601  67.587  1.00  0.00    -0.161 C  
HETATM   20  C   UNL     1      -7.522  16.295  68.871  1.00  0.00    -0.209 C  
HETATM   21  O   UNL     1      -6.657  16.585  69.967  1.00  0.00    -0.088 OA 
HETATM   22  C   UNL     1      -8.633  17.301  68.719  1.00  0.00    -0.230 C  
HETATM   23  C   UNL     1     -11.060  16.199  66.399  1.00  0.00     0.085 C  
HETATM   24  C   UNL     1     -10.042  16.581  68.846  1.00  0.00    -0.266 C  
HETATM   25  C   UNL     1      -8.416  18.577  69.572  1.00  0.00     0.571 C  
HETATM   26  H   UNL     1      -7.063  16.805  70.797  1.00  0.00     0.000 HD 
HETATM   27  C   UNL     1     -10.610  17.024  70.231  1.00  0.00     0.428 C  
HETATM   28  C   UNL     1     -11.760  16.123  70.553  1.00  0.00    -0.268 C  
HETATM   29  C   UNL     1     -11.329  14.836  69.905  1.00  0.00    -0.271 C  
HETATM   30  C   UNL     1     -10.080  14.980  68.955  1.00  0.00    -0.241 C  
HETATM   31  O   UNL     1     -11.843  13.799  70.251  1.00  0.00    -0.299 OA 
HETATM   32  C   UNL     1      -9.932  14.013  67.630  1.00  0.00    -0.237 C  
HETATM   33  C   UNL     1     -10.840  12.751  67.932  1.00  0.00    -0.242 C  
HETATM   34  C   UNL     1     -10.840  14.672  66.476  1.00  0.00    -0.315 C  
HETATM   35  C   UNL     1     -10.659  13.936  65.127  1.00  0.00    -0.391 C  
BRANCH  17  36
HETATM   36  C   UNL     1      -7.501  16.379  66.188  1.00  0.00     0.209 C  
HETATM   37  C   UNL     1      -7.572  17.609  65.659  1.00  0.00     0.241 C  
ENDBRANCH  17  36
ENDBRANCH  14  15
ENDBRANCH  12  14
ENDBRANCH  11  12
ENDBRANCH  10  11
ENDBRANCH   8  10
TORSDOF 6
ENDMDL
MODEL      165
REMARK 921   NORMALIZED FREE ENERGY PREDICTED BY IDOCK:   -2.71 KCAL/MOL
REMARK 922        TOTAL FREE ENERGY PREDICTED BY IDOCK:   -5.42 KCAL/MOL
REMARK 923 INTER-LIGAND FREE ENERGY PREDICTED BY IDOCK:   -4.67 KCAL/MOL
REMARK 924 INTRA-LIGAND FREE ENERGY PREDICTED BY IDOCK:   -0.75 KCAL/MOL
REMARK 927      BINDING AFFINITY PREDICTED BY RF-SCORE:    0.00 PKD
ROOT
HETATM    1  C   UNL     1      -7.548  19.116  69.455  1.00  0.00    -0.048 C  
HETATM    2  C   UNL     1      -7.315  20.529  68.880  1.00  0.00     0.267 C  
HETATM    3  C   UNL     1      -6.180  20.341  67.873  1.00  0.00    -0.276 C  
HETATM    4  C   UNL     1      -5.833  18.840  67.957  1.00  0.00    -0.202 C  
HETATM    5  C   UNL     1      -6.629  17.934  66.959  1.00  0.00    -0.202 C  
HETATM    6  N   UNL     1      -6.183  18.607  69.362  1.00  0.00    -0.259 NA 
HETATM    7  C   UNL     1      -5.976  17.282  69.884  1.00  0.00    -0.230 C  
HETATM    8  C   UNL     1      -8.004  17.396  67.453  1.00  0.00    -0.198 C  
HETATM    9  C   UNL     1      -8.564  18.220  68.674  1.00  0.00    -0.301 C  
ENDROOT
BRANCH   8  10
HETATM   10  S   UNL     1      -8.576  15.361  67.185  1.00  0.00    -0.228 SA 
BRANCH  10  11
HETATM   11  C   UNL     1      -8.069  14.258  68.620  1.00  0.00    -0.140 C  
BRANCH  11  12
HETATM   12  C   UNL     1      -7.691  12.631  68.602  1.00  0.00    -0.066 C  
HETATM   13  O   UNL     1      -6.495  12.373  68.402  1.00  0.00    -0.052 OA 
BRANCH  12  14
HETATM   14  O   UNL     1      -8.559  11.554  68.750  1.00  0.00    -0.139 OA 
BRANCH  14  15
HETATM   15  C   UNL     1      -8.093  10.008  68.662  1.00  0.00    -0.102 C  
HETATM   16  C   UNL     1      -8.317   9.825  67.072  1.00  0.00    -0.117 C  
HETATM   17  C   UNL     1      -7.816   8.569  66.310  1.00  0.00    -0.098 C  
HETATM   18  C   UNL     1      -7.380   5.675  69.375  1.00  0.00    -0.070 C  
HETATM   19  C   UNL     1      -7.720   8.646  64.766  1.00  0.00    -0.108 C  
HETATM   20  C   UNL     1      -8.935   7.512  66.563  1.00  0.00    -0.162 C  
HETATM   21  O   UNL     1      -9.898   7.316  65.530  1.00  0.00     0.133 OA 
HETATM   22  C   UNL     1      -8.389   6.218  67.109  1.00  0.00    -0.109 C  
HETATM   23  C   UNL     1      -6.495   6.754  70.043  1.00  0.00    -0.040 C  
HETATM   24  C   UNL     1      -8.696   6.108  68.662  1.00  0.00    -0.112 C  
HETATM   25  C   UNL     1      -8.751   4.990  66.233  1.00  0.00    -0.117 C  
HETATM   26  H   UNL     1     -10.579   6.673  65.685  1.00  0.00     0.000 HD 
HETATM   27  C   UNL     1      -9.811   5.023  68.789  1.00  0.00    -0.236 C  
HETATM   28  C   UNL     1     -10.375   5.119  70.171  1.00  0.00    -0.340 C  
HETATM   29  C   UNL     1     -10.239   6.590  70.455  1.00  0.00    -0.193 C  
HETATM   30  C   UNL     1      -9.357   7.368  69.406  1.00  0.00    -0.155 C  
HETATM   31  O   UNL     1     -10.903   7.087  71.333  1.00  0.00    -0.227 OA 
HETATM   32  C   UNL     1      -8.463   8.668  69.879  1.00  0.00    -0.129 C  
HETATM   33  C   UNL     1      -9.146   9.180  71.214  1.00  0.00    -0.232 C  
HETATM   34  C   UNL     1      -7.111   8.083  70.529  1.00  0.00    -0.045 C  
HETATM   35  C   UNL     1      -6.114   9.217  70.872  1.00  0.00    -0.054 C  
BRANCH  17  36
HETATM   36  C   UNL     1      -6.396   8.338  66.846  1.00  0.00    -0.056 C  
HETATM   37  C   UNL     1      -5.328   7.835  66.208  1.00  0.00    -0.025 C  
ENDBRANCH  17  36
ENDBRANCH  14  15
ENDBRANCH  12  14
ENDBRANCH  11  12
ENDBRANCH  10  11
ENDBRANCH   8  10
TORSDOF 6
ENDMDL
MODEL      166
REMARK 921   NORMALIZED FREE ENERGY PREDICTED BY IDOCK:   -2.70 KCAL/MOL
REMARK 922        TOTAL FREE ENERGY PREDICTED BY IDOCK:   -5.40 KCAL/MOL
REMARK 923 INTER-LIGAND FREE ENERGY PREDICTED BY IDOCK:   -3.78 KCAL/MOL
REMARK 924 INTRA-LIGAND FREE ENERGY PREDICTED BY IDOCK:   -1.62 KCAL/MOL
REMARK 927      BINDING AFFINITY PREDICTED BY RF-SCORE:    0.00 PKD
ROOT
HETATM    1  C   UNL     1      -9.208   3.765  66.244  1.00  0.00    -0.167 C  
HETATM    2  C   UNL     1      -9.751   3.714  67.687  1.00  0.00    -0.108 C  
HETATM    3  C   UNL     1      -8.567   3.217  68.517  1.00  0.00    -0.121 C  
HETATM    4  C   UNL     1      -7.437   3.002  67.488  1.00  0.00    -0.061 C  
HETATM    5  C   UNL     1      -6.523   4.252  67.258  1.00  0.00    -0.042 C  
HETATM    6  N   UNL     1      -8.258   2.659  66.322  1.00  0.00    -0.084 NA 
HETATM    7  C   UNL     1      -7.569   2.342  65.099  1.00  0.00    -0.075 C  
HETATM    8  C   UNL     1      -6.990   5.265  66.173  1.00  0.00    -0.063 C  
HETATM    9  C   UNL     1      -8.517   5.103  65.821  1.00  0.00    -0.124 C  
ENDROOT
BRANCH   8  10
HETATM   10  S   UNL     1      -5.641   6.068  64.731  1.00  0.00    -0.018 SA 
BRANCH  10  11
HETATM   11  C   UNL     1      -5.867   7.914  64.459  1.00  0.00    -0.045 C  
BRANCH  11  12
HETATM   12  C   UNL     1      -6.915   8.961  65.229  1.00  0.00    -0.076 C  
HETATM   13  O   UNL     1      -6.503  10.124  65.346  1.00  0.00    -0.102 OA 
BRANCH  12  14
HETATM   14  O   UNL     1      -8.162   8.669  65.774  1.00  0.00    -0.113 OA 
BRANCH  14  15
HETATM   15  C   UNL     1      -8.590   9.050  67.287  1.00  0.00    -0.114 C  
HETATM   16  C   UNL     1      -7.130   8.873  67.956  1.00  0.00    -0.079 C  
HETATM   17  C   UNL     1      -6.830   9.329  69.408  1.00  0.00    -0.049 C  
HETATM   18  C   UNL     1     -10.670   9.489  71.195  1.00  0.00    -0.408 C  
HETATM   19  C   UNL     1      -5.348   9.485  69.829  1.00  0.00    -0.033 C  
HETATM   20  C   UNL     1      -7.345   8.144  70.282  1.00  0.00    -0.059 C  
HETATM   21  O   UNL     1      -6.377   7.209  70.754  1.00  0.00    -0.038 OA 
HETATM   22  C   UNL     1      -8.299   8.595  71.358  1.00  0.00    -0.217 C  
HETATM   23  C   UNL     1     -11.008  10.409  69.999  1.00  0.00    -0.370 C  
HETATM   24  C   UNL     1      -9.789   8.226  70.955  1.00  0.00    -0.215 C  
HETATM   25  C   UNL     1      -7.836   8.196  72.783  1.00  0.00    -0.197 C  
HETATM   26  H   UNL     1      -6.691   6.487  71.286  1.00  0.00     0.000 HD 
HETATM   27  C   UNL     1     -10.193   7.047  71.896  1.00  0.00    -0.205 C  
HETATM   28  C   UNL     1     -11.443   6.440  71.341  1.00  0.00    -0.363 C  
HETATM   29  C   UNL     1     -11.254   6.649  69.864  1.00  0.00    -0.364 C  
HETATM   30  C   UNL     1     -10.061   7.611  69.497  1.00  0.00    -0.192 C  
HETATM   31  O   UNL     1     -11.896   5.983  69.087  1.00  0.00     0.267 OA 
HETATM   32  C   UNL     1     -10.147   8.561  68.154  1.00  0.00    -0.240 C  
HETATM   33  C   UNL     1     -11.214   7.860  67.216  1.00  0.00     0.541 C  
HETATM   34  C   UNL     1     -11.018   9.852  68.559  1.00  0.00    -0.226 C  
HETATM   35  C   UNL     1     -11.037  10.899  67.418  1.00  0.00    -0.373 C  
BRANCH  17  36
HETATM   36  C   UNL     1      -7.485  10.714  69.518  1.00  0.00    -0.132 C  
HETATM   37  C   UNL     1      -6.985  11.841  70.044  1.00  0.00     0.484 C  
ENDBRANCH  17  36
ENDBRANCH  14  15
ENDBRANCH  12  14
ENDBRANCH  11  12
ENDBRANCH  10  11
ENDBRANCH   8  10
TORSDOF 6
ENDMDL
MODEL      167
REMARK 921   NORMALIZED FREE ENERGY PREDICTED BY IDOCK:   -2.70 KCAL/MOL
REMARK 922        TOTAL FREE ENERGY PREDICTED BY IDOCK:   -5.39 KCAL/MOL
REMARK 923 INTER-LIGAND FREE ENERGY PREDICTED BY IDOCK:   -4.99 KCAL/MOL
REMARK 924 INTRA-LIGAND FREE ENERGY PREDICTED BY IDOCK:   -0.41 KCAL/MOL
REMARK 927      BINDING AFFINITY PREDICTED BY RF-SCORE:    0.00 PKD
ROOT
HETATM    1  C   UNL     1      -8.431   4.493  62.705  1.00  0.00    -0.100 C  
HETATM    2  C   UNL     1      -9.964   4.319  62.696  1.00  0.00    -0.096 C  
HETATM    3  C   UNL     1     -10.284   3.738  64.074  1.00  0.00    -0.233 C  
HETATM    4  C   UNL     1      -8.911   3.604  64.765  1.00  0.00    -0.125 C  
HETATM    5  C   UNL     1      -8.476   4.861  65.592  1.00  0.00    -0.124 C  
HETATM    6  N   UNL     1      -8.083   3.374  63.577  1.00  0.00    -0.084 NA 
HETATM    7  C   UNL     1      -6.675   3.161  63.784  1.00  0.00    -0.032 C  
HETATM    8  C   UNL     1      -7.708   5.971  64.818  1.00  0.00    -0.101 C  
HETATM    9  C   UNL     1      -7.901   5.856  63.259  1.00  0.00    -0.103 C  
ENDROOT
BRANCH   8  10
HETATM   10  S   UNL     1      -5.954   6.885  65.613  1.00  0.00    -0.036 SA 
BRANCH  10  11
HETATM   11  C   UNL     1      -6.310   8.486  66.532  1.00  0.00    -0.058 C  
BRANCH  11  12
HETATM   12  C   UNL     1      -6.131  10.058  65.997  1.00  0.00    -0.077 C  
HETATM   13  O   UNL     1      -6.206  10.205  64.769  1.00  0.00    -0.115 OA 
BRANCH  12  14
HETATM   14  O   UNL     1      -5.877  11.193  66.761  1.00  0.00    -0.081 OA 
BRANCH  14  15
HETATM   15  C   UNL     1      -7.029  12.208  67.268  1.00  0.00    -0.148 C  
HETATM   16  C   UNL     1      -8.197  11.690  66.280  1.00  0.00     0.012 C  
HETATM   17  C   UNL     1      -9.672  12.144  66.442  1.00  0.00    -0.243 C  
HETATM   18  C   UNL     1      -9.353  15.730  68.676  1.00  0.00    -0.206 C  
HETATM   19  C   UNL     1     -10.769  11.319  65.723  1.00  0.00    -0.284 C  
HETATM   20  C   UNL     1      -9.715  13.528  65.723  1.00  0.00    -0.136 C  
HETATM   21  O   UNL     1     -10.224  13.561  64.392  1.00  0.00    -0.576 OA 
HETATM   22  C   UNL     1     -10.291  14.611  66.598  1.00  0.00    -0.273 C  
HETATM   23  C   UNL     1      -8.553  14.851  69.665  1.00  0.00     0.084 C  
HETATM   24  C   UNL     1      -9.130  15.546  67.145  1.00  0.00    -0.233 C  
HETATM   25  C   UNL     1     -11.519  15.314  65.963  1.00  0.00    -0.085 C  
HETATM   26  H   UNL     1     -10.249  14.404  63.955  1.00  0.00     0.000 HD 
HETATM   27  C   UNL     1      -9.281  16.892  66.368  1.00  0.00    -0.308 C  
HETATM   28  C   UNL     1      -8.028  17.678  66.587  1.00  0.00    -0.285 C  
HETATM   29  C   UNL     1      -6.999  16.588  66.701  1.00  0.00    -0.161 C  
HETATM   30  C   UNL     1      -7.608  15.141  66.837  1.00  0.00     0.011 C  
HETATM   31  O   UNL     1      -5.833  16.856  66.536  1.00  0.00    -0.289 OA 
HETATM   32  C   UNL     1      -6.819  13.990  67.712  1.00  0.00    -0.187 C  
HETATM   33  C   UNL     1      -5.309  14.467  67.763  1.00  0.00    -0.007 C  
HETATM   34  C   UNL     1      -7.189  14.252  69.256  1.00  0.00    -0.083 C  
HETATM   35  C   UNL     1      -6.630  13.134  70.168  1.00  0.00     0.265 C  
BRANCH  17  36
HETATM   36  C   UNL     1      -9.940  12.045  67.950  1.00  0.00    -0.199 C  
HETATM   37  C   UNL     1     -11.114  11.951  68.591  1.00  0.00    -0.295 C  
ENDBRANCH  17  36
ENDBRANCH  14  15
ENDBRANCH  12  14
ENDBRANCH  11  12
ENDBRANCH  10  11
ENDBRANCH   8  10
TORSDOF 6
ENDMDL
MODEL      168
REMARK 921   NORMALIZED FREE ENERGY PREDICTED BY IDOCK:   -2.69 KCAL/MOL
REMARK 922        TOTAL FREE ENERGY PREDICTED BY IDOCK:   -5.39 KCAL/MOL
REMARK 923 INTER-LIGAND FREE ENERGY PREDICTED BY IDOCK:   -4.49 KCAL/MOL
REMARK 924 INTRA-LIGAND FREE ENERGY PREDICTED BY IDOCK:   -0.90 KCAL/MOL
REMARK 927      BINDING AFFINITY PREDICTED BY RF-SCORE:    0.00 PKD
ROOT
HETATM    1  C   UNL     1      -8.720   9.947  67.606  1.00  0.00    -0.121 C  
HETATM    2  C   UNL     1      -9.306   9.215  68.831  1.00  0.00    -0.146 C  
HETATM    3  C   UNL     1     -10.188  10.265  69.508  1.00  0.00    -0.261 C  
HETATM    4  C   UNL     1     -10.029  11.526  68.632  1.00  0.00    -0.199 C  
HETATM    5  C   UNL     1     -11.077  11.648  67.475  1.00  0.00    -0.333 C  
HETATM    6  N   UNL     1      -8.661  11.298  68.157  1.00  0.00    -0.143 NA 
HETATM    7  C   UNL     1      -8.085  12.297  67.296  1.00  0.00    -0.182 C  
HETATM    8  C   UNL     1     -10.709  10.962  66.128  1.00  0.00    -0.159 C  
HETATM    9  C   UNL     1      -9.574   9.882  66.298  1.00  0.00    -0.265 C  
ENDROOT
BRANCH   8  10
HETATM   10  S   UNL     1     -10.978  11.944  64.256  1.00  0.00    -0.382 SA 
BRANCH  10  11
HETATM   11  C   UNL     1     -11.479  13.747  64.435  1.00  0.00    -0.372 C  
BRANCH  11  12
HETATM   12  C   UNL     1     -10.509  15.075  64.724  1.00  0.00    -0.234 C  
HETATM   13  O   UNL     1     -10.991  16.162  64.373  1.00  0.00    -0.612 OA 
BRANCH  12  14
HETATM   14  O   UNL     1      -9.230  15.092  65.272  1.00  0.00     0.163 OA 
BRANCH  14  15
HETATM   15  C   UNL     1      -8.814  15.993  66.549  1.00  0.00    -0.305 C  
HETATM   16  C   UNL     1     -10.312  16.288  67.079  1.00  0.00    -0.292 C  
HETATM   17  C   UNL     1     -10.582  16.947  68.457  1.00  0.00    -0.367 C  
HETATM   18  C   UNL     1      -6.921  18.889  69.347  1.00  0.00    -0.210 C  
HETATM   19  C   UNL     1     -12.010  16.837  69.048  1.00  0.00     0.924 C  
HETATM   20  C   UNL     1     -10.409  18.472  68.179  1.00  0.00    -0.356 C  
HETATM   21  O   UNL     1     -11.593  19.241  67.978  1.00  0.00     0.265 OA 
HETATM   22  C   UNL     1      -9.441  19.124  69.132  1.00  0.00    -0.272 C  
HETATM   23  C   UNL     1      -6.309  17.489  69.106  1.00  0.00    -0.235 C  
HETATM   24  C   UNL     1      -8.056  19.392  68.405  1.00  0.00    -0.378 C  
HETATM   25  C   UNL     1     -10.065  20.309  69.914  1.00  0.00     0.367 C  
HETATM   26  H   UNL     1     -11.487  20.169  67.809  1.00  0.00     0.000 HD 
HETATM   27  C   UNL     1      -7.992  20.938  68.191  1.00  0.00     0.364 C  
HETATM   28  C   UNL     1      -6.887  21.211  67.221  1.00  0.00    -0.408 C  
HETATM   29  C   UNL     1      -6.935  19.985  66.351  1.00  0.00    -0.240 C  
HETATM   30  C   UNL     1      -7.849  18.831  66.915  1.00  0.00    -0.252 C  
HETATM   31  O   UNL     1      -6.422  20.015  65.258  1.00  0.00    -0.240 OA 
HETATM   32  C   UNL     1      -7.467  17.256  66.623  1.00  0.00    -0.287 C  
HETATM   33  C   UNL     1      -6.539  17.283  65.340  1.00  0.00     1.076 C  
HETATM   34  C   UNL     1      -6.345  16.847  67.702  1.00  0.00    -0.166 C  
HETATM   35  C   UNL     1      -6.016  15.337  67.629  1.00  0.00    -0.119 C  
BRANCH  17  36
HETATM   36  C   UNL     1      -9.632  16.223  69.421  1.00  0.00    -0.173 C  
HETATM   37  C   UNL     1      -9.713  14.974  69.902  1.00  0.00     0.062 C  
ENDBRANCH  17  36
ENDBRANCH  14  15
ENDBRANCH  12  14
ENDBRANCH  11  12
ENDBRANCH  10  11
ENDBRANCH   8  10
TORSDOF 6
ENDMDL
MODEL      169
REMARK 921   NORMALIZED FREE ENERGY PREDICTED BY IDOCK:   -2.66 KCAL/MOL
REMARK 922        TOTAL FREE ENERGY PREDICTED BY IDOCK:   -5.34 KCAL/MOL
REMARK 923 INTER-LIGAND FREE ENERGY PREDICTED BY IDOCK:   -4.72 KCAL/MOL
REMARK 924 INTRA-LIGAND FREE ENERGY PREDICTED BY IDOCK:   -0.62 KCAL/MOL
REMARK 927      BINDING AFFINITY PREDICTED BY RF-SCORE:    0.00 PKD
ROOT
HETATM    1  C   UNL     1      -8.302   9.842  64.704  1.00  0.00    -0.163 C  
HETATM    2  C   UNL     1      -6.813  10.229  64.811  1.00  0.00    -0.087 C  
HETATM    3  C   UNL     1      -6.745  11.125  66.048  1.00  0.00     0.044 C  
HETATM    4  C   UNL     1      -8.203  11.201  66.550  1.00  0.00    -0.167 C  
HETATM    5  C   UNL     1      -8.589  10.095  67.589  1.00  0.00    -0.118 C  
HETATM    6  N   UNL     1      -8.891  11.056  65.263  1.00  0.00    -0.169 NA 
HETATM    7  C   UNL     1     -10.329  11.103  65.274  1.00  0.00    -0.277 C  
HETATM    8  C   UNL     1      -9.114   8.749  67.011  1.00  0.00    -0.133 C  
HETATM    9  C   UNL     1      -8.734   8.563  65.493  1.00  0.00    -0.208 C  
ENDROOT
BRANCH   8  10
HETATM   10  S   UNL     1     -10.835   7.778  67.809  1.00  0.00     0.046 SA 
BRANCH  10  11
HETATM   11  C   UNL     1     -10.989   7.966  69.673  1.00  0.00    -0.110 C  
BRANCH  11  12
HETATM   12  C   UNL     1     -10.176   9.017  70.685  1.00  0.00    -0.229 C  
HETATM   13  O   UNL     1     -10.594  10.183  70.675  1.00  0.00    -0.272 OA 
BRANCH  12  14
HETATM   14  O   UNL     1      -9.081   8.739  71.497  1.00  0.00    -0.214 OA 
BRANCH  14  15
HETATM   15  C   UNL     1      -8.491   7.251  71.729  1.00  0.00    -0.111 C  
HETATM   16  C   UNL     1      -8.298   6.871  70.171  1.00  0.00    -0.135 C  
HETATM   17  C   UNL     1      -7.529   5.599  69.724  1.00  0.00    -0.074 C  
HETATM   18  C   UNL     1      -7.651   3.124  73.163  1.00  0.00    -0.055 C  
HETATM   19  C   UNL     1      -7.058   5.515  68.251  1.00  0.00    -0.066 C  
HETATM   20  C   UNL     1      -8.592   4.463  69.843  1.00  0.00    -0.068 C  
HETATM   21  O   UNL     1      -9.251   4.053  68.647  1.00  0.00    -0.127 OA 
HETATM   22  C   UNL     1      -8.103   3.303  70.670  1.00  0.00    -0.063 C  
HETATM   23  C   UNL     1      -7.044   4.358  73.872  1.00  0.00    -0.067 C  
HETATM   24  C   UNL     1      -8.777   3.334  72.107  1.00  0.00    -0.111 C  
HETATM   25  C   UNL     1      -8.141   1.954  69.905  1.00  0.00    -0.056 C  
HETATM   26  H   UNL     1      -9.898   3.362  68.719  1.00  0.00     0.000 HD 
HETATM   27  C   UNL     1      -9.803   2.157  72.109  1.00  0.00    -0.216 C  
HETATM   28  C   UNL     1     -10.699   2.345  73.292  1.00  0.00    -0.274 C  
HETATM   29  C   UNL     1     -10.750   3.845  73.400  1.00  0.00    -0.208 C  
HETATM   30  C   UNL     1      -9.697   4.591  72.497  1.00  0.00    -0.200 C  
HETATM   31  O   UNL     1     -11.647   4.362  74.022  1.00  0.00    -0.081 OA 
HETATM   32  C   UNL     1      -9.049   6.023  72.992  1.00  0.00    -0.130 C  
HETATM   33  C   UNL     1     -10.079   6.604  74.045  1.00  0.00    -0.373 C  
HETATM   34  C   UNL     1      -7.862   5.661  74.016  1.00  0.00    -0.099 C  
HETATM   35  C   UNL     1      -7.070   6.924  74.431  1.00  0.00    -0.091 C  
BRANCH  17  36
HETATM   36  C   UNL     1      -6.274   5.580  70.607  1.00  0.00    -0.026 C  
HETATM   37  C   UNL     1      -5.485   6.602  70.970  1.00  0.00    -0.026 C  
ENDBRANCH  17  36
ENDBRANCH  14  15
ENDBRANCH  12  14
ENDBRANCH  11  12
ENDBRANCH  10  11
ENDBRANCH   8  10
TORSDOF 6
ENDMDL
MODEL      170
REMARK 921   NORMALIZED FREE ENERGY PREDICTED BY IDOCK:   -2.59 KCAL/MOL
REMARK 922        TOTAL FREE ENERGY PREDICTED BY IDOCK:   -5.25 KCAL/MOL
REMARK 923 INTER-LIGAND FREE ENERGY PREDICTED BY IDOCK:   -4.49 KCAL/MOL
REMARK 924 INTRA-LIGAND FREE ENERGY PREDICTED BY IDOCK:   -0.76 KCAL/MOL
REMARK 927      BINDING AFFINITY PREDICTED BY RF-SCORE:    0.00 PKD
ROOT
HETATM    1  C   UNL     1      -9.090  17.656  67.288  1.00  0.00    -0.237 C  
HETATM    2  C   UNL     1      -8.134  18.867  67.249  1.00  0.00    -0.277 C  
HETATM    3  C   UNL     1      -7.069  18.538  68.296  1.00  0.00    -0.270 C  
HETATM    4  C   UNL     1      -7.501  17.173  68.871  1.00  0.00    -0.241 C  
HETATM    5  C   UNL     1      -6.897  15.935  68.126  1.00  0.00    -0.129 C  
HETATM    6  N   UNL     1      -8.951  17.305  68.699  1.00  0.00    -0.274 NA 
HETATM    7  C   UNL     1      -9.773  16.215  69.153  1.00  0.00    -0.248 C  
HETATM    8  C   UNL     1      -7.698  15.401  66.903  1.00  0.00    -0.124 C  
HETATM    9  C   UNL     1      -8.720  16.463  66.347  1.00  0.00    -0.355 C  
ENDROOT
BRANCH   8  10
HETATM   10  S   UNL     1      -8.060  13.319  66.620  1.00  0.00     0.626 SA 
BRANCH  10  11
HETATM   11  C   UNL     1      -8.057  12.346  68.228  1.00  0.00    -0.166 C  
BRANCH  11  12
HETATM   12  C   UNL     1      -9.290  11.446  68.905  1.00  0.00    -0.032 C  
HETATM   13  O   UNL     1     -10.432  11.870  68.679  1.00  0.00    -0.211 OA 
BRANCH  12  14
HETATM   14  O   UNL     1      -9.176  10.316  69.709  1.00  0.00    -0.180 OA 
BRANCH  14  15
HETATM   15  C   UNL     1      -8.314   9.009  69.301  1.00  0.00    -0.122 C  
HETATM   16  C   UNL     1      -8.799   8.925  67.762  1.00  0.00    -0.136 C  
HETATM   17  C   UNL     1      -8.128   7.972  66.739  1.00  0.00    -0.107 C  
HETATM   18  C   UNL     1      -6.257   5.066  69.192  1.00  0.00    -0.030 C  
HETATM   19  C   UNL     1      -8.380   8.229  65.232  1.00  0.00    -0.175 C  
HETATM   20  C   UNL     1      -8.819   6.598  67.004  1.00  0.00    -0.114 C  
HETATM   21  O   UNL     1      -9.877   6.216  66.128  1.00  0.00    -0.355 OA 
HETATM   22  C   UNL     1      -7.825   5.491  67.240  1.00  0.00    -0.101 C  
HETATM   23  C   UNL     1      -5.600   6.295  69.865  1.00  0.00    -0.014 C  
HETATM   24  C   UNL     1      -7.760   5.137  68.786  1.00  0.00    -0.078 C  
HETATM   25  C   UNL     1      -7.992   4.306  66.254  1.00  0.00    -0.098 C  
HETATM   26  H   UNL     1     -10.298   5.380  66.290  1.00  0.00     0.000 HD 
HETATM   27  C   UNL     1      -8.465   3.751  68.924  1.00  0.00    -0.101 C  
HETATM   28  C   UNL     1      -8.735   3.528  70.378  1.00  0.00    -0.127 C  
HETATM   29  C   UNL     1      -8.971   4.931  70.863  1.00  0.00    -0.132 C  
HETATM   30  C   UNL     1      -8.586   6.046  69.819  1.00  0.00    -0.130 C  
HETATM   31  O   UNL     1      -9.553   5.106  71.907  1.00  0.00    -0.144 OA 
HETATM   32  C   UNL     1      -8.024   7.506  70.336  1.00  0.00    -0.102 C  
HETATM   33  C   UNL     1      -8.534   7.644  71.829  1.00  0.00    -0.124 C  
HETATM   34  C   UNL     1      -6.458   7.310  70.651  1.00  0.00    -0.043 C  
HETATM   35  C   UNL     1      -5.780   8.658  70.998  1.00  0.00    -0.035 C  
BRANCH  17  36
HETATM   36  C   UNL     1      -6.623   8.142  66.987  1.00  0.00    -0.058 C  
HETATM   37  C   UNL     1      -5.691   8.664  66.177  1.00  0.00    -0.046 C  
ENDBRANCH  17  36
ENDBRANCH  14  15
ENDBRANCH  12  14
ENDBRANCH  11  12
ENDBRANCH  10  11
ENDBRANCH   8  10
TORSDOF 6
ENDMDL
MODEL      171
REMARK 921   NORMALIZED FREE ENERGY PREDICTED BY IDOCK:   -2.58 KCAL/MOL
REMARK 922        TOTAL FREE ENERGY PREDICTED BY IDOCK:   -5.24 KCAL/MOL
REMARK 923 INTER-LIGAND FREE ENERGY PREDICTED BY IDOCK:   -4.87 KCAL/MOL
REMARK 924 INTRA-LIGAND FREE ENERGY PREDICTED BY IDOCK:   -0.37 KCAL/MOL
REMARK 927      BINDING AFFINITY PREDICTED BY RF-SCORE:    0.00 PKD
ROOT
HETATM    1  C   UNL     1      -8.520  10.510  63.699  1.00  0.00    -0.133 C  
HETATM    2  C   UNL     1      -8.954   9.599  62.532  1.00  0.00    -0.280 C  
HETATM    3  C   UNL     1      -8.516   8.200  62.964  1.00  0.00     0.046 C  
HETATM    4  C   UNL     1      -7.847   8.412  64.338  1.00  0.00    -0.141 C  
HETATM    5  C   UNL     1      -8.820   8.291  65.559  1.00  0.00    -0.152 C  
HETATM    6  N   UNL     1      -7.337   9.772  64.132  1.00  0.00    -0.123 NA 
HETATM    7  C   UNL     1      -6.590  10.368  65.208  1.00  0.00    -0.100 C  
HETATM    8  C   UNL     1      -9.560   9.591  65.989  1.00  0.00    -0.251 C  
HETATM    9  C   UNL     1      -9.560  10.683  64.854  1.00  0.00    -0.323 C  
ENDROOT
BRANCH   8  10
HETATM   10  S   UNL     1      -9.707  10.175  68.034  1.00  0.00    -0.144 SA 
BRANCH  10  11
HETATM   11  C   UNL     1     -11.392  10.881  68.478  1.00  0.00    -0.299 C  
BRANCH  11  12
HETATM   12  C   UNL     1     -11.752  12.342  69.202  1.00  0.00    -0.322 C  
HETATM   13  O   UNL     1     -12.160  12.262  70.370  1.00  0.00    -0.355 OA 
BRANCH  12  14
HETATM   14  O   UNL     1     -11.681  13.612  68.638  1.00  0.00    -0.308 OA 
BRANCH  14  15
HETATM   15  C   UNL     1     -10.299  14.304  68.162  1.00  0.00    -0.233 C  
HETATM   16  C   UNL     1      -9.315  13.473  69.137  1.00  0.00     0.487 C  
HETATM   17  C   UNL     1      -7.772  13.530  68.992  1.00  0.00     0.118 C  
HETATM   18  C   UNL     1      -7.122  17.134  66.859  1.00  0.00    -0.244 C  
HETATM   19  C   UNL     1      -6.935  12.428  69.689  1.00  0.00     0.246 C  
HETATM   20  C   UNL     1      -7.376  14.835  69.749  1.00  0.00    -0.063 C  
HETATM   21  O   UNL     1      -6.889  14.699  71.082  1.00  0.00     0.005 OA 
HETATM   22  C   UNL     1      -6.529  15.754  68.906  1.00  0.00    -0.116 C  
HETATM   23  C   UNL     1      -8.115  16.520  65.843  1.00  0.00     0.201 C  
HETATM   24  C   UNL     1      -7.400  16.973  68.383  1.00  0.00    -0.213 C  
HETATM   25  C   UNL     1      -5.166  16.094  69.563  1.00  0.00    -0.115 C  
HETATM   26  H   UNL     1      -6.648  15.494  71.542  1.00  0.00     0.000 HD 
HETATM   27  C   UNL     1      -6.911  18.211  69.198  1.00  0.00    -0.240 C  
HETATM   28  C   UNL     1      -7.913  19.304  68.999  1.00  0.00    -0.299 C  
HETATM   29  C   UNL     1      -9.190  18.523  68.852  1.00  0.00    -0.191 C  
HETATM   30  C   UNL     1      -8.979  16.971  68.677  1.00  0.00    -0.267 C  
HETATM   31  O   UNL     1     -10.247  19.082  69.021  1.00  0.00    -0.353 OA 
HETATM   32  C   UNL     1     -10.032  16.090  67.768  1.00  0.00    -0.234 C  
HETATM   33  C   UNL     1     -11.364  16.946  67.726  1.00  0.00     0.153 C  
HETATM   34  C   UNL     1      -9.591  16.287  66.232  1.00  0.00    -0.336 C  
HETATM   35  C   UNL     1     -10.415  15.379  65.288  1.00  0.00    -0.440 C  
BRANCH  17  36
HETATM   36  C   UNL     1      -7.524  13.404  67.482  1.00  0.00    -0.170 C  
HETATM   37  C   UNL     1      -6.661  12.609  66.834  1.00  0.00     0.326 C  
ENDBRANCH  17  36
ENDBRANCH  14  15
ENDBRANCH  12  14
ENDBRANCH  11  12
ENDBRANCH  10  11
ENDBRANCH   8  10
TORSDOF 6
ENDMDL
MODEL      172
REMARK 921   NORMALIZED FREE ENERGY PREDICTED BY IDOCK:   -2.55 KCAL/MOL
REMARK 922        TOTAL FREE ENERGY PREDICTED BY IDOCK:   -5.20 KCAL/MOL
REMARK 923 INTER-LIGAND FREE ENERGY PREDICTED BY IDOCK:   -4.24 KCAL/MOL
REMARK 924 INTRA-LIGAND FREE ENERGY PREDICTED BY IDOCK:   -0.96 KCAL/MOL
REMARK 927      BINDING AFFINITY PREDICTED BY RF-SCORE:    0.00 PKD
ROOT
HETATM    1  C   UNL     1      -8.873   2.971  72.806  1.00  0.00    -0.083 C  
HETATM    2  C   UNL     1      -8.286   2.875  74.230  1.00  0.00    -0.069 C  
HETATM    3  C   UNL     1      -6.773   2.847  74.011  1.00  0.00    -0.031 C  
HETATM    4  C   UNL     1      -6.603   2.910  72.478  1.00  0.00    -0.018 C  
HETATM    5  C   UNL     1      -6.482   4.360  71.899  1.00  0.00    -0.022 C  
HETATM    6  N   UNL     1      -7.841   2.229  72.087  1.00  0.00    -0.051 NA 
HETATM    7  C   UNL     1      -8.077   2.041  70.679  1.00  0.00    -0.041 C  
HETATM    8  C   UNL     1      -7.814   5.079  71.538  1.00  0.00    -0.110 C  
HETATM    9  C   UNL     1      -9.059   4.417  72.240  1.00  0.00    -0.147 C  
ENDROOT
BRANCH   8  10
HETATM   10  S   UNL     1      -8.059   6.139  69.705  1.00  0.00    -0.113 SA 
BRANCH  10  11
HETATM   11  C   UNL     1      -9.847   6.601  69.355  1.00  0.00    -0.151 C  
BRANCH  11  12
HETATM   12  C   UNL     1     -10.470   8.080  68.894  1.00  0.00    -0.191 C  
HETATM   13  O   UNL     1     -11.167   8.645  69.750  1.00  0.00    -0.139 OA 
BRANCH  12  14
HETATM   14  O   UNL     1     -10.326   8.719  67.667  1.00  0.00    -0.226 OA 
BRANCH  14  15
HETATM   15  C   UNL     1      -9.555  10.128  67.475  1.00  0.00    -0.156 C  
HETATM   16  C   UNL     1      -8.213   9.730  68.281  1.00  0.00    -0.105 C  
HETATM   17  C   UNL     1      -6.946  10.625  68.262  1.00  0.00    -0.072 C  
HETATM   18  C   UNL     1      -8.450  14.425  67.139  1.00  0.00    -0.229 C  
HETATM   19  C   UNL     1      -5.606   9.998  68.721  1.00  0.00    -0.035 C  
HETATM   20  C   UNL     1      -7.243  11.709  69.345  1.00  0.00     0.039 C  
HETATM   21  O   UNL     1      -6.660  11.526  70.633  1.00  0.00    -0.483 OA 
HETATM   22  C   UNL     1      -7.071  13.110  68.817  1.00  0.00    -0.098 C  
HETATM   23  C   UNL     1      -9.043  13.653  65.936  1.00  0.00     0.324 C  
HETATM   24  C   UNL     1      -8.489  13.771  68.553  1.00  0.00    -0.117 C  
HETATM   25  C   UNL     1      -6.047  13.943  69.631  1.00  0.00    -0.119 C  
HETATM   26  H   UNL     1      -6.841  12.186  71.291  1.00  0.00     0.000 HD 
HETATM   27  C   UNL     1      -8.667  14.836  69.681  1.00  0.00     0.203 C  
HETATM   28  C   UNL     1     -10.105  15.245  69.689  1.00  0.00    -0.246 C  
HETATM   29  C   UNL     1     -10.787  13.973  69.265  1.00  0.00    -0.160 C  
HETATM   30  C   UNL     1      -9.804  12.866  68.726  1.00  0.00     0.023 C  
HETATM   31  O   UNL     1     -11.964  13.829  69.493  1.00  0.00    -0.307 OA 
HETATM   32  C   UNL     1     -10.299  11.818  67.555  1.00  0.00    -0.217 C  
HETATM   33  C   UNL     1     -11.881  11.823  67.635  1.00  0.00    -0.241 C  
HETATM   34  C   UNL     1     -10.143  12.590  66.152  1.00  0.00    -0.265 C  
HETATM   35  C   UNL     1     -10.431  11.650  64.956  1.00  0.00    -0.336 C  
BRANCH  17  36
HETATM   36  C   UNL     1      -6.782  11.026  66.789  1.00  0.00    -0.128 C  
HETATM   37  C   UNL     1      -5.655  11.177  66.079  1.00  0.00    -0.116 C  
ENDBRANCH  17  36
ENDBRANCH  14  15
ENDBRANCH  12  14
ENDBRANCH  11  12
ENDBRANCH  10  11
ENDBRANCH   8  10
TORSDOF 6
ENDMDL
MODEL      173
REMARK 921   NORMALIZED FREE ENERGY PREDICTED BY IDOCK:   -2.33 KCAL/MOL
REMARK 922        TOTAL FREE ENERGY PREDICTED BY IDOCK:   -4.90 KCAL/MOL
REMARK 923 INTER-LIGAND FREE ENERGY PREDICTED BY IDOCK:   -4.56 KCAL/MOL
REMARK 924 INTRA-LIGAND FREE ENERGY PREDICTED BY IDOCK:   -0.35 KCAL/MOL
REMARK 927      BINDING AFFINITY PREDICTED BY RF-SCORE:    0.00 PKD
ROOT
HETATM    1  C   UNL     1     -12.133  14.464  69.841  1.00  0.00    -0.344 C  
HETATM    2  C   UNL     1     -10.813  15.194  70.164  1.00  0.00    -0.265 C  
HETATM    3  C   UNL     1     -10.927  15.533  71.651  1.00  0.00    -0.104 C  
HETATM    4  C   UNL     1     -12.309  14.989  72.067  1.00  0.00    -0.347 C  
HETATM    5  C   UNL     1     -12.296  13.512  72.586  1.00  0.00     0.507 C  
HETATM    6  N   UNL     1     -13.008  15.150  70.788  1.00  0.00    -0.411 NA 
HETATM    7  C   UNL     1     -14.396  14.771  70.740  1.00  0.00     0.422 C  
HETATM    8  C   UNL     1     -12.448  12.396  71.513  1.00  0.00    -0.018 C  
HETATM    9  C   UNL     1     -12.129  12.915  70.061  1.00  0.00    -0.357 C  
ENDROOT
BRANCH   8  10
HETATM   10  S   UNL     1     -13.765  10.742  71.792  1.00  0.00     0.323 SA 
BRANCH  10  11
HETATM   11  C   UNL     1     -12.873   9.172  72.315  1.00  0.00    -0.401 C  
BRANCH  11  12
HETATM   12  C   UNL     1     -11.702   8.314  71.491  1.00  0.00    -0.292 C  
HETATM   13  O   UNL     1     -12.130   7.565  70.601  1.00  0.00    -0.212 OA 
BRANCH  12  14
HETATM   14  O   UNL     1     -10.328   8.319  71.714  1.00  0.00    -0.218 OA 
BRANCH  14  15
HETATM   15  C   UNL     1      -9.386   7.017  71.536  1.00  0.00    -0.154 C  
HETATM   16  C   UNL     1      -9.438   6.955  69.922  1.00  0.00    -0.156 C  
HETATM   17  C   UNL     1      -8.514   6.014  69.105  1.00  0.00    -0.114 C  
HETATM   18  C   UNL     1      -7.369   3.071  71.932  1.00  0.00    -0.044 C  
HETATM   19  C   UNL     1      -8.350   6.292  67.590  1.00  0.00    -0.117 C  
HETATM   20  C   UNL     1      -9.249   4.638  69.155  1.00  0.00    -0.128 C  
HETATM   21  O   UNL     1     -10.031   4.270  68.021  1.00  0.00    -0.091 OA 
HETATM   22  C   UNL     1      -8.353   3.526  69.636  1.00  0.00    -0.079 C  
HETATM   23  C   UNL     1      -6.921   4.289  72.774  1.00  0.00    -0.061 C  
HETATM   24  C   UNL     1      -8.707   3.150  71.136  1.00  0.00    -0.123 C  
HETATM   25  C   UNL     1      -8.246   2.355  68.624  1.00  0.00    -0.074 C  
HETATM   26  H   UNL     1     -10.478   3.433  68.052  1.00  0.00     0.000 HD 
HETATM   27  C   UNL     1      -9.421   1.764  71.060  1.00  0.00    -0.203 C  
HETATM   28  C   UNL     1     -10.072   1.522  72.384  1.00  0.00    -0.203 C  
HETATM   29  C   UNL     1     -10.433   2.919  72.807  1.00  0.00    -0.128 C  
HETATM   30  C   UNL     1      -9.783   4.047  71.920  1.00  0.00    -0.236 C  
HETATM   31  O   UNL     1     -11.276   3.080  73.658  1.00  0.00    -0.224 OA 
HETATM   32  C   UNL     1      -9.383   5.499  72.590  1.00  0.00    -0.150 C  
HETATM   33  C   UNL     1     -10.278   5.617  73.892  1.00  0.00    -0.259 C  
HETATM   34  C   UNL     1      -7.960   5.295  73.313  1.00  0.00    -0.108 C  
HETATM   35  C   UNL     1      -7.403   6.637  73.848  1.00  0.00    -0.083 C  
BRANCH  17  36
HETATM   36  C   UNL     1      -7.132   6.178  69.752  1.00  0.00    -0.072 C  
HETATM   37  C   UNL     1      -6.139   7.013  69.415  1.00  0.00    -0.033 C  
ENDBRANCH  17  36
ENDBRANCH  14  15
ENDBRANCH  12  14
ENDBRANCH  11  12
ENDBRANCH  10  11
ENDBRANCH   8  10
TORSDOF 6
ENDMDL
MODEL      174
REMARK 921   NORMALIZED FREE ENERGY PREDICTED BY IDOCK:   -2.20 KCAL/MOL
REMARK 922        TOTAL FREE ENERGY PREDICTED BY IDOCK:   -4.72 KCAL/MOL
REMARK 923 INTER-LIGAND FREE ENERGY PREDICTED BY IDOCK:   -3.79 KCAL/MOL
REMARK 924 INTRA-LIGAND FREE ENERGY PREDICTED BY IDOCK:   -0.93 KCAL/MOL
REMARK 927      BINDING AFFINITY PREDICTED BY RF-SCORE:    0.00 PKD
ROOT
HETATM    1  C   UNL     1      -7.631   4.596  70.142  1.00  0.00    -0.054 C  
HETATM    2  C   UNL     1      -7.970   3.157  69.704  1.00  0.00    -0.058 C  
HETATM    3  C   UNL     1      -9.487   3.061  69.871  1.00  0.00    -0.189 C  
HETATM    4  C   UNL     1      -9.905   4.445  70.409  1.00  0.00    -0.216 C  
HETATM    5  C   UNL     1     -10.270   5.489  69.300  1.00  0.00    -0.315 C  
HETATM    6  N   UNL     1      -8.680   4.780  71.142  1.00  0.00    -0.116 NA 
HETATM    7  C   UNL     1      -8.653   6.034  71.848  1.00  0.00    -0.137 C  
HETATM    8  C   UNL     1      -9.097   6.335  68.727  1.00  0.00    -0.127 C  
HETATM    9  C   UNL     1      -7.692   5.685  69.020  1.00  0.00    -0.089 C  
ENDROOT
BRANCH   8  10
HETATM   10  S   UNL     1      -9.262   8.441  68.447  1.00  0.00    -0.134 SA 
BRANCH  10  11
HETATM   11  C   UNL     1      -8.443   9.433  69.818  1.00  0.00    -0.165 C  
BRANCH  11  12
HETATM   12  C   UNL     1      -7.617  10.880  69.709  1.00  0.00     0.117 C  
HETATM   13  O   UNL     1      -6.934  11.170  70.701  1.00  0.00     0.118 OA 
BRANCH  12  14
HETATM   14  O   UNL     1      -7.639  11.795  68.660  1.00  0.00    -0.121 OA 
BRANCH  14  15
HETATM   15  C   UNL     1      -8.927  12.698  68.285  1.00  0.00    -0.176 C  
HETATM   16  C   UNL     1      -9.317  11.928  66.920  1.00  0.00    -0.198 C  
HETATM   17  C   UNL     1     -10.651  12.198  66.176  1.00  0.00    -0.290 C  
HETATM   18  C   UNL     1     -11.814  16.014  67.607  1.00  0.00     0.391 C  
HETATM   19  C   UNL     1     -11.117  11.164  65.121  1.00  0.00    -0.079 C  
HETATM   20  C   UNL     1     -10.355  13.480  65.337  1.00  0.00    -0.319 C  
HETATM   21  O   UNL     1     -10.034  13.303  63.959  1.00  0.00    -0.762 OA 
HETATM   22  C   UNL     1     -11.374  14.566  65.568  1.00  0.00    -0.335 C  
HETATM   23  C   UNL     1     -11.659  15.358  68.999  1.00  0.00    -0.361 C  
HETATM   24  C   UNL     1     -10.765  15.697  66.499  1.00  0.00    -0.293 C  
HETATM   25  C   UNL     1     -12.072  15.029  64.263  1.00  0.00    -0.323 C  
HETATM   26  H   UNL     1      -9.854  14.084  63.449  1.00  0.00     0.000 HD 
HETATM   27  C   UNL     1     -10.524  16.921  65.559  1.00  0.00    -0.220 C  
HETATM   28  C   UNL     1      -9.647  17.885  66.295  1.00  0.00    -0.252 C  
HETATM   29  C   UNL     1      -8.804  16.957  67.126  1.00  0.00    -0.206 C  
HETATM   30  C   UNL     1      -9.312  15.466  67.140  1.00  0.00    -0.225 C  
HETATM   31  O   UNL     1      -7.760  17.357  67.582  1.00  0.00    -0.188 OA 
HETATM   32  C   UNL     1      -9.090  14.529  68.477  1.00  0.00    -0.190 C  
HETATM   33  C   UNL     1      -7.892  15.203  69.264  1.00  0.00    -0.206 C  
HETATM   34  C   UNL     1     -10.272  14.904  69.502  1.00  0.00    -0.143 C  
HETATM   35  C   UNL     1     -10.262  13.972  70.739  1.00  0.00     2.643 C  
BRANCH  17  36
HETATM   36  C   UNL     1     -11.710  12.227  67.287  1.00  0.00    -0.394 C  
HETATM   37  C   UNL     1     -12.018  11.275  68.180  1.00  0.00    -0.182 C  
ENDBRANCH  17  36
ENDBRANCH  14  15
ENDBRANCH  12  14
ENDBRANCH  11  12
ENDBRANCH  10  11
ENDBRANCH   8  10
TORSDOF 6
ENDMDL
MODEL      175
REMARK 921   NORMALIZED FREE ENERGY PREDICTED BY IDOCK:   -2.12 KCAL/MOL
REMARK 922        TOTAL FREE ENERGY PREDICTED BY IDOCK:   -4.61 KCAL/MOL
REMARK 923 INTER-LIGAND FREE ENERGY PREDICTED BY IDOCK:   -3.63 KCAL/MOL
REMARK 924 INTRA-LIGAND FREE ENERGY PREDICTED BY IDOCK:   -0.99 KCAL/MOL
REMARK 927      BINDING AFFINITY PREDICTED BY RF-SCORE:    0.00 PKD
ROOT
HETATM    1  C   UNL     1     -12.408  14.750  69.390  1.00  0.00    -0.149 C  
HETATM    2  C   UNL     1     -11.005  15.384  69.290  1.00  0.00    -0.261 C  
HETATM    3  C   UNL     1     -10.667  15.773  70.729  1.00  0.00    -0.124 C  
HETATM    4  C   UNL     1     -11.905  15.350  71.546  1.00  0.00    -0.387 C  
HETATM    5  C   UNL     1     -11.842  13.892  72.112  1.00  0.00     0.860 C  
HETATM    6  N   UNL     1     -12.929  15.528  70.510  1.00  0.00    -0.382 NA 
HETATM    7  C   UNL     1     -14.294  15.257  70.876  1.00  0.00     0.050 C  
HETATM    8  C   UNL     1     -12.368  12.761  71.182  1.00  0.00    -0.149 C  
HETATM    9  C   UNL     1     -12.444  13.212  69.675  1.00  0.00     0.017 C  
ENDROOT
BRANCH   8  10
HETATM   10  S   UNL     1     -13.656  11.222  71.903  1.00  0.00     0.198 SA 
BRANCH  10  11
HETATM   11  C   UNL     1     -12.765   9.594  72.198  1.00  0.00    -0.344 C  
BRANCH  11  12
HETATM   12  C   UNL     1     -11.307   9.074  71.571  1.00  0.00    -0.346 C  
HETATM   13  O   UNL     1     -10.828   8.072  72.120  1.00  0.00    -0.239 OA 
BRANCH  12  14
HETATM   14  O   UNL     1     -10.569   9.652  70.542  1.00  0.00    -0.262 OA 
BRANCH  14  15
HETATM   15  C   UNL     1      -9.390   8.884  69.744  1.00  0.00    -0.166 C  
HETATM   16  C   UNL     1     -10.333   7.821  68.975  1.00  0.00    -0.219 C  
HETATM   17  C   UNL     1      -9.792   6.912  67.841  1.00  0.00    -0.155 C  
HETATM   18  C   UNL     1      -5.609   6.886  68.519  1.00  0.00    -0.017 C  
HETATM   19  C   UNL     1     -10.820   6.221  66.910  1.00  0.00    -0.428 C  
HETATM   20  C   UNL     1      -9.122   5.726  68.603  1.00  0.00    -0.114 C  
HETATM   21  O   UNL     1      -9.872   4.520  68.728  1.00  0.00    -0.163 OA 
HETATM   22  C   UNL     1      -7.700   5.491  68.164  1.00  0.00    -0.085 C  
HETATM   23  C   UNL     1      -5.756   8.425  68.467  1.00  0.00    -0.037 C  
HETATM   24  C   UNL     1      -6.693   6.045  69.258  1.00  0.00    -0.060 C  
HETATM   25  C   UNL     1      -7.456   4.049  67.650  1.00  0.00    -0.068 C  
HETATM   26  H   UNL     1      -9.464   3.799  69.192  1.00  0.00     0.000 HD 
HETATM   27  C   UNL     1      -6.083   4.780  69.939  1.00  0.00    -0.022 C  
HETATM   28  C   UNL     1      -5.396   5.231  71.189  1.00  0.00    -0.005 C  
HETATM   29  C   UNL     1      -6.253   6.395  71.605  1.00  0.00    -0.042 C  
HETATM   30  C   UNL     1      -7.287   6.856  70.509  1.00  0.00    -0.077 C  
HETATM   31  O   UNL     1      -6.205   6.785  72.747  1.00  0.00    -0.052 OA 
HETATM   32  C   UNL     1      -7.718   8.442  70.394  1.00  0.00    -0.078 C  
HETATM   33  C   UNL     1      -7.392   9.066  71.813  1.00  0.00     0.057 C  
HETATM   34  C   UNL     1      -6.556   9.174  69.555  1.00  0.00    -0.043 C  
HETATM   35  C   UNL     1      -6.926  10.645  69.245  1.00  0.00    -0.096 C  
BRANCH  17  36
HETATM   36  C   UNL     1      -8.945   7.850  66.969  1.00  0.00    -0.145 C  
HETATM   37  C   UNL     1      -9.046   8.098  65.656  1.00  0.00    -0.092 C  
ENDBRANCH  17  36
ENDBRANCH  14  15
ENDBRANCH  12  14
ENDBRANCH  11  12
ENDBRANCH  10  11
ENDBRANCH   8  10
TORSDOF 6
ENDMDL
MODEL      176
REMARK 921   NORMALIZED FREE ENERGY PREDICTED BY IDOCK:   -2.04 KCAL/MOL
REMARK 922        TOTAL FREE ENERGY PREDICTED BY IDOCK:   -4.50 KCAL/MOL
REMARK 923 INTER-LIGAND FREE ENERGY PREDICTED BY IDOCK:   -4.49 KCAL/MOL
REMARK 924 INTRA-LIGAND FREE ENERGY PREDICTED BY IDOCK:   -0.01 KCAL/MOL
REMARK 927      BINDING AFFINITY PREDICTED BY RF-SCORE:    0.00 PKD
ROOT
HETATM    1  C   UNL     1     -10.344   6.141  72.927  1.00  0.00    -0.198 C  
HETATM    2  C   UNL     1     -10.125   4.882  73.791  1.00  0.00    -0.212 C  
HETATM    3  C   UNL     1      -9.823   3.779  72.776  1.00  0.00    -0.202 C  
HETATM    4  C   UNL     1      -9.908   4.480  71.405  1.00  0.00    -0.194 C  
HETATM    5  C   UNL     1      -8.553   5.076  70.895  1.00  0.00    -0.129 C  
HETATM    6  N   UNL     1     -10.905   5.504  71.738  1.00  0.00    -0.235 NA 
HETATM    7  C   UNL     1     -11.312   6.397  70.686  1.00  0.00    -0.357 C  
HETATM    8  C   UNL     1      -8.217   6.527  71.346  1.00  0.00    -0.120 C  
HETATM    9  C   UNL     1      -9.063   6.975  72.597  1.00  0.00    -0.153 C  
ENDROOT
BRANCH   8  10
HETATM   10  S   UNL     1      -7.476   7.985  69.979  1.00  0.00    -0.075 SA 
BRANCH  10  11
HETATM   11  C   UNL     1      -7.670   7.474  68.180  1.00  0.00    -0.120 C  
BRANCH  11  12
HETATM   12  C   UNL     1      -7.462   8.398  66.805  1.00  0.00    -0.083 C  
HETATM   13  O   UNL     1      -6.285   8.541  66.444  1.00  0.00    -0.055 OA 
BRANCH  12  14
HETATM   14  O   UNL     1      -8.442   9.040  66.055  1.00  0.00    -0.120 OA 
BRANCH  14  15
HETATM   15  C   UNL     1      -9.147  10.426  66.501  1.00  0.00    -0.155 C  
HETATM   16  C   UNL     1      -9.873  10.741  65.092  1.00  0.00    -0.333 C  
HETATM   17  C   UNL     1     -10.924  11.871  64.943  1.00  0.00    -0.367 C  
HETATM   18  C   UNL     1     -10.107  14.408  68.238  1.00  0.00    -0.239 C  
HETATM   19  C   UNL     1     -11.840  11.852  63.694  1.00  0.00    -0.573 C  
HETATM   20  C   UNL     1     -10.061  13.158  64.755  1.00  0.00    -0.223 C  
HETATM   21  O   UNL     1      -9.880  13.637  63.424  1.00  0.00     0.841 OA 
HETATM   22  C   UNL     1     -10.436  14.248  65.725  1.00  0.00    -0.326 C  
HETATM   23  C   UNL     1     -10.268  13.112  69.066  1.00  0.00     0.086 C  
HETATM   24  C   UNL     1      -9.349  14.349  66.877  1.00  0.00    -0.269 C  
HETATM   25  C   UNL     1     -10.842  15.570  65.024  1.00  0.00    -0.468 C  
HETATM   26  H   UNL     1      -9.355  14.419  63.310  1.00  0.00     0.000 HD 
HETATM   27  C   UNL     1      -8.564  15.668  66.591  1.00  0.00    -0.330 C  
HETATM   28  C   UNL     1      -7.325  15.642  67.429  1.00  0.00    -0.235 C  
HETATM   29  C   UNL     1      -7.018  14.171  67.475  1.00  0.00    -0.152 C  
HETATM   30  C   UNL     1      -8.176  13.254  66.926  1.00  0.00     0.031 C  
HETATM   31  O   UNL     1      -5.904  13.809  67.771  1.00  0.00    -0.182 OA 
HETATM   32  C   UNL     1      -8.413  11.752  67.559  1.00  0.00    -0.154 C  
HETATM   33  C   UNL     1      -7.029  11.356  68.221  1.00  0.00    -0.072 C  
HETATM   34  C   UNL     1      -9.261  11.952  68.912  1.00  0.00     0.135 C  
HETATM   35  C   UNL     1      -9.682  10.592  69.519  1.00  0.00    -0.147 C  
BRANCH  17  36
HETATM   36  C   UNL     1     -11.828  11.718  66.174  1.00  0.00     0.033 C  
HETATM   37  C   UNL     1     -12.647  12.620  66.734  1.00  0.00     0.859 C  
ENDBRANCH  17  36
ENDBRANCH  14  15
ENDBRANCH  12  14
ENDBRANCH  11  12
ENDBRANCH  10  11
ENDBRANCH   8  10
TORSDOF 6
ENDMDL
MODEL      177
REMARK 921   NORMALIZED FREE ENERGY PREDICTED BY IDOCK:   -1.94 KCAL/MOL
REMARK 922        TOTAL FREE ENERGY PREDICTED BY IDOCK:   -4.37 KCAL/MOL
REMARK 923 INTER-LIGAND FREE ENERGY PREDICTED BY IDOCK:   -3.71 KCAL/MOL
REMARK 924 INTRA-LIGAND FREE ENERGY PREDICTED BY IDOCK:   -0.66 KCAL/MOL
REMARK 927      BINDING AFFINITY PREDICTED BY RF-SCORE:    0.00 PKD
ROOT
HETATM    1  C   UNL     1     -10.842   7.952  72.402  1.00  0.00    -0.317 C  
HETATM    2  C   UNL     1     -11.234   6.473  72.598  1.00  0.00    -0.284 C  
HETATM    3  C   UNL     1     -10.934   5.824  71.246  1.00  0.00    -0.299 C  
HETATM    4  C   UNL     1     -10.409   6.980  70.370  1.00  0.00    -0.202 C  
HETATM    5  C   UNL     1      -8.857   7.179  70.420  1.00  0.00    -0.151 C  
HETATM    6  N   UNL     1     -11.157   8.083  70.982  1.00  0.00    -0.249 NA 
HETATM    7  C   UNL     1     -10.975   9.396  70.422  1.00  0.00    -0.266 C  
HETATM    8  C   UNL     1      -8.310   8.105  71.544  1.00  0.00    -0.126 C  
HETATM    9  C   UNL     1      -9.351   8.311  72.708  1.00  0.00    -0.338 C  
ENDROOT
BRANCH   8  10
HETATM   10  S   UNL     1      -6.833   9.592  71.156  1.00  0.00     0.185 SA 
BRANCH  10  11
HETATM   11  C   UNL     1      -6.763  10.106  69.349  1.00  0.00    -0.065 C  
BRANCH  11  12
HETATM   12  C   UNL     1      -7.737  11.191  68.535  1.00  0.00    -0.129 C  
HETATM   13  O   UNL     1      -7.130  12.042  67.869  1.00  0.00    -0.082 OA 
BRANCH  12  14
HETATM   14  O   UNL     1      -9.126  11.265  68.550  1.00  0.00    -0.168 OA 
BRANCH  14  15
HETATM   15  C   UNL     1      -9.959  12.579  68.110  1.00  0.00    -0.224 C  
HETATM   16  C   UNL     1     -10.192  12.158  66.568  1.00  0.00    -0.230 C  
HETATM   17  C   UNL     1     -11.156  12.942  65.638  1.00  0.00    -0.307 C  
HETATM   18  C   UNL     1     -11.494  16.716  67.537  1.00  0.00     0.332 C  
HETATM   19  C   UNL     1     -11.615  12.259  64.326  1.00  0.00    -0.442 C  
HETATM   20  C   UNL     1     -10.299  14.151  65.151  1.00  0.00    -0.405 C  
HETATM   21  O   UNL     1      -9.703  14.054  63.859  1.00  0.00     0.105 OA 
HETATM   22  C   UNL     1     -10.986  15.472  65.382  1.00  0.00    -0.365 C  
HETATM   23  C   UNL     1     -11.895  15.875  68.772  1.00  0.00    -0.277 C  
HETATM   24  C   UNL     1     -10.334  16.215  66.624  1.00  0.00    -0.297 C  
HETATM   25  C   UNL     1     -11.163  16.299  64.082  1.00  0.00     0.264 C  
HETATM   26  H   UNL     1      -9.181  14.790  63.563  1.00  0.00     0.000 HD 
HETATM   27  C   UNL     1      -9.519  17.401  66.017  1.00  0.00    -0.122 C  
HETATM   28  C   UNL     1      -8.620  17.923  67.092  1.00  0.00    -0.242 C  
HETATM   29  C   UNL     1      -8.321  16.674  67.874  1.00  0.00    -0.185 C  
HETATM   30  C   UNL     1      -9.224  15.442  67.487  1.00  0.00    -0.201 C  
HETATM   31  O   UNL     1      -7.359  16.649  68.603  1.00  0.00    -0.179 OA 
HETATM   32  C   UNL     1      -9.630  14.323  68.626  1.00  0.00    -0.192 C  
HETATM   33  C   UNL     1      -8.531  14.464  69.758  1.00  0.00     0.666 C  
HETATM   34  C   UNL     1     -10.875  14.932  69.445  1.00  0.00    -0.274 C  
HETATM   35  C   UNL     1     -11.449  13.901  70.446  1.00  0.00    -0.067 C  
BRANCH  17  36
HETATM   36  C   UNL     1     -12.409  13.175  66.494  1.00  0.00    -0.252 C  
HETATM   37  C   UNL     1     -13.526  13.849  66.184  1.00  0.00     1.676 C  
ENDBRANCH  17  36
ENDBRANCH  14  15
ENDBRANCH  12  14
ENDBRANCH  11  12
ENDBRANCH  10  11
ENDBRANCH   8  10
TORSDOF 6
ENDMDL
MODEL      178
REMARK 921   NORMALIZED FREE ENERGY PREDICTED BY IDOCK:   -1.92 KCAL/MOL
REMARK 922        TOTAL FREE ENERGY PREDICTED BY IDOCK:   -4.35 KCAL/MOL
REMARK 923 INTER-LIGAND FREE ENERGY PREDICTED BY IDOCK:   -3.75 KCAL/MOL
REMARK 924 INTRA-LIGAND FREE ENERGY PREDICTED BY IDOCK:   -0.60 KCAL/MOL
REMARK 927      BINDING AFFINITY PREDICTED BY RF-SCORE:    0.00 PKD
ROOT
HETATM    1  C   UNL     1      -7.750   5.562  70.296  1.00  0.00    -0.085 C  
HETATM    2  C   UNL     1      -8.139   4.609  69.147  1.00  0.00    -0.073 C  
HETATM    3  C   UNL     1      -8.893   5.500  68.159  1.00  0.00    -0.105 C  
HETATM    4  C   UNL     1      -8.897   6.894  68.821  1.00  0.00    -0.132 C  
HETATM    5  C   UNL     1      -7.680   7.799  68.435  1.00  0.00    -0.119 C  
HETATM    6  N   UNL     1      -8.889   6.475  70.227  1.00  0.00    -0.150 NA 
HETATM    7  C   UNL     1      -8.918   7.510  71.226  1.00  0.00    -0.137 C  
HETATM    8  C   UNL     1      -6.400   7.654  69.309  1.00  0.00    -0.035 C  
HETATM    9  C   UNL     1      -6.387   6.310  70.131  1.00  0.00    -0.039 C  
ENDROOT
BRANCH   8  10
HETATM   10  S   UNL     1      -5.328   9.353  70.021  1.00  0.00    -0.032 SA 
BRANCH  10  11
HETATM   11  C   UNL     1      -6.137  10.984  69.553  1.00  0.00    -0.072 C  
BRANCH  11  12
HETATM   12  C   UNL     1      -6.561  11.541  68.037  1.00  0.00    -0.058 C  
HETATM   13  O   UNL     1      -7.132  10.712  67.315  1.00  0.00    -0.085 OA 
BRANCH  12  14
HETATM   14  O   UNL     1      -6.315  12.798  67.493  1.00  0.00    -0.142 OA 
BRANCH  14  15
HETATM   15  C   UNL     1      -7.241  14.094  67.776  1.00  0.00    -0.176 C  
HETATM   16  C   UNL     1      -8.579  13.540  67.059  1.00  0.00    -0.169 C  
HETATM   17  C   UNL     1      -9.943  14.266  67.192  1.00  0.00    -0.255 C  
HETATM   18  C   UNL     1      -8.850  18.208  68.302  1.00  0.00    -0.293 C  
HETATM   19  C   UNL     1     -11.224  13.481  66.814  1.00  0.00    -0.327 C  
HETATM   20  C   UNL     1      -9.867  15.397  66.119  1.00  0.00    -0.311 C  
HETATM   21  O   UNL     1     -10.517  15.162  64.872  1.00  0.00    -0.424 OA 
HETATM   22  C   UNL     1     -10.174  16.755  66.694  1.00  0.00    -0.310 C  
HETATM   23  C   UNL     1      -8.077  17.498  69.438  1.00  0.00     0.364 C  
HETATM   24  C   UNL     1      -8.835  17.588  66.872  1.00  0.00    -0.267 C  
HETATM   25  C   UNL     1     -11.353  17.464  65.976  1.00  0.00     1.057 C  
HETATM   26  H   UNL     1     -10.470  15.850  64.219  1.00  0.00     0.000 HD 
HETATM   27  C   UNL     1      -8.878  18.685  65.762  1.00  0.00     0.438 C  
HETATM   28  C   UNL     1      -7.507  19.275  65.661  1.00  0.00    -0.131 C  
HETATM   29  C   UNL     1      -6.641  18.093  66.003  1.00  0.00    -0.263 C  
HETATM   30  C   UNL     1      -7.434  16.861  66.582  1.00  0.00    -0.303 C  
HETATM   31  O   UNL     1      -5.475  18.104  65.687  1.00  0.00    -0.166 OA 
HETATM   32  C   UNL     1      -6.724  15.866  67.686  1.00  0.00    -0.195 C  
HETATM   33  C   UNL     1      -5.166  16.073  67.494  1.00  0.00    -0.111 C  
HETATM   34  C   UNL     1      -6.872  16.588  69.117  1.00  0.00    -0.218 C  
HETATM   35  C   UNL     1      -6.379  15.672  70.264  1.00  0.00     0.017 C  
BRANCH  17  36
HETATM   36  C   UNL     1     -10.046  14.618  68.682  1.00  0.00    -0.238 C  
HETATM   37  C   UNL     1     -11.009  14.296  69.558  1.00  0.00    -0.206 C  
ENDBRANCH  17  36
ENDBRANCH  14  15
ENDBRANCH  12  14
ENDBRANCH  11  12
ENDBRANCH  10  11
ENDBRANCH   8  10
TORSDOF 6
ENDMDL
MODEL      179
REMARK 921   NORMALIZED FREE ENERGY PREDICTED BY IDOCK:   -1.91 KCAL/MOL
REMARK 922        TOTAL FREE ENERGY PREDICTED BY IDOCK:   -4.34 KCAL/MOL
REMARK 923 INTER-LIGAND FREE ENERGY PREDICTED BY IDOCK:   -5.34 KCAL/MOL
REMARK 924 INTRA-LIGAND FREE ENERGY PREDICTED BY IDOCK:    1.00 KCAL/MOL
REMARK 927      BINDING AFFINITY PREDICTED BY RF-SCORE:    0.00 PKD
ROOT
HETATM    1  C   UNL     1      -9.354  15.258  67.349  1.00  0.00    -0.199 C  
HETATM    2  C   UNL     1      -8.971  16.392  68.322  1.00  0.00    -0.206 C  
HETATM    3  C   UNL     1     -10.306  16.848  68.912  1.00  0.00    -0.333 C  
HETATM    4  C   UNL     1     -11.358  15.955  68.222  1.00  0.00    -0.342 C  
HETATM    5  C   UNL     1     -11.678  14.624  68.982  1.00  0.00    -0.339 C  
HETATM    6  N   UNL     1     -10.670  15.744  66.944  1.00  0.00    -0.315 NA 
HETATM    7  C   UNL     1     -11.348  14.952  65.951  1.00  0.00    -0.306 C  
HETATM    8  C   UNL     1     -10.776  13.400  68.652  1.00  0.00    -0.255 C  
HETATM    9  C   UNL     1      -9.423  13.822  67.966  1.00  0.00    -0.207 C  
ENDROOT
BRANCH   8  10
HETATM   10  S   UNL     1     -11.595  11.464  68.298  1.00  0.00    -0.292 SA 
BRANCH  10  11
HETATM   11  C   UNL     1     -11.905  10.495  69.879  1.00  0.00    -0.282 C  
BRANCH  11  12
HETATM   12  C   UNL     1     -10.857   9.497  70.712  1.00  0.00    -0.318 C  
HETATM   13  O   UNL     1      -9.942  10.081  71.311  1.00  0.00     0.287 OA 
BRANCH  12  14
HETATM   14  O   UNL     1     -10.877   8.107  70.779  1.00  0.00    -0.220 OA 
BRANCH  14  15
HETATM   15  C   UNL     1      -9.547   7.197  70.921  1.00  0.00    -0.167 C  
HETATM   16  C   UNL     1     -10.265   5.897  71.555  1.00  0.00    -0.254 C  
HETATM   17  C   UNL     1      -9.522   4.545  71.719  1.00  0.00    -0.206 C  
HETATM   18  C   UNL     1      -5.434   5.661  71.638  1.00  0.00    -0.020 C  
HETATM   19  C   UNL     1     -10.372   3.272  71.961  1.00  0.00    -0.015 C  
HETATM   20  C   UNL     1      -8.724   4.720  73.049  1.00  0.00    -0.113 C  
HETATM   21  O   UNL     1      -9.284   4.149  74.229  1.00  0.00    -0.102 OA 
HETATM   22  C   UNL     1      -7.259   4.409  72.884  1.00  0.00    -0.074 C  
HETATM   23  C   UNL     1      -5.815   6.339  70.301  1.00  0.00    -0.018 C  
HETATM   24  C   UNL     1      -6.418   5.755  72.843  1.00  0.00    -0.063 C  
HETATM   25  C   UNL     1      -6.763   3.299  73.847  1.00  0.00    -0.035 C  
HETATM   26  H   UNL     1      -8.798   4.255  75.038  1.00  0.00     0.000 HD 
HETATM   27  C   UNL     1      -5.662   5.813  74.208  1.00  0.00    -0.053 C  
HETATM   28  C   UNL     1      -5.130   7.202  74.367  1.00  0.00    -0.046 C  
HETATM   29  C   UNL     1      -6.181   8.013  73.660  1.00  0.00    -0.090 C  
HETATM   30  C   UNL     1      -7.205   7.154  72.827  1.00  0.00    -0.072 C  
HETATM   31  O   UNL     1      -6.263   9.197  73.884  1.00  0.00    -0.317 OA 
HETATM   32  C   UNL     1      -7.869   7.763  71.448  1.00  0.00    -0.090 C  
HETATM   33  C   UNL     1      -7.731   9.336  71.580  1.00  0.00     0.201 C  
HETATM   34  C   UNL     1      -6.786   7.540  70.279  1.00  0.00    -0.047 C  
HETATM   35  C   UNL     1      -7.360   7.933  68.896  1.00  0.00    -0.085 C  
BRANCH  17  36
HETATM   36  C   UNL     1      -8.779   4.352  70.390  1.00  0.00    -0.122 C  
HETATM   37  C   UNL     1      -9.219   3.791  69.254  1.00  0.00    -0.228 C  
ENDBRANCH  17  36
ENDBRANCH  14  15
ENDBRANCH  12  14
ENDBRANCH  11  12
ENDBRANCH  10  11
ENDBRANCH   8  10
TORSDOF 6
ENDMDL
MODEL      180
REMARK 921   NORMALIZED FREE ENERGY PREDICTED BY IDOCK:   -1.81 KCAL/MOL
REMARK 922        TOTAL FREE ENERGY PREDICTED BY IDOCK:   -4.20 KCAL/MOL
REMARK 923 INTER-LIGAND FREE ENERGY PREDICTED BY IDOCK:   -3.47 KCAL/MOL
REMARK 924 INTRA-LIGAND FREE ENERGY PREDICTED BY IDOCK:   -0.73 KCAL/MOL
REMARK 927      BINDING AFFINITY PREDICTED BY RF-SCORE:    0.00 PKD
ROOT
HETATM    1  C   UNL     1      -9.271   4.116  71.962  1.00  0.00    -0.124 C  
HETATM    2  C   UNL     1      -7.873   4.149  72.613  1.00  0.00    -0.080 C  
HETATM    3  C   UNL     1      -7.159   5.304  71.910  1.00  0.00    -0.079 C  
HETATM    4  C   UNL     1      -8.193   5.837  70.896  1.00  0.00    -0.121 C  
HETATM    5  C   UNL     1      -9.115   6.976  71.447  1.00  0.00    -0.147 C  
HETATM    6  N   UNL     1      -8.910   4.586  70.628  1.00  0.00    -0.097 NA 
HETATM    7  C   UNL     1      -9.985   4.632  69.672  1.00  0.00    -0.211 C  
HETATM    8  C   UNL     1     -10.417   6.527  72.172  1.00  0.00    -0.205 C  
HETATM    9  C   UNL     1     -10.357   5.022  72.630  1.00  0.00    -0.249 C  
ENDROOT
BRANCH   8  10
HETATM   10  S   UNL     1     -12.297   7.451  71.779  1.00  0.00    -0.336 SA 
BRANCH  10  11
HETATM   11  C   UNL     1     -12.234   9.327  71.894  1.00  0.00    -0.378 C  
BRANCH  11  12
HETATM   12  C   UNL     1     -12.355  10.452  70.666  1.00  0.00    -0.346 C  
HETATM   13  O   UNL     1     -13.089  10.122  69.724  1.00  0.00     0.154 OA 
BRANCH  12  14
HETATM   14  O   UNL     1     -11.706  11.679  70.570  1.00  0.00    -0.292 OA 
BRANCH  14  15
HETATM   15  C   UNL     1     -10.744  12.090  69.337  1.00  0.00     0.076 C  
HETATM   16  C   UNL     1      -9.914  10.706  69.264  1.00  0.00    -0.215 C  
HETATM   17  C   UNL     1      -8.951  10.386  68.090  1.00  0.00    -0.132 C  
HETATM   18  C   UNL     1      -8.075  14.203  66.473  1.00  0.00     0.679 C  
HETATM   19  C   UNL     1      -8.508   8.914  67.895  1.00  0.00    -0.125 C  
HETATM   20  C   UNL     1      -7.634  11.125  68.480  1.00  0.00    -0.120 C  
HETATM   21  O   UNL     1      -6.597  10.348  69.074  1.00  0.00    -0.054 OA 
HETATM   22  C   UNL     1      -7.134  12.026  67.380  1.00  0.00    -0.136 C  
HETATM   23  C   UNL     1      -9.613  14.338  66.384  1.00  0.00    -0.317 C  
HETATM   24  C   UNL     1      -7.443  13.542  67.735  1.00  0.00    -0.168 C  
HETATM   25  C   UNL     1      -5.689  11.690  66.931  1.00  0.00    -0.139 C  
HETATM   26  H   UNL     1      -5.795  10.798  69.311  1.00  0.00     0.000 HD 
HETATM   27  C   UNL     1      -6.061  14.174  68.093  1.00  0.00    -0.133 C  
HETATM   28  C   UNL     1      -6.328  15.488  68.756  1.00  0.00    -0.103 C  
HETATM   29  C   UNL     1      -7.625  15.214  69.466  1.00  0.00    -0.207 C  
HETATM   30  C   UNL     1      -8.317  13.863  69.043  1.00  0.00     0.188 C  
HETATM   31  O   UNL     1      -7.963  15.931  70.377  1.00  0.00     0.936 OA 
HETATM   32  C   UNL     1      -9.959  13.738  69.045  1.00  0.00     0.052 C  
HETATM   33  C   UNL     1     -10.462  14.874  70.027  1.00  0.00    -0.060 C  
HETATM   34  C   UNL     1     -10.472  14.390  67.666  1.00  0.00    -0.245 C  
HETATM   35  C   UNL     1     -11.995  14.191  67.480  1.00  0.00    -0.419 C  
BRANCH  17  36
HETATM   36  C   UNL     1      -9.729  10.799  66.833  1.00  0.00    -0.209 C  
HETATM   37  C   UNL     1     -11.054  10.807  66.628  1.00  0.00    -0.107 C  
ENDBRANCH  17  36
ENDBRANCH  14  15
ENDBRANCH  12  14
ENDBRANCH  11  12
ENDBRANCH  10  11
ENDBRANCH   8  10
TORSDOF 6
ENDMDL
MODEL      181
REMARK 921   NORMALIZED FREE ENERGY PREDICTED BY IDOCK:   -1.74 KCAL/MOL
REMARK 922        TOTAL FREE ENERGY PREDICTED BY IDOCK:   -4.10 KCAL/MOL
REMARK 923 INTER-LIGAND FREE ENERGY PREDICTED BY IDOCK:   -2.83 KCAL/MOL
REMARK 924 INTRA-LIGAND FREE ENERGY PREDICTED BY IDOCK:   -1.27 KCAL/MOL
REMARK 927      BINDING AFFINITY PREDICTED BY RF-SCORE:    0.00 PKD
ROOT
HETATM    1  C   UNL     1      -6.521  11.734  68.428  1.00  0.00    -0.053 C  
HETATM    2  C   UNL     1      -6.975  12.263  67.051  1.00  0.00    -0.036 C  
HETATM    3  C   UNL     1      -7.232  10.998  66.231  1.00  0.00    -0.095 C  
HETATM    4  C   UNL     1      -6.891   9.839  67.190  1.00  0.00    -0.083 C  
HETATM    5  C   UNL     1      -8.100   9.321  68.038  1.00  0.00    -0.104 C  
HETATM    6  N   UNL     1      -5.860  10.507  67.992  1.00  0.00    -0.040 NA 
HETATM    7  C   UNL     1      -5.228   9.737  69.030  1.00  0.00    -0.036 C  
HETATM    8  C   UNL     1      -8.360  10.043  69.392  1.00  0.00    -0.165 C  
HETATM    9  C   UNL     1      -7.660  11.453  69.462  1.00  0.00     0.200 C  
ENDROOT
BRANCH   8  10
HETATM   10  S   UNL     1      -8.764   8.961  71.184  1.00  0.00    -0.211 SA 
BRANCH  10  11
HETATM   11  C   UNL     1     -10.089   7.646  70.967  1.00  0.00    -0.189 C  
BRANCH  11  12
HETATM   12  C   UNL     1     -10.599   6.900  69.562  1.00  0.00    -0.236 C  
HETATM   13  O   UNL     1     -11.675   6.292  69.652  1.00  0.00    -0.382 OA 
BRANCH  12  14
HETATM   14  O   UNL     1      -9.943   6.858  68.336  1.00  0.00    -0.140 OA 
BRANCH  14  15
HETATM   15  C   UNL     1      -9.386   5.496  67.663  1.00  0.00    -0.112 C  
HETATM   16  C   UNL     1      -8.715   4.878  68.997  1.00  0.00    -0.105 C  
HETATM   17  C   UNL     1      -8.187   3.420  69.052  1.00  0.00    -0.075 C  
HETATM   18  C   UNL     1      -7.602   2.436  64.972  1.00  0.00    -0.072 C  
HETATM   19  C   UNL     1      -7.926   2.794  70.445  1.00  0.00    -0.051 C  
HETATM   20  C   UNL     1      -6.767   3.515  68.413  1.00  0.00    -0.045 C  
HETATM   21  O   UNL     1      -5.652   3.575  69.298  1.00  0.00    -0.016 OA 
HETATM   22  C   UNL     1      -6.575   2.526  67.292  1.00  0.00    -0.036 C  
HETATM   23  C   UNL     1      -9.079   2.870  64.824  1.00  0.00    -0.136 C  
HETATM   24  C   UNL     1      -6.656   3.266  65.891  1.00  0.00    -0.040 C  
HETATM   25  C   UNL     1      -5.366   1.581  67.520  1.00  0.00    -0.013 C  
HETATM   26  H   UNL     1      -4.788   3.633  68.909  1.00  0.00     0.000 HD 
HETATM   27  C   UNL     1      -5.192   3.290  65.349  1.00  0.00    -0.009 C  
HETATM   28  C   UNL     1      -5.150   4.260  64.212  1.00  0.00    -0.008 C  
HETATM   29  C   UNL     1      -6.179   5.272  64.636  1.00  0.00    -0.026 C  
HETATM   30  C   UNL     1      -7.057   4.820  65.865  1.00  0.00    -0.071 C  
HETATM   31  O   UNL     1      -6.168   6.371  64.136  1.00  0.00    -0.029 OA 
HETATM   32  C   UNL     1      -8.622   5.318  65.991  1.00  0.00    -0.124 C  
HETATM   33  C   UNL     1      -8.718   6.622  65.096  1.00  0.00     0.105 C  
HETATM   34  C   UNL     1      -9.492   4.340  65.054  1.00  0.00    -0.171 C  
HETATM   35  C   UNL     1     -11.008   4.610  65.211  1.00  0.00     0.001 C  
BRANCH  17  36
HETATM   36  C   UNL     1      -9.287   2.589  68.377  1.00  0.00    -0.259 C  
HETATM   37  C   UNL     1      -9.908   1.489  68.828  1.00  0.00     0.031 C  
ENDBRANCH  17  36
ENDBRANCH  14  15
ENDBRANCH  12  14
ENDBRANCH  11  12
ENDBRANCH  10  11
ENDBRANCH   8  10
TORSDOF 6
ENDMDL
MODEL      182
REMARK 921   NORMALIZED FREE ENERGY PREDICTED BY IDOCK:   -1.66 KCAL/MOL
REMARK 922        TOTAL FREE ENERGY PREDICTED BY IDOCK:   -4.00 KCAL/MOL
REMARK 923 INTER-LIGAND FREE ENERGY PREDICTED BY IDOCK:   -3.86 KCAL/MOL
REMARK 924 INTRA-LIGAND FREE ENERGY PREDICTED BY IDOCK:   -0.14 KCAL/MOL
REMARK 927      BINDING AFFINITY PREDICTED BY RF-SCORE:    0.00 PKD
ROOT
HETATM    1  C   UNL     1      -7.385  19.909  65.888  1.00  0.00    -0.320 C  
HETATM    2  C   UNL     1      -6.676  19.624  64.548  1.00  0.00     0.254 C  
HETATM    3  C   UNL     1      -5.753  18.445  64.855  1.00  0.00    -0.171 C  
HETATM    4  C   UNL     1      -5.986  18.151  66.352  1.00  0.00    -0.172 C  
HETATM    5  C   UNL     1      -7.119  17.111  66.640  1.00  0.00    -0.283 C  
HETATM    6  N   UNL     1      -6.316  19.509  66.799  1.00  0.00    -0.187 NA 
HETATM    7  C   UNL     1      -6.587  19.697  68.199  1.00  0.00    -0.260 C  
HETATM    8  C   UNL     1      -8.564  17.674  66.774  1.00  0.00    -0.255 C  
HETATM    9  C   UNL     1      -8.705  19.111  66.146  1.00  0.00    -0.230 C  
ENDROOT
BRANCH   8  10
HETATM   10  S   UNL     1      -9.868  17.060  68.345  1.00  0.00    -0.298 SA 
BRANCH  10  11
HETATM   11  C   UNL     1      -9.922  15.195  68.571  1.00  0.00    -0.223 C  
BRANCH  11  12
HETATM   12  C   UNL     1      -8.649  14.127  68.733  1.00  0.00    -0.067 C  
HETATM   13  O   UNL     1      -7.590  14.489  68.199  1.00  0.00    -0.106 OA 
BRANCH  12  14
HETATM   14  O   UNL     1      -8.655  12.883  69.358  1.00  0.00     0.776 OA 
BRANCH  14  15
HETATM   15  C   UNL     1      -9.049  11.505  68.608  1.00  0.00    -0.120 C  
HETATM   16  C   UNL     1      -9.770  10.795  69.867  1.00  0.00     0.397 C  
HETATM   17  C   UNL     1     -10.584   9.483  69.715  1.00  0.00    -0.257 C  
HETATM   18  C   UNL     1      -9.114   7.831  66.100  1.00  0.00    -0.199 C  
HETATM   19  C   UNL     1     -11.548   9.090  70.862  1.00  0.00    -0.344 C  
HETATM   20  C   UNL     1      -9.495   8.366  69.742  1.00  0.00    -0.162 C  
HETATM   21  O   UNL     1      -9.292   7.678  70.975  1.00  0.00    -0.152 OA 
HETATM   22  C   UNL     1      -9.597   7.436  68.561  1.00  0.00    -0.146 C  
HETATM   23  C   UNL     1      -9.485   9.212  65.509  1.00  0.00    -0.276 C  
HETATM   24  C   UNL     1      -8.454   7.762  67.510  1.00  0.00    -0.120 C  
HETATM   25  C   UNL     1      -9.771   5.951  68.973  1.00  0.00    -0.170 C  
HETATM   26  H   UNL     1      -8.629   6.999  70.991  1.00  0.00     0.000 HD 
HETATM   27  C   UNL     1      -7.440   6.581  67.620  1.00  0.00    -0.097 C  
HETATM   28  C   UNL     1      -6.189   6.996  66.913  1.00  0.00    -0.041 C  
HETATM   29  C   UNL     1      -6.176   8.479  67.161  1.00  0.00    -0.056 C  
HETATM   30  C   UNL     1      -7.519   9.042  67.764  1.00  0.00    -0.085 C  
HETATM   31  O   UNL     1      -5.142   9.090  67.035  1.00  0.00    -0.034 OA 
HETATM   32  C   UNL     1      -8.015  10.569  67.396  1.00  0.00    -0.110 C  
HETATM   33  C   UNL     1      -6.704  11.334  66.940  1.00  0.00    -0.135 C  
HETATM   34  C   UNL     1      -8.736  10.485  65.959  1.00  0.00    -0.174 C  
HETATM   35  C   UNL     1      -9.385  11.836  65.574  1.00  0.00    -0.131 C  
BRANCH  17  36
HETATM   36  C   UNL     1     -11.436   9.704  68.458  1.00  0.00     0.246 C  
HETATM   37  C   UNL     1     -11.774  10.857  67.863  1.00  0.00    -0.152 C  
ENDBRANCH  17  36
ENDBRANCH  14  15
ENDBRANCH  12  14
ENDBRANCH  11  12
ENDBRANCH  10  11
ENDBRANCH   8  10
TORSDOF 6
ENDMDL
MODEL      183
REMARK 921   NORMALIZED FREE ENERGY PREDICTED BY IDOCK:   -1.64 KCAL/MOL
REMARK 922        TOTAL FREE ENERGY PREDICTED BY IDOCK:   -3.96 KCAL/MOL
REMARK 923 INTER-LIGAND FREE ENERGY PREDICTED BY IDOCK:   -2.79 KCAL/MOL
REMARK 924 INTRA-LIGAND FREE ENERGY PREDICTED BY IDOCK:   -1.18 KCAL/MOL
REMARK 927      BINDING AFFINITY PREDICTED BY RF-SCORE:    0.00 PKD
ROOT
HETATM    1  C   UNL     1      -8.302  11.400  63.464  1.00  0.00     0.626 C  
HETATM    2  C   UNL     1      -9.206  10.870  62.332  1.00  0.00    -0.304 C  
HETATM    3  C   UNL     1      -9.120   9.349  62.465  1.00  0.00    -0.176 C  
HETATM    4  C   UNL     1      -8.160   9.118  63.651  1.00  0.00    -0.160 C  
HETATM    5  C   UNL     1      -8.864   9.023  65.046  1.00  0.00    -0.213 C  
HETATM    6  N   UNL     1      -7.326  10.315  63.500  1.00  0.00    -0.123 NA 
HETATM    7  C   UNL     1      -6.240  10.485  64.429  1.00  0.00     0.003 C  
HETATM    8  C   UNL     1      -9.090  10.363  65.804  1.00  0.00    -0.168 C  
HETATM    9  C   UNL     1      -8.995  11.613  64.850  1.00  0.00     0.275 C  
ENDROOT
BRANCH   8  10
HETATM   10  S   UNL     1      -8.652  10.568  67.880  1.00  0.00    -0.124 SA 
BRANCH  10  11
HETATM   11  C   UNL     1     -10.191  10.602  68.958  1.00  0.00    -0.215 C  
BRANCH  11  12
HETATM   12  C   UNL     1     -10.428   9.914  70.461  1.00  0.00    -0.264 C  
HETATM   13  O   UNL     1     -11.551  10.099  70.951  1.00  0.00    -0.324 OA 
BRANCH  12  14
HETATM   14  O   UNL     1      -9.509   9.199  71.223  1.00  0.00    -0.268 OA 
BRANCH  14  15
HETATM   15  C   UNL     1      -8.583   8.013  70.631  1.00  0.00    -0.130 C  
HETATM   16  C   UNL     1      -9.745   7.243  69.815  1.00  0.00    -0.166 C  
HETATM   17  C   UNL     1      -9.430   6.098  68.817  1.00  0.00    -0.128 C  
HETATM   18  C   UNL     1      -5.586   4.781  70.023  1.00  0.00    -0.012 C  
HETATM   19  C   UNL     1     -10.531   5.690  67.807  1.00  0.00    -0.275 C  
HETATM   20  C   UNL     1      -9.275   4.843  69.730  1.00  0.00    -0.121 C  
HETATM   21  O   UNL     1     -10.394   3.965  69.832  1.00  0.00     0.358 OA 
HETATM   22  C   UNL     1      -7.978   4.115  69.491  1.00  0.00    -0.056 C  
HETATM   23  C   UNL     1      -5.204   6.271  69.858  1.00  0.00    -0.013 C  
HETATM   24  C   UNL     1      -6.958   4.418  70.668  1.00  0.00    -0.037 C  
HETATM   25  C   UNL     1      -8.181   2.627  69.102  1.00  0.00    -0.074 C  
HETATM   26  H   UNL     1     -10.300   3.201  70.388  1.00  0.00     0.000 HD 
HETATM   27  C   UNL     1      -6.878   3.098  71.498  1.00  0.00    -0.031 C  
HETATM   28  C   UNL     1      -6.208   3.424  72.795  1.00  0.00    -0.009 C  
HETATM   29  C   UNL     1      -6.662   4.839  73.026  1.00  0.00    -0.065 C  
HETATM   30  C   UNL     1      -7.367   5.499  71.781  1.00  0.00    -0.091 C  
HETATM   31  O   UNL     1      -6.600   5.305  74.139  1.00  0.00    -0.071 OA 
HETATM   32  C   UNL     1      -7.228   7.119  71.514  1.00  0.00    -0.077 C  
HETATM   33  C   UNL     1      -6.856   7.742  72.922  1.00  0.00    -0.083 C  
HETATM   34  C   UNL     1      -5.811   7.345  70.787  1.00  0.00    -0.031 C  
HETATM   35  C   UNL     1      -5.634   8.817  70.342  1.00  0.00    -0.027 C  
BRANCH  17  36
HETATM   36  C   UNL     1      -8.234   6.617  68.004  1.00  0.00    -0.117 C  
HETATM   37  C   UNL     1      -7.608   6.041  66.969  1.00  0.00    -0.096 C  
ENDBRANCH  17  36
ENDBRANCH  14  15
ENDBRANCH  12  14
ENDBRANCH  11  12
ENDBRANCH  10  11
ENDBRANCH   8  10
TORSDOF 6
ENDMDL
MODEL      184
REMARK 921   NORMALIZED FREE ENERGY PREDICTED BY IDOCK:   -1.54 KCAL/MOL
REMARK 922        TOTAL FREE ENERGY PREDICTED BY IDOCK:   -3.83 KCAL/MOL
REMARK 923 INTER-LIGAND FREE ENERGY PREDICTED BY IDOCK:   -3.19 KCAL/MOL
REMARK 924 INTRA-LIGAND FREE ENERGY PREDICTED BY IDOCK:   -0.64 KCAL/MOL
REMARK 927      BINDING AFFINITY PREDICTED BY RF-SCORE:    0.00 PKD
ROOT
HETATM    1  C   UNL     1      -8.480   5.417  69.961  1.00  0.00    -0.111 C  
HETATM    2  C   UNL     1      -9.045   3.983  70.030  1.00  0.00    -0.187 C  
HETATM    3  C   UNL     1     -10.388   4.143  70.742  1.00  0.00     0.213 C  
HETATM    4  C   UNL     1     -10.488   5.653  71.045  1.00  0.00    -0.250 C  
HETATM    5  C   UNL     1     -11.183   6.495  69.924  1.00  0.00    -0.456 C  
HETATM    6  N   UNL     1      -9.058   5.947  71.193  1.00  0.00    -0.142 NA 
HETATM    7  C   UNL     1      -8.692   7.299  71.522  1.00  0.00    -0.118 C  
HETATM    8  C   UNL     1     -10.265   7.030  68.786  1.00  0.00    -0.176 C  
HETATM    9  C   UNL     1      -8.896   6.256  68.708  1.00  0.00    -0.123 C  
ENDROOT
BRANCH   8  10
HETATM   10  S   UNL     1     -10.398   9.040  68.087  1.00  0.00    -0.205 SA 
BRANCH  10  11
HETATM   11  C   UNL     1      -8.811  10.014  68.342  1.00  0.00    -0.117 C  
BRANCH  11  12
HETATM   12  C   UNL     1      -8.313  11.415  67.581  1.00  0.00    -0.129 C  
HETATM   13  O   UNL     1      -7.145  11.399  67.166  1.00  0.00    -0.115 OA 
BRANCH  12  14
HETATM   14  O   UNL     1      -9.039  12.587  67.396  1.00  0.00    -0.171 OA 
BRANCH  14  15
HETATM   15  C   UNL     1      -8.754  13.955  68.210  1.00  0.00    -0.183 C  
HETATM   16  C   UNL     1     -10.212  14.619  67.998  1.00  0.00    -0.231 C  
HETATM   17  C   UNL     1     -10.654  15.895  68.760  1.00  0.00    -0.245 C  
HETATM   18  C   UNL     1      -6.981  17.653  69.935  1.00  0.00     0.539 C  
HETATM   19  C   UNL     1     -12.165  16.233  68.799  1.00  0.00     0.552 C  
HETATM   20  C   UNL     1     -10.032  17.059  67.927  1.00  0.00    -0.281 C  
HETATM   21  O   UNL     1     -10.887  17.740  67.012  1.00  0.00    -0.240 OA 
HETATM   22  C   UNL     1      -9.212  17.997  68.773  1.00  0.00    -0.229 C  
HETATM   23  C   UNL     1      -6.704  16.264  70.558  1.00  0.00     1.014 C  
HETATM   24  C   UNL     1      -7.665  17.734  68.537  1.00  0.00    -0.289 C  
HETATM   25  C   UNL     1      -9.695  19.469  68.688  1.00  0.00    -0.514 C  
HETATM   26  H   UNL     1     -10.509  18.448  66.504  1.00  0.00     0.000 HD 
HETATM   27  C   UNL     1      -7.157  18.957  67.711  1.00  0.00    -0.245 C  
HETATM   28  C   UNL     1      -5.806  18.605  67.173  1.00  0.00    -0.158 C  
HETATM   29  C   UNL     1      -5.937  17.121  66.967  1.00  0.00    -0.174 C  
HETATM   30  C   UNL     1      -7.228  16.493  67.617  1.00  0.00    -0.158 C  
HETATM   31  O   UNL     1      -5.167  16.557  66.227  1.00  0.00    -0.219 OA 
HETATM   32  C   UNL     1      -7.197  14.950  68.194  1.00  0.00    -0.124 C  
HETATM   33  C   UNL     1      -5.992  14.248  67.442  1.00  0.00     0.261 C  
HETATM   34  C   UNL     1      -6.536  15.020  69.659  1.00  0.00    -0.166 C  
HETATM   35  C   UNL     1      -6.595  13.647  70.371  1.00  0.00     0.257 C  
BRANCH  17  36
HETATM   36  C   UNL     1     -10.203  15.652  70.208  1.00  0.00    -0.121 C  
HETATM   37  C   UNL     1     -10.933  15.676  71.331  1.00  0.00    -0.150 C  
ENDBRANCH  17  36
ENDBRANCH  14  15
ENDBRANCH  12  14
ENDBRANCH  11  12
ENDBRANCH  10  11
ENDBRANCH   8  10
TORSDOF 6
ENDMDL
MODEL      185
REMARK 921   NORMALIZED FREE ENERGY PREDICTED BY IDOCK:   -1.49 KCAL/MOL
REMARK 922        TOTAL FREE ENERGY PREDICTED BY IDOCK:   -3.76 KCAL/MOL
REMARK 923 INTER-LIGAND FREE ENERGY PREDICTED BY IDOCK:   -2.93 KCAL/MOL
REMARK 924 INTRA-LIGAND FREE ENERGY PREDICTED BY IDOCK:   -0.83 KCAL/MOL
REMARK 927      BINDING AFFINITY PREDICTED BY RF-SCORE:    0.00 PKD
ROOT
HETATM    1  C   UNL     1      -7.138   7.295  70.745  1.00  0.00    -0.065 C  
HETATM    2  C   UNL     1      -6.254   6.411  69.842  1.00  0.00    -0.031 C  
HETATM    3  C   UNL     1      -6.521   4.987  70.334  1.00  0.00    -0.031 C  
HETATM    4  C   UNL     1      -7.524   5.161  71.493  1.00  0.00    -0.095 C  
HETATM    5  C   UNL     1      -9.029   5.105  71.063  1.00  0.00    -0.159 C  
HETATM    6  N   UNL     1      -7.101   6.485  71.960  1.00  0.00    -0.079 NA 
HETATM    7  C   UNL     1      -7.789   7.037  73.097  1.00  0.00    -0.097 C  
HETATM    8  C   UNL     1      -9.676   6.450  70.622  1.00  0.00    -0.179 C  
HETATM    9  C   UNL     1      -8.600   7.536  70.245  1.00  0.00    -0.144 C  
ENDROOT
BRANCH   8  10
HETATM   10  S   UNL     1     -11.603   7.048  71.311  1.00  0.00    -0.323 SA 
BRANCH  10  11
HETATM   11  C   UNL     1     -11.794   8.914  71.436  1.00  0.00    -0.317 C  
BRANCH  11  12
HETATM   12  C   UNL     1     -11.756  10.050  70.212  1.00  0.00    -0.251 C  
HETATM   13  O   UNL     1     -11.911  11.223  70.582  1.00  0.00    -0.345 OA 
BRANCH  12  14
HETATM   14  O   UNL     1     -11.608   9.826  68.847  1.00  0.00     0.060 OA 
BRANCH  14  15
HETATM   15  C   UNL     1     -10.684  10.739  67.884  1.00  0.00    -0.239 C  
HETATM   16  C   UNL     1      -9.270  10.052  68.257  1.00  0.00    -0.129 C  
HETATM   17  C   UNL     1      -7.973  10.355  67.462  1.00  0.00    -0.106 C  
HETATM   18  C   UNL     1      -8.815  14.065  65.596  1.00  0.00     1.172 C  
HETATM   19  C   UNL     1      -6.777   9.384  67.625  1.00  0.00    -0.068 C  
HETATM   20  C   UNL     1      -7.459  11.689  68.088  1.00  0.00    -0.103 C  
HETATM   21  O   UNL     1      -6.419  11.600  69.059  1.00  0.00    -0.067 OA 
HETATM   22  C   UNL     1      -7.201  12.749  67.049  1.00  0.00     0.108 C  
HETATM   23  C   UNL     1     -10.064  13.327  65.060  1.00  0.00    -0.247 C  
HETATM   24  C   UNL     1      -8.366  13.827  67.069  1.00  0.00    -0.107 C  
HETATM   25  C   UNL     1      -5.747  13.286  67.078  1.00  0.00     0.783 C  
HETATM   26  H   UNL     1      -6.107  12.412  69.440  1.00  0.00     0.000 HD 
HETATM   27  C   UNL     1      -7.735  15.108  67.699  1.00  0.00    -0.186 C  
HETATM   28  C   UNL     1      -8.856  16.032  68.054  1.00  0.00    -0.175 C  
HETATM   29  C   UNL     1      -9.951  15.063  68.405  1.00  0.00    -0.225 C  
HETATM   30  C   UNL     1      -9.636  13.569  68.016  1.00  0.00    -0.221 C  
HETATM   31  O   UNL     1     -10.887  15.443  69.067  1.00  0.00    -0.224 OA 
HETATM   32  C   UNL     1     -10.857  12.553  67.577  1.00  0.00    -0.264 C  
HETATM   33  C   UNL     1     -12.170  13.189  68.196  1.00  0.00    -0.070 C  
HETATM   34  C   UNL     1     -11.171  12.854  66.028  1.00  0.00    -0.325 C  
HETATM   35  C   UNL     1     -12.199  11.849  65.456  1.00  0.00     0.281 C  
BRANCH  17  36
HETATM   36  C   UNL     1      -8.405  10.306  65.990  1.00  0.00    -0.142 C  
HETATM   37  C   UNL     1      -9.359   9.558  65.418  1.00  0.00    -0.324 C  
ENDBRANCH  17  36
ENDBRANCH  14  15
ENDBRANCH  12  14
ENDBRANCH  11  12
ENDBRANCH  10  11
ENDBRANCH   8  10
TORSDOF 6
ENDMDL
MODEL      186
REMARK 921   NORMALIZED FREE ENERGY PREDICTED BY IDOCK:   -1.18 KCAL/MOL
REMARK 922        TOTAL FREE ENERGY PREDICTED BY IDOCK:   -3.35 KCAL/MOL
REMARK 923 INTER-LIGAND FREE ENERGY PREDICTED BY IDOCK:   -5.07 KCAL/MOL
REMARK 924 INTRA-LIGAND FREE ENERGY PREDICTED BY IDOCK:    1.72 KCAL/MOL
REMARK 927      BINDING AFFINITY PREDICTED BY RF-SCORE:    0.00 PKD
ROOT
HETATM    1  C   UNL     1      -9.273   2.072  72.518  1.00  0.00    -0.075 C  
HETATM    2  C   UNL     1      -9.156   1.778  74.028  1.00  0.00    -0.069 C  
HETATM    3  C   UNL     1      -7.760   2.276  74.400  1.00  0.00    -0.045 C  
HETATM    4  C   UNL     1      -7.171   2.804  73.075  1.00  0.00    -0.040 C  
HETATM    5  C   UNL     1      -7.447   4.320  72.801  1.00  0.00    -0.079 C  
HETATM    6  N   UNL     1      -7.870   1.908  72.147  1.00  0.00    -0.044 NA 
HETATM    7  C   UNL     1      -7.577   2.049  70.745  1.00  0.00    -0.032 C  
HETATM    8  C   UNL     1      -8.776   4.665  72.068  1.00  0.00    -0.122 C  
HETATM    9  C   UNL     1      -9.820   3.488  72.139  1.00  0.00    -0.238 C  
ENDROOT
BRANCH   8  10
HETATM   10  S   UNL     1      -8.840   6.056  70.454  1.00  0.00    -0.149 SA 
BRANCH  10  11
HETATM   11  C   UNL     1      -9.927   5.482  69.031  1.00  0.00    -0.181 C  
BRANCH  11  12
HETATM   12  C   UNL     1      -9.801   5.853  67.408  1.00  0.00    -0.131 C  
HETATM   13  O   UNL     1     -10.702   5.390  66.693  1.00  0.00    -0.295 OA 
BRANCH  12  14
HETATM   14  O   UNL     1      -8.797   6.581  66.776  1.00  0.00    -0.121 OA 
BRANCH  14  15
HETATM   15  C   UNL     1      -8.653   8.188  66.884  1.00  0.00    -0.124 C  
HETATM   16  C   UNL     1      -9.774   8.411  68.025  1.00  0.00    -0.184 C  
HETATM   17  C   UNL     1      -9.958   9.774  68.743  1.00  0.00    -0.179 C  
HETATM   18  C   UNL     1      -8.173  12.536  66.069  1.00  0.00     0.893 C  
HETATM   19  C   UNL     1     -10.764   9.797  70.066  1.00  0.00    -0.326 C  
HETATM   20  C   UNL     1     -10.839  10.599  67.754  1.00  0.00    -0.286 C  
HETATM   21  O   UNL     1     -12.237  10.671  68.025  1.00  0.00    -0.590 OA 
HETATM   22  C   UNL     1     -10.234  11.939  67.427  1.00  0.00    -0.214 C  
HETATM   23  C   UNL     1      -6.945  11.600  66.181  1.00  0.00     0.375 C  
HETATM   24  C   UNL     1      -9.597  11.910  65.974  1.00  0.00    -0.251 C  
HETATM   25  C   UNL     1     -11.177  13.126  67.757  1.00  0.00    -0.308 C  
HETATM   26  H   UNL     1     -12.773  11.172  67.423  1.00  0.00     0.000 HD 
HETATM   27  C   UNL     1     -10.551  12.769  65.085  1.00  0.00    -0.324 C  
HETATM   28  C   UNL     1     -10.195  12.500  63.657  1.00  0.00    -0.310 C  
HETATM   29  C   UNL     1      -9.750  11.065  63.718  1.00  0.00    -0.309 C  
HETATM   30  C   UNL     1      -9.553  10.515  65.181  1.00  0.00    -0.316 C  
HETATM   31  O   UNL     1      -9.719  10.412  62.702  1.00  0.00    -0.298 OA 
HETATM   32  C   UNL     1      -8.404   9.375  65.489  1.00  0.00    -0.139 C  
HETATM   33  C   UNL     1      -8.124   8.678  64.094  1.00  0.00    -0.162 C  
HETATM   34  C   UNL     1      -7.006  10.158  65.633  1.00  0.00    -0.125 C  
HETATM   35  C   UNL     1      -5.870   9.206  66.080  1.00  0.00    -0.054 C  
BRANCH  17  36
HETATM   36  C   UNL     1      -8.529  10.230  69.072  1.00  0.00    -0.150 C  
HETATM   37  C   UNL     1      -7.364   9.684  68.693  1.00  0.00    -0.074 C  
ENDBRANCH  17  36
ENDBRANCH  14  15
ENDBRANCH  12  14
ENDBRANCH  11  12
ENDBRANCH  10  11
ENDBRANCH   8  10
TORSDOF 6
ENDMDL
MODEL      187
REMARK 921   NORMALIZED FREE ENERGY PREDICTED BY IDOCK:   -1.15 KCAL/MOL
REMARK 922        TOTAL FREE ENERGY PREDICTED BY IDOCK:   -3.31 KCAL/MOL
REMARK 923 INTER-LIGAND FREE ENERGY PREDICTED BY IDOCK:   -2.22 KCAL/MOL
REMARK 924 INTRA-LIGAND FREE ENERGY PREDICTED BY IDOCK:   -1.08 KCAL/MOL
REMARK 927      BINDING AFFINITY PREDICTED BY RF-SCORE:    0.00 PKD
ROOT
HETATM    1  C   UNL     1     -11.456  14.068  64.772  1.00  0.00    -0.369 C  
HETATM    2  C   UNL     1     -12.900  14.019  64.230  1.00  0.00     0.231 C  
HETATM    3  C   UNL     1     -13.234  12.527  64.187  1.00  0.00     0.117 C  
HETATM    4  C   UNL     1     -11.952  11.829  64.689  1.00  0.00    -0.082 C  
HETATM    5  C   UNL     1     -11.906  11.593  66.236  1.00  0.00     0.182 C  
HETATM    6  N   UNL     1     -10.965  12.808  64.220  1.00  0.00    -0.354 NA 
HETATM    7  C   UNL     1      -9.578  12.518  64.467  1.00  0.00     0.204 C  
HETATM    8  C   UNL     1     -11.324  12.750  67.099  1.00  0.00    -0.314 C  
HETATM    9  C   UNL     1     -11.311  14.123  66.328  1.00  0.00    -0.340 C  
ENDROOT
BRANCH   8  10
HETATM   10  S   UNL     1      -9.921  12.389  68.663  1.00  0.00    -0.038 SA 
BRANCH  10  11
HETATM   11  C   UNL     1      -8.554  11.198  68.165  1.00  0.00    -0.140 C  
BRANCH  11  12
HETATM   12  C   UNL     1      -7.056  10.978  68.868  1.00  0.00    -0.098 C  
HETATM   13  O   UNL     1      -6.728  11.848  69.687  1.00  0.00    -0.098 OA 
BRANCH  12  14
HETATM   14  O   UNL     1      -6.138   9.963  68.615  1.00  0.00    -0.042 OA 
BRANCH  14  15
HETATM   15  C   UNL     1      -6.554   8.482  68.116  1.00  0.00    -0.061 C  
HETATM   16  C   UNL     1      -6.483   8.781  66.530  1.00  0.00    -0.063 C  
HETATM   17  C   UNL     1      -6.569   7.648  65.474  1.00  0.00    -0.045 C  
HETATM   18  C   UNL     1      -8.420   4.478  67.591  1.00  0.00    -0.103 C  
HETATM   19  C   UNL     1      -6.108   7.963  64.029  1.00  0.00    -0.057 C  
HETATM   20  C   UNL     1      -8.101   7.390  65.330  1.00  0.00    -0.131 C  
HETATM   21  O   UNL     1      -8.765   7.989  64.219  1.00  0.00    -0.379 OA 
HETATM   22  C   UNL     1      -8.459   5.938  65.514  1.00  0.00    -0.154 C  
HETATM   23  C   UNL     1      -7.272   4.701  68.603  1.00  0.00    -0.057 C  
HETATM   24  C   UNL     1      -9.112   5.715  66.944  1.00  0.00    -0.116 C  
HETATM   25  C   UNL     1      -9.211   5.341  64.297  1.00  0.00     0.287 C  
HETATM   26  H   UNL     1      -9.697   7.833  64.132  1.00  0.00     0.000 HD 
HETATM   27  C   UNL     1     -10.628   5.459  66.672  1.00  0.00    -0.359 C  
HETATM   28  C   UNL     1     -11.344   5.580  67.979  1.00  0.00     1.097 C  
HETATM   29  C   UNL     1     -10.518   6.619  68.685  1.00  0.00    -0.211 C  
HETATM   30  C   UNL     1      -9.151   6.947  67.972  1.00  0.00    -0.120 C  
HETATM   31  O   UNL     1     -10.993   7.217  69.621  1.00  0.00    -0.243 OA 
HETATM   32  C   UNL     1      -7.836   7.380  68.863  1.00  0.00    -0.117 C  
HETATM   33  C   UNL     1      -8.419   7.910  70.237  1.00  0.00    -0.128 C  
HETATM   34  C   UNL     1      -7.181   6.015  69.409  1.00  0.00    -0.074 C  
HETATM   35  C   UNL     1      -5.841   6.283  70.135  1.00  0.00    -0.018 C  
BRANCH  17  36
HETATM   36  C   UNL     1      -5.646   6.547  66.018  1.00  0.00    -0.017 C  
HETATM   37  C   UNL     1      -5.371   5.345  65.493  1.00  0.00    -0.013 C  
ENDBRANCH  17  36
ENDBRANCH  14  15
ENDBRANCH  12  14
ENDBRANCH  11  12
ENDBRANCH  10  11
ENDBRANCH   8  10
TORSDOF 6
ENDMDL
MODEL      188
REMARK 921   NORMALIZED FREE ENERGY PREDICTED BY IDOCK:   -1.14 KCAL/MOL
REMARK 922        TOTAL FREE ENERGY PREDICTED BY IDOCK:   -3.30 KCAL/MOL
REMARK 923 INTER-LIGAND FREE ENERGY PREDICTED BY IDOCK:   -3.07 KCAL/MOL
REMARK 924 INTRA-LIGAND FREE ENERGY PREDICTED BY IDOCK:   -0.23 KCAL/MOL
REMARK 927      BINDING AFFINITY PREDICTED BY RF-SCORE:    0.00 PKD
ROOT
HETATM    1  C   UNL     1      -9.531  14.810  69.300  1.00  0.00    -0.055 C  
HETATM    2  C   UNL     1     -10.000  14.613  70.756  1.00  0.00     1.448 C  
HETATM    3  C   UNL     1     -11.088  15.671  70.947  1.00  0.00    -0.377 C  
HETATM    4  C   UNL     1     -11.151  16.408  69.592  1.00  0.00    -0.306 C  
HETATM    5  C   UNL     1     -12.169  15.800  68.570  1.00  0.00     0.243 C  
HETATM    6  N   UNL     1      -9.751  16.249  69.184  1.00  0.00    -0.261 NA 
HETATM    7  C   UNL     1      -9.355  16.841  67.934  1.00  0.00    -0.229 C  
HETATM    8  C   UNL     1     -11.637  14.663  67.651  1.00  0.00    -0.361 C  
HETATM    9  C   UNL     1     -10.320  14.007  68.214  1.00  0.00    -0.247 C  
ENDROOT
BRANCH   8  10
HETATM   10  S   UNL     1     -12.038  14.629  65.558  1.00  0.00    -0.159 SA 
BRANCH  10  11
HETATM   11  C   UNL     1     -11.467  13.043  64.724  1.00  0.00    -0.327 C  
BRANCH  11  12
HETATM   12  C   UNL     1     -10.071  12.168  64.994  1.00  0.00    -0.263 C  
HETATM   13  O   UNL     1      -9.617  11.586  63.999  1.00  0.00    -0.224 OA 
BRANCH  12  14
HETATM   14  O   UNL     1      -9.395  11.994  66.198  1.00  0.00    -0.229 OA 
BRANCH  14  15
HETATM   15  C   UNL     1      -8.661  10.616  66.623  1.00  0.00    -0.139 C  
HETATM   16  C   UNL     1      -7.592  10.581  65.412  1.00  0.00    -0.097 C  
HETATM   17  C   UNL     1      -6.412   9.574  65.385  1.00  0.00    -0.073 C  
HETATM   18  C   UNL     1      -7.687   6.505  68.017  1.00  0.00    -0.105 C  
HETATM   19  C   UNL     1      -5.236   9.857  64.417  1.00  0.00    -0.073 C  
HETATM   20  C   UNL     1      -7.053   8.267  64.824  1.00  0.00    -0.080 C  
HETATM   21  O   UNL     1      -6.859   7.984  63.440  1.00  0.00    -0.077 OA 
HETATM   22  C   UNL     1      -6.795   7.074  65.708  1.00  0.00    -0.056 C  
HETATM   23  C   UNL     1      -7.875   7.668  69.019  1.00  0.00    -0.119 C  
HETATM   24  C   UNL     1      -8.104   6.711  66.529  1.00  0.00    -0.111 C  
HETATM   25  C   UNL     1      -6.086   5.912  64.966  1.00  0.00    -0.026 C  
HETATM   26  H   UNL     1      -7.250   7.188  63.098  1.00  0.00     0.000 HD 
HETATM   27  C   UNL     1      -8.643   5.394  65.889  1.00  0.00    -0.131 C  
HETATM   28  C   UNL     1     -10.039   5.191  66.387  1.00  0.00    -0.268 C  
HETATM   29  C   UNL     1     -10.515   6.609  66.544  1.00  0.00    -0.047 C  
HETATM   30  C   UNL     1      -9.373   7.688  66.424  1.00  0.00    -0.228 C  
HETATM   31  O   UNL     1     -11.701   6.832  66.596  1.00  0.00     0.611 OA 
HETATM   32  C   UNL     1      -9.466   9.090  67.284  1.00  0.00    -0.189 C  
HETATM   33  C   UNL     1     -11.003   9.269  67.626  1.00  0.00    -0.071 C  
HETATM   34  C   UNL     1      -8.944   8.754  68.769  1.00  0.00    -0.138 C  
HETATM   35  C   UNL     1      -8.836  10.035  69.632  1.00  0.00    -0.217 C  
BRANCH  17  36
HETATM   36  C   UNL     1      -5.847   9.608  66.813  1.00  0.00    -0.055 C  
HETATM   37  C   UNL     1      -5.142  10.576  67.415  1.00  0.00    -0.037 C  
ENDBRANCH  17  36
ENDBRANCH  14  15
ENDBRANCH  12  14
ENDBRANCH  11  12
ENDBRANCH  10  11
ENDBRANCH   8  10
TORSDOF 6
ENDMDL
MODEL      189
REMARK 921   NORMALIZED FREE ENERGY PREDICTED BY IDOCK:   -1.11 KCAL/MOL
REMARK 922        TOTAL FREE ENERGY PREDICTED BY IDOCK:   -3.25 KCAL/MOL
REMARK 923 INTER-LIGAND FREE ENERGY PREDICTED BY IDOCK:   -2.15 KCAL/MOL
REMARK 924 INTRA-LIGAND FREE ENERGY PREDICTED BY IDOCK:   -1.10 KCAL/MOL
REMARK 927      BINDING AFFINITY PREDICTED BY RF-SCORE:    0.00 PKD
ROOT
HETATM    1  C   UNL     1      -8.945   6.468  67.547  1.00  0.00    -0.110 C  
HETATM    2  C   UNL     1      -9.242   5.259  68.459  1.00  0.00    -0.138 C  
HETATM    3  C   UNL     1      -8.877   5.749  69.861  1.00  0.00    -0.130 C  
HETATM    4  C   UNL     1      -8.382   7.194  69.649  1.00  0.00    -0.133 C  
HETATM    5  C   UNL     1      -9.500   8.285  69.751  1.00  0.00    -0.163 C  
HETATM    6  N   UNL     1      -7.834   7.048  68.296  1.00  0.00    -0.116 NA 
HETATM    7  C   UNL     1      -7.220   8.206  67.702  1.00  0.00    -0.092 C  
HETATM    8  C   UNL     1     -10.272   8.615  68.441  1.00  0.00    -0.200 C  
HETATM    9  C   UNL     1     -10.118   7.484  67.356  1.00  0.00    -0.282 C  
ENDROOT
BRANCH   8  10
HETATM   10  S   UNL     1     -10.665  10.624  67.844  1.00  0.00    -0.271 SA 
BRANCH  10  11
HETATM   11  C   UNL     1     -11.283  10.758  66.074  1.00  0.00     0.303 C  
BRANCH  11  12
HETATM   12  C   UNL     1     -11.255  12.082  65.057  1.00  0.00    -0.320 C  
HETATM   13  O   UNL     1     -12.277  12.239  64.373  1.00  0.00    -0.410 OA 
BRANCH  12  14
HETATM   14  O   UNL     1     -10.218  12.991  64.871  1.00  0.00    -0.311 OA 
BRANCH  14  15
HETATM   15  C   UNL     1      -9.807  14.116  65.958  1.00  0.00    -0.309 C  
HETATM   16  C   UNL     1      -8.405  13.453  66.409  1.00  0.00     0.613 C  
HETATM   17  C   UNL     1      -7.389  14.207  67.307  1.00  0.00    -0.035 C  
HETATM   18  C   UNL     1      -9.764  17.163  69.199  1.00  0.00    -0.150 C  
HETATM   19  C   UNL     1      -5.936  13.674  67.367  1.00  0.00     0.158 C  
HETATM   20  C   UNL     1      -7.932  13.979  68.752  1.00  0.00    -0.081 C  
HETATM   21  O   UNL     1      -7.316  12.954  69.529  1.00  0.00    -0.302 OA 
HETATM   22  C   UNL     1      -8.102  15.269  69.512  1.00  0.00    -0.196 C  
HETATM   23  C   UNL     1     -10.160  17.538  67.752  1.00  0.00    -0.330 C  
HETATM   24  C   UNL     1      -9.639  15.659  69.586  1.00  0.00    -0.260 C  
HETATM   25  C   UNL     1      -7.304  15.299  70.841  1.00  0.00     1.463 C  
HETATM   26  H   UNL     1      -7.647  12.815  70.408  1.00  0.00     0.000 HD 
HETATM   27  C   UNL     1     -10.061  15.402  71.067  1.00  0.00     0.870 C  
HETATM   28  C   UNL     1     -11.556  15.424  71.117  1.00  0.00    -0.425 C  
HETATM   29  C   UNL     1     -11.915  14.875  69.764  1.00  0.00    -0.323 C  
HETATM   30  C   UNL     1     -10.698  14.771  68.768  1.00  0.00    -0.253 C  
HETATM   31  O   UNL     1     -13.022  14.429  69.582  1.00  0.00     0.080 OA 
HETATM   32  C   UNL     1     -10.933  14.968  67.150  1.00  0.00    -0.329 C  
HETATM   33  C   UNL     1     -12.470  14.667  66.913  1.00  0.00     0.217 C  
HETATM   34  C   UNL     1     -10.972  16.555  66.881  1.00  0.00     0.023 C  
HETATM   35  C   UNL     1     -11.033  16.868  65.367  1.00  0.00    -0.029 C  
BRANCH  17  36
HETATM   36  C   UNL     1      -7.332  15.623  66.715  1.00  0.00     0.010 C  
HETATM   37  C   UNL     1      -6.429  16.589  66.933  1.00  0.00    -0.190 C  
ENDBRANCH  17  36
ENDBRANCH  14  15
ENDBRANCH  12  14
ENDBRANCH  11  12
ENDBRANCH  10  11
ENDBRANCH   8  10
TORSDOF 6
ENDMDL
MODEL      190
REMARK 921   NORMALIZED FREE ENERGY PREDICTED BY IDOCK:   -1.00 KCAL/MOL
REMARK 922        TOTAL FREE ENERGY PREDICTED BY IDOCK:   -3.11 KCAL/MOL
REMARK 923 INTER-LIGAND FREE ENERGY PREDICTED BY IDOCK:   -2.96 KCAL/MOL
REMARK 924 INTRA-LIGAND FREE ENERGY PREDICTED BY IDOCK:   -0.14 KCAL/MOL
REMARK 927      BINDING AFFINITY PREDICTED BY RF-SCORE:    0.00 PKD
ROOT
HETATM    1  C   UNL     1      -8.665   8.798  66.598  1.00  0.00    -0.125 C  
HETATM    2  C   UNL     1      -7.838   7.725  67.335  1.00  0.00    -0.118 C  
HETATM    3  C   UNL     1      -7.080   8.507  68.408  1.00  0.00    -0.084 C  
HETATM    4  C   UNL     1      -7.514   9.973  68.197  1.00  0.00    -0.083 C  
HETATM    5  C   UNL     1      -8.772  10.401  69.024  1.00  0.00    -0.170 C  
HETATM    6  N   UNL     1      -7.755   9.930  66.751  1.00  0.00    -0.098 NA 
HETATM    7  C   UNL     1      -8.168  11.152  66.113  1.00  0.00    -0.128 C  
HETATM    8  C   UNL     1     -10.159  10.149  68.363  1.00  0.00    -0.164 C  
HETATM    9  C   UNL     1     -10.080   9.098  67.193  1.00  0.00    -0.301 C  
ENDROOT
BRANCH   8  10
HETATM   10  S   UNL     1     -11.692  11.630  68.368  1.00  0.00    -0.284 SA 
BRANCH  10  11
HETATM   11  C   UNL     1     -11.666  12.722  66.838  1.00  0.00    -0.380 C  
BRANCH  11  12
HETATM   12  C   UNL     1     -10.365  13.487  66.125  1.00  0.00    -0.296 C  
HETATM   13  O   UNL     1     -10.526  13.793  64.935  1.00  0.00    -0.377 OA 
BRANCH  12  14
HETATM   14  O   UNL     1      -9.131  13.780  66.697  1.00  0.00    -0.240 OA 
BRANCH  14  15
HETATM   15  C   UNL     1      -8.783  15.194  67.401  1.00  0.00    -0.190 C  
HETATM   16  C   UNL     1     -10.228  15.883  67.185  1.00  0.00    -0.278 C  
HETATM   17  C   UNL     1     -10.611  17.224  67.866  1.00  0.00    -0.384 C  
HETATM   18  C   UNL     1      -6.855  18.952  68.798  1.00  0.00    -0.311 C  
HETATM   19  C   UNL     1     -12.110  17.607  67.925  1.00  0.00     2.594 C  
HETATM   20  C   UNL     1      -9.985  18.305  66.931  1.00  0.00    -0.349 C  
HETATM   21  O   UNL     1     -10.851  18.944  65.996  1.00  0.00    -0.341 OA 
HETATM   22  C   UNL     1      -9.113  19.278  67.682  1.00  0.00    -0.354 C  
HETATM   23  C   UNL     1      -6.596  17.605  69.512  1.00  0.00    -0.149 C  
HETATM   24  C   UNL     1      -7.582  18.953  67.420  1.00  0.00    -0.245 C  
HETATM   25  C   UNL     1      -9.559  20.753  67.505  1.00  0.00    -0.439 C  
HETATM   26  H   UNL     1     -10.470  19.602  65.427  1.00  0.00     0.000 HD 
HETATM   27  C   UNL     1      -7.068  20.098  66.491  1.00  0.00    -0.284 C  
HETATM   28  C   UNL     1      -5.746  19.669  65.940  1.00  0.00    -0.180 C  
HETATM   29  C   UNL     1      -5.923  18.179  65.846  1.00  0.00    -0.218 C  
HETATM   30  C   UNL     1      -7.209  17.637  66.579  1.00  0.00    -0.287 C  
HETATM   31  O   UNL     1      -5.193  17.541  65.126  1.00  0.00    -0.057 OA 
HETATM   32  C   UNL     1      -7.201  16.139  67.265  1.00  0.00    -0.232 C  
HETATM   33  C   UNL     1      -6.040  15.351  66.529  1.00  0.00     2.127 C  
HETATM   34  C   UNL     1      -6.491  16.295  68.701  1.00  0.00    -0.126 C  
HETATM   35  C   UNL     1      -6.564  14.978  69.512  1.00  0.00    -0.155 C  
BRANCH  17  36
HETATM   36  C   UNL     1     -10.120  17.072  69.312  1.00  0.00    -0.208 C  
HETATM   37  C   UNL     1     -10.709  16.442  70.339  1.00  0.00    -0.048 C  
ENDBRANCH  17  36
ENDBRANCH  14  15
ENDBRANCH  12  14
ENDBRANCH  11  12
ENDBRANCH  10  11
ENDBRANCH   8  10
TORSDOF 6
ENDMDL
MODEL      191
REMARK 921   NORMALIZED FREE ENERGY PREDICTED BY IDOCK:   -0.94 KCAL/MOL
REMARK 922        TOTAL FREE ENERGY PREDICTED BY IDOCK:   -3.02 KCAL/MOL
REMARK 923 INTER-LIGAND FREE ENERGY PREDICTED BY IDOCK:   -2.37 KCAL/MOL
REMARK 924 INTRA-LIGAND FREE ENERGY PREDICTED BY IDOCK:   -0.64 KCAL/MOL
REMARK 927      BINDING AFFINITY PREDICTED BY RF-SCORE:    0.00 PKD
ROOT
HETATM    1  C   UNL     1     -13.824   8.842  71.374  1.00  0.00    -0.255 C  
HETATM    2  C   UNL     1     -13.924   9.023  72.903  1.00  0.00    -0.082 C  
HETATM    3  C   UNL     1     -12.603   8.468  73.434  1.00  0.00     1.748 C  
HETATM    4  C   UNL     1     -11.849   7.993  72.175  1.00  0.00    -0.349 C  
HETATM    5  C   UNL     1     -10.927   9.078  71.523  1.00  0.00    -0.418 C  
HETATM    6  N   UNL     1     -13.003   7.635  71.344  1.00  0.00    -0.333 NA 
HETATM    7  C   UNL     1     -12.735   7.097  70.036  1.00  0.00     1.028 C  
HETATM    8  C   UNL     1     -11.592  10.018  70.476  1.00  0.00    -0.323 C  
HETATM    9  C   UNL     1     -13.163  10.022  70.589  1.00  0.00    -0.174 C  
ENDROOT
BRANCH   8  10
HETATM   10  S   UNL     1     -10.653  10.471  68.617  1.00  0.00    -0.217 SA 
BRANCH  10  11
HETATM   11  C   UNL     1     -11.133   9.285  67.240  1.00  0.00     0.290 C  
BRANCH  11  12
HETATM   12  C   UNL     1     -10.477   7.794  66.871  1.00  0.00    -0.317 C  
HETATM   13  O   UNL     1     -11.265   6.841  66.948  1.00  0.00    -0.375 OA 
BRANCH  12  14
HETATM   14  O   UNL     1      -9.159   7.506  66.529  1.00  0.00    -0.153 OA 
BRANCH  14  15
HETATM   15  C   UNL     1      -7.917   8.498  66.831  1.00  0.00    -0.095 C  
HETATM   16  C   UNL     1      -7.656   8.029  68.354  1.00  0.00    -0.108 C  
HETATM   17  C   UNL     1      -6.400   8.475  69.148  1.00  0.00    -0.043 C  
HETATM   18  C   UNL     1      -5.126  11.952  67.088  1.00  0.00    -0.106 C  
HETATM   19  C   UNL     1      -6.032   7.687  70.430  1.00  0.00    -0.030 C  
HETATM   20  C   UNL     1      -6.782   9.892  69.678  1.00  0.00    -0.061 C  
HETATM   21  O   UNL     1      -7.232   9.989  71.028  1.00  0.00    -0.324 OA 
HETATM   22  C   UNL     1      -5.751  10.934  69.328  1.00  0.00    -0.041 C  
HETATM   23  C   UNL     1      -5.143  11.026  65.849  1.00  0.00    -0.132 C  
HETATM   24  C   UNL     1      -6.274  11.840  68.135  1.00  0.00    -0.050 C  
HETATM   25  C   UNL     1      -5.184  11.667  70.571  1.00  0.00    -0.117 C  
HETATM   26  H   UNL     1      -7.465  10.851  71.350  1.00  0.00     0.000 HD 
HETATM   27  C   UNL     1      -6.611  13.221  68.780  1.00  0.00    -0.099 C  
HETATM   28  C   UNL     1      -7.417  13.995  67.787  1.00  0.00    -0.169 C  
HETATM   29  C   UNL     1      -8.172  12.899  67.086  1.00  0.00    -0.139 C  
HETATM   30  C   UNL     1      -7.658  11.448  67.422  1.00  0.00    -0.124 C  
HETATM   31  O   UNL     1      -9.170  13.174  66.464  1.00  0.00    -0.241 OA 
HETATM   32  C   UNL     1      -7.746  10.256  66.288  1.00  0.00    -0.116 C  
HETATM   33  C   UNL     1      -8.867  10.729  65.273  1.00  0.00    -0.200 C  
HETATM   34  C   UNL     1      -6.474  10.446  65.322  1.00  0.00    -0.105 C  
HETATM   35  C   UNL     1      -6.360   9.285  64.304  1.00  0.00    -0.085 C  
BRANCH  17  36
HETATM   36  C   UNL     1      -5.240   8.305  68.158  1.00  0.00    -0.034 C  
HETATM   37  C   UNL     1      -5.170   7.525  67.070  1.00  0.00    -0.023 C  
ENDBRANCH  17  36
ENDBRANCH  14  15
ENDBRANCH  12  14
ENDBRANCH  11  12
ENDBRANCH  10  11
ENDBRANCH   8  10
TORSDOF 6
ENDMDL
MODEL      192
REMARK 921   NORMALIZED FREE ENERGY PREDICTED BY IDOCK:   -0.86 KCAL/MOL
REMARK 922        TOTAL FREE ENERGY PREDICTED BY IDOCK:   -2.92 KCAL/MOL
REMARK 923 INTER-LIGAND FREE ENERGY PREDICTED BY IDOCK:   -1.51 KCAL/MOL
REMARK 924 INTRA-LIGAND FREE ENERGY PREDICTED BY IDOCK:   -1.41 KCAL/MOL
REMARK 927      BINDING AFFINITY PREDICTED BY RF-SCORE:    0.00 PKD
ROOT
HETATM    1  C   UNL     1      -8.013   3.375  71.424  1.00  0.00    -0.060 C  
HETATM    2  C   UNL     1      -9.265   2.744  70.780  1.00  0.00    -0.204 C  
HETATM    3  C   UNL     1     -10.116   3.942  70.360  1.00  0.00     0.115 C  
HETATM    4  C   UNL     1      -9.299   5.172  70.808  1.00  0.00    -0.160 C  
HETATM    5  C   UNL     1      -8.308   5.722  69.729  1.00  0.00    -0.112 C  
HETATM    6  N   UNL     1      -8.625   4.583  71.971  1.00  0.00    -0.112 NA 
HETATM    7  C   UNL     1      -7.750   5.436  72.731  1.00  0.00    -0.098 C  
HETATM    8  C   UNL     1      -6.886   5.090  69.703  1.00  0.00    -0.052 C  
HETATM    9  C   UNL     1      -6.835   3.703  70.449  1.00  0.00    -0.034 C  
ENDROOT
BRANCH   8  10
HETATM   10  S   UNL     1      -5.127   6.284  69.547  1.00  0.00    -0.013 SA 
BRANCH  10  11
HETATM   11  C   UNL     1      -5.485   8.129  69.586  1.00  0.00    -0.026 C  
BRANCH  11  12
HETATM   12  C   UNL     1      -6.192   9.029  70.803  1.00  0.00    -0.048 C  
HETATM   13  O   UNL     1      -6.428   8.404  71.846  1.00  0.00    -0.055 OA 
BRANCH  12  14
HETATM   14  O   UNL     1      -6.569  10.368  70.762  1.00  0.00    -0.327 OA 
BRANCH  14  15
HETATM   15  C   UNL     1      -7.460  11.012  69.575  1.00  0.00    -0.026 C  
HETATM   16  C   UNL     1      -8.809  10.169  69.862  1.00  0.00    -0.089 C  
HETATM   17  C   UNL     1     -10.153  10.507  69.166  1.00  0.00    -0.240 C  
HETATM   18  C   UNL     1      -8.957  12.696  65.739  1.00  0.00     0.397 C  
HETATM   19  C   UNL     1     -11.453   9.924  69.773  1.00  0.00    -0.194 C  
HETATM   20  C   UNL     1     -10.039   9.803  67.778  1.00  0.00    -0.180 C  
HETATM   21  O   UNL     1     -10.688   8.542  67.628  1.00  0.00    -0.424 OA 
HETATM   22  C   UNL     1     -10.312  10.743  66.633  1.00  0.00    -0.294 C  
HETATM   23  C   UNL     1      -8.210  13.580  66.766  1.00  0.00     0.183 C  
HETATM   24  C   UNL     1      -8.951  11.149  65.925  1.00  0.00    -0.210 C  
HETATM   25  C   UNL     1     -11.465  10.261  65.715  1.00  0.00     1.658 C  
HETATM   26  H   UNL     1     -10.618   8.113  66.783  1.00  0.00     0.000 HD 
HETATM   27  C   UNL     1      -8.956  10.399  64.555  1.00  0.00    -0.241 C  
HETATM   28  C   UNL     1      -7.569  10.468  64.001  1.00  0.00     0.077 C  
HETATM   29  C   UNL     1      -6.738  10.455  65.254  1.00  0.00    -0.100 C  
HETATM   30  C   UNL     1      -7.568  10.659  66.578  1.00  0.00    -0.134 C  
HETATM   31  O   UNL     1      -5.571  10.153  65.187  1.00  0.00    -0.077 OA 
HETATM   32  C   UNL     1      -6.894  11.431  67.867  1.00  0.00    -0.072 C  
HETATM   33  C   UNL     1      -5.329  11.303  67.657  1.00  0.00    -0.043 C  
HETATM   34  C   UNL     1      -7.029  13.009  67.581  1.00  0.00    -0.154 C  
HETATM   35  C   UNL     1      -6.569  13.845  68.799  1.00  0.00    -0.098 C  
BRANCH  17  36
HETATM   36  C   UNL     1     -10.255  12.037  69.252  1.00  0.00     0.245 C  
HETATM   37  C   UNL     1     -11.353  12.806  69.280  1.00  0.00    -0.307 C  
ENDBRANCH  17  36
ENDBRANCH  14  15
ENDBRANCH  12  14
ENDBRANCH  11  12
ENDBRANCH  10  11
ENDBRANCH   8  10
TORSDOF 6
ENDMDL
MODEL      193
REMARK 921   NORMALIZED FREE ENERGY PREDICTED BY IDOCK:   -0.74 KCAL/MOL
REMARK 922        TOTAL FREE ENERGY PREDICTED BY IDOCK:   -2.75 KCAL/MOL
REMARK 923 INTER-LIGAND FREE ENERGY PREDICTED BY IDOCK:   -2.61 KCAL/MOL
REMARK 924 INTRA-LIGAND FREE ENERGY PREDICTED BY IDOCK:   -0.14 KCAL/MOL
REMARK 927      BINDING AFFINITY PREDICTED BY RF-SCORE:    0.00 PKD
ROOT
HETATM    1  C   UNL     1      -6.962   8.056  62.790  1.00  0.00    -0.086 C  
HETATM    2  C   UNL     1      -6.625   6.551  62.792  1.00  0.00    -0.034 C  
HETATM    3  C   UNL     1      -6.084   6.289  64.198  1.00  0.00    -0.029 C  
HETATM    4  C   UNL     1      -6.132   7.666  64.893  1.00  0.00    -0.038 C  
HETATM    5  C   UNL     1      -7.468   7.961  65.654  1.00  0.00    -0.081 C  
HETATM    6  N   UNL     1      -5.932   8.519  63.717  1.00  0.00    -0.071 NA 
HETATM    7  C   UNL     1      -5.880   9.941  63.932  1.00  0.00    -0.118 C  
HETATM    8  C   UNL     1      -8.613   8.611  64.824  1.00  0.00    -0.111 C  
HETATM    9  C   UNL     1      -8.400   8.436  63.273  1.00  0.00    -0.075 C  
ENDROOT
BRANCH   8  10
HETATM   10  S   UNL     1      -9.748  10.254  65.568  1.00  0.00    -0.285 SA 
BRANCH  10  11
HETATM   11  C   UNL     1     -10.900  10.997  64.281  1.00  0.00    -0.192 C  
BRANCH  11  12
HETATM   12  C   UNL     1     -12.235  11.972  64.515  1.00  0.00    -0.241 C  
HETATM   13  O   UNL     1     -12.970  12.100  63.526  1.00  0.00    -0.794 OA 
BRANCH  12  14
HETATM   14  O   UNL     1     -12.587  12.671  65.665  1.00  0.00    -0.611 OA 
BRANCH  14  15
HETATM   15  C   UNL     1     -11.557  13.596  66.503  1.00  0.00    -0.366 C  
HETATM   16  C   UNL     1     -12.330  13.521  67.919  1.00  0.00     0.025 C  
HETATM   17  C   UNL     1     -11.695  14.049  69.232  1.00  0.00    -0.372 C  
HETATM   18  C   UNL     1      -8.721  16.741  67.866  1.00  0.00    -0.203 C  
HETATM   19  C   UNL     1     -12.319  13.594  70.575  1.00  0.00    -0.425 C  
HETATM   20  C   UNL     1     -11.978  15.583  69.189  1.00  0.00    -0.309 C  
HETATM   21  O   UNL     1     -13.084  16.068  69.947  1.00  0.00    -0.560 OA 
HETATM   22  C   UNL     1     -10.729  16.403  69.383  1.00  0.00    -0.324 C  
HETATM   23  C   UNL     1      -8.235  15.528  67.038  1.00  0.00    -0.275 C  
HETATM   24  C   UNL     1     -10.251  17.007  67.996  1.00  0.00    -0.319 C  
HETATM   25  C   UNL     1     -10.828  17.384  70.581  1.00  0.00     1.233 C  
HETATM   26  H   UNL     1     -13.255  17.001  69.921  1.00  0.00     0.000 HD 
HETATM   27  C   UNL     1     -10.572  18.533  68.076  1.00  0.00    -0.347 C  
HETATM   28  C   UNL     1     -10.462  19.087  66.691  1.00  0.00    -0.517 C  
HETATM   29  C   UNL     1     -10.905  17.916  65.857  1.00  0.00     0.041 C  
HETATM   30  C   UNL     1     -11.021  16.564  66.659  1.00  0.00     0.060 C  
HETATM   31  O   UNL     1     -11.271  18.103  64.722  1.00  0.00    -0.543 OA 
HETATM   32  C   UNL     1     -10.712  15.129  65.911  1.00  0.00    -0.341 C  
HETATM   33  C   UNL     1     -10.905  15.415  64.365  1.00  0.00     0.066 C  
HETATM   34  C   UNL     1      -9.113  14.948  65.907  1.00  0.00     0.022 C  
HETATM   35  C   UNL     1      -8.704  13.556  65.368  1.00  0.00     1.956 C  
BRANCH  17  36
HETATM   36  C   UNL     1     -10.252  13.526  69.197  1.00  0.00     0.137 C  
HETATM   37  C   UNL     1      -9.180  13.973  69.865  1.00  0.00     1.519 C  
ENDBRANCH  17  36
ENDBRANCH  14  15
ENDBRANCH  12  14
ENDBRANCH  11  12
ENDBRANCH  10  11
ENDBRANCH   8  10
TORSDOF 6
ENDMDL
MODEL      194
REMARK 921   NORMALIZED FREE ENERGY PREDICTED BY IDOCK:   -0.73 KCAL/MOL
REMARK 922        TOTAL FREE ENERGY PREDICTED BY IDOCK:   -2.74 KCAL/MOL
REMARK 923 INTER-LIGAND FREE ENERGY PREDICTED BY IDOCK:   -1.69 KCAL/MOL
REMARK 924 INTRA-LIGAND FREE ENERGY PREDICTED BY IDOCK:   -1.05 KCAL/MOL
REMARK 927      BINDING AFFINITY PREDICTED BY RF-SCORE:    0.00 PKD
ROOT
HETATM    1  C   UNL     1     -13.529   8.801  70.583  1.00  0.00     0.660 C  
HETATM    2  C   UNL     1     -13.913   8.368  72.013  1.00  0.00    -0.468 C  
HETATM    3  C   UNL     1     -12.572   8.119  72.703  1.00  0.00    -0.119 C  
HETATM    4  C   UNL     1     -11.517   8.409  71.615  1.00  0.00    -0.287 C  
HETATM    5  C   UNL     1     -11.019   9.893  71.573  1.00  0.00     0.035 C  
HETATM    6  N   UNL     1     -12.300   8.025  70.435  1.00  0.00     0.310 NA 
HETATM    7  C   UNL     1     -11.654   8.119  69.153  1.00  0.00     0.981 C  
HETATM    8  C   UNL     1     -11.844  10.879  70.695  1.00  0.00    -0.352 C  
HETATM    9  C   UNL     1     -13.285  10.331  70.374  1.00  0.00     0.011 C  
ENDROOT
BRANCH   8  10
HETATM   10  S   UNL     1     -10.904  12.258  69.369  1.00  0.00     0.149 SA 
BRANCH  10  11
HETATM   11  C   UNL     1     -11.161  11.828  67.557  1.00  0.00    -0.291 C  
BRANCH  11  12
HETATM   12  C   UNL     1     -10.411  10.644  66.649  1.00  0.00    -0.237 C  
HETATM   13  O   UNL     1     -11.111   9.651  66.402  1.00  0.00     0.255 OA 
BRANCH  12  14
HETATM   14  O   UNL     1      -9.102  10.633  66.180  1.00  0.00    -0.160 OA 
BRANCH  14  15
HETATM   15  C   UNL     1      -8.092   9.383  66.367  1.00  0.00    -0.108 C  
HETATM   16  C   UNL     1      -8.513   8.588  65.025  1.00  0.00    -0.183 C  
HETATM   17  C   UNL     1      -7.709   7.366  64.507  1.00  0.00    -0.126 C  
HETATM   18  C   UNL     1      -5.625   6.037  67.950  1.00  0.00    -0.008 C  
HETATM   19  C   UNL     1      -7.934   6.916  63.042  1.00  0.00    -0.081 C  
HETATM   20  C   UNL     1      -8.259   6.176  65.353  1.00  0.00    -0.145 C  
HETATM   21  O   UNL     1      -9.240   5.338  64.746  1.00  0.00    -0.351 OA 
HETATM   22  C   UNL     1      -7.161   5.398  66.031  1.00  0.00    -0.076 C  
HETATM   23  C   UNL     1      -5.127   7.500  68.012  1.00  0.00    -0.025 C  
HETATM   24  C   UNL     1      -7.112   5.757  67.576  1.00  0.00    -0.074 C  
HETATM   25  C   UNL     1      -7.168   3.892  65.660  1.00  0.00    -0.071 C  
HETATM   26  H   UNL     1      -9.575   4.614  65.261  1.00  0.00     0.000 HD 
HETATM   27  C   UNL     1      -7.671   4.499  68.313  1.00  0.00    -0.080 C  
HETATM   28  C   UNL     1      -7.965   4.900  69.723  1.00  0.00    -0.070 C  
HETATM   29  C   UNL     1      -8.366   6.339  69.555  1.00  0.00    -0.118 C  
HETATM   30  C   UNL     1      -8.066   6.927  68.124  1.00  0.00    -0.119 C  
HETATM   31  O   UNL     1      -8.999   6.883  70.428  1.00  0.00    -0.151 OA 
HETATM   32  C   UNL     1      -7.680   8.519  67.947  1.00  0.00    -0.103 C  
HETATM   33  C   UNL     1      -8.253   9.232  69.240  1.00  0.00    -0.108 C  
HETATM   34  C   UNL     1      -6.114   8.653  68.292  1.00  0.00    -0.050 C  
HETATM   35  C   UNL     1      -5.595  10.084  68.009  1.00  0.00    -0.038 C  
BRANCH  17  36
HETATM   36  C   UNL     1      -6.240   7.792  64.633  1.00  0.00    -0.045 C  
HETATM   37  C   UNL     1      -5.387   8.168  63.669  1.00  0.00    -0.049 C  
ENDBRANCH  17  36
ENDBRANCH  14  15
ENDBRANCH  12  14
ENDBRANCH  11  12
ENDBRANCH  10  11
ENDBRANCH   8  10
TORSDOF 6
ENDMDL
MODEL      195
REMARK 921   NORMALIZED FREE ENERGY PREDICTED BY IDOCK:   -0.68 KCAL/MOL
REMARK 922        TOTAL FREE ENERGY PREDICTED BY IDOCK:   -2.67 KCAL/MOL
REMARK 923 INTER-LIGAND FREE ENERGY PREDICTED BY IDOCK:   -2.12 KCAL/MOL
REMARK 924 INTRA-LIGAND FREE ENERGY PREDICTED BY IDOCK:   -0.55 KCAL/MOL
REMARK 927      BINDING AFFINITY PREDICTED BY RF-SCORE:    0.00 PKD
ROOT
HETATM    1  C   UNL     1      -8.506   4.377  66.884  1.00  0.00    -0.104 C  
HETATM    2  C   UNL     1      -9.181   3.955  65.562  1.00  0.00    -0.151 C  
HETATM    3  C   UNL     1     -10.677   3.984  65.879  1.00  0.00     0.638 C  
HETATM    4  C   UNL     1     -10.750   4.403  67.362  1.00  0.00     1.007 C  
HETATM    5  C   UNL     1     -10.850   5.948  67.596  1.00  0.00    -0.331 C  
HETATM    6  N   UNL     1      -9.481   3.827  67.821  1.00  0.00    -0.190 NA 
HETATM    7  C   UNL     1      -9.155   3.971  69.215  1.00  0.00    -0.131 C  
HETATM    8  C   UNL     1      -9.506   6.726  67.692  1.00  0.00    -0.118 C  
HETATM    9  C   UNL     1      -8.301   5.915  67.085  1.00  0.00    -0.105 C  
ENDROOT
BRANCH   8  10
HETATM   10  S   UNL     1      -9.158   8.183  69.209  1.00  0.00    -0.151 SA 
BRANCH  10  11
HETATM   11  C   UNL     1      -8.752   9.883  68.518  1.00  0.00    -0.121 C  
BRANCH  11  12
HETATM   12  C   UNL     1      -7.279  10.669  68.480  1.00  0.00    -0.086 C  
HETATM   13  O   UNL     1      -6.375  10.118  69.123  1.00  0.00    -0.043 OA 
BRANCH  12  14
HETATM   14  O   UNL     1      -6.971  11.869  67.846  1.00  0.00    -0.074 OA 
BRANCH  14  15
HETATM   15  C   UNL     1      -7.857  13.214  67.994  1.00  0.00    -0.147 C  
HETATM   16  C   UNL     1      -9.017  12.803  66.946  1.00  0.00    -0.213 C  
HETATM   17  C   UNL     1     -10.327  13.622  66.806  1.00  0.00    -0.268 C  
HETATM   18  C   UNL     1      -9.292  17.404  68.413  1.00  0.00    -0.285 C  
HETATM   19  C   UNL     1     -11.526  12.957  66.084  1.00  0.00    -0.393 C  
HETATM   20  C   UNL     1      -9.928  14.799  65.862  1.00  0.00    -0.326 C  
HETATM   21  O   UNL     1     -10.274  14.681  64.484  1.00  0.00    -0.467 OA 
HETATM   22  C   UNL     1     -10.280  16.144  66.443  1.00  0.00    -0.315 C  
HETATM   23  C   UNL     1      -8.857  16.578  69.647  1.00  0.00     0.451 C  
HETATM   24  C   UNL     1      -8.974  16.862  66.987  1.00  0.00    -0.232 C  
HETATM   25  C   UNL     1     -11.208  16.978  65.520  1.00  0.00     0.370 C  
HETATM   26  H   UNL     1     -10.031  15.397  63.910  1.00  0.00     0.000 HD 
HETATM   27  C   UNL     1      -8.684  18.017  65.978  1.00  0.00    -0.009 C  
HETATM   28  C   UNL     1      -7.295  18.506  66.242  1.00  0.00    -0.290 C  
HETATM   29  C   UNL     1      -6.609  17.246  66.694  1.00  0.00    -0.232 C  
HETATM   30  C   UNL     1      -7.591  16.047  66.984  1.00  0.00    -0.265 C  
HETATM   31  O   UNL     1      -5.403  17.185  66.661  1.00  0.00    -0.163 OA 
HETATM   32  C   UNL     1      -7.227  14.944  68.151  1.00  0.00    -0.124 C  
HETATM   33  C   UNL     1      -5.658  15.043  68.344  1.00  0.00    -0.108 C  
HETATM   34  C   UNL     1      -7.668  15.598  69.555  1.00  0.00    -0.185 C  
HETATM   35  C   UNL     1      -7.519  14.588  70.718  1.00  0.00     1.425 C  
BRANCH  17  36
HETATM   36  C   UNL     1     -10.761  13.901  68.252  1.00  0.00    -0.261 C  
HETATM   37  C   UNL     1     -10.980  13.029  69.247  1.00  0.00    -0.122 C  
ENDBRANCH  17  36
ENDBRANCH  14  15
ENDBRANCH  12  14
ENDBRANCH  11  12
ENDBRANCH  10  11
ENDBRANCH   8  10
TORSDOF 6
ENDMDL
MODEL      196
REMARK 921   NORMALIZED FREE ENERGY PREDICTED BY IDOCK:   -0.58 KCAL/MOL
REMARK 922        TOTAL FREE ENERGY PREDICTED BY IDOCK:   -2.53 KCAL/MOL
REMARK 923 INTER-LIGAND FREE ENERGY PREDICTED BY IDOCK:   -1.52 KCAL/MOL
REMARK 924 INTRA-LIGAND FREE ENERGY PREDICTED BY IDOCK:   -1.02 KCAL/MOL
REMARK 927      BINDING AFFINITY PREDICTED BY RF-SCORE:    0.00 PKD
ROOT
HETATM    1  C   UNL     1      -6.539  11.180  66.002  1.00  0.00     0.035 C  
HETATM    2  C   UNL     1      -5.469  11.995  66.756  1.00  0.00     0.009 C  
HETATM    3  C   UNL     1      -6.275  12.985  67.598  1.00  0.00    -0.158 C  
HETATM    4  C   UNL     1      -7.747  12.678  67.252  1.00  0.00    -0.140 C  
HETATM    5  C   UNL     1      -8.422  11.612  68.179  1.00  0.00    -0.156 C  
HETATM    6  N   UNL     1      -7.561  12.215  65.872  1.00  0.00     1.050 NA 
HETATM    7  C   UNL     1      -8.740  11.839  65.137  1.00  0.00     0.516 C  
HETATM    8  C   UNL     1      -8.264  10.122  67.757  1.00  0.00    -0.110 C  
HETATM    9  C   UNL     1      -7.079   9.911  66.741  1.00  0.00    -0.090 C  
ENDROOT
BRANCH   8  10
HETATM   10  S   UNL     1      -9.911   8.769  67.772  1.00  0.00    -0.207 SA 
BRANCH  10  11
HETATM   11  C   UNL     1     -10.807   8.719  69.425  1.00  0.00    -0.110 C  
BRANCH  11  12
HETATM   12  C   UNL     1     -10.539   9.650  70.785  1.00  0.00    -0.322 C  
HETATM   13  O   UNL     1     -11.368  10.551  70.974  1.00  0.00    -0.257 OA 
BRANCH  12  14
HETATM   14  O   UNL     1      -9.488   9.549  71.691  1.00  0.00    -0.167 OA 
BRANCH  14  15
HETATM   15  C   UNL     1      -8.444   8.315  71.720  1.00  0.00    -0.158 C  
HETATM   16  C   UNL     1      -7.521   8.809  70.489  1.00  0.00    -0.075 C  
HETATM   17  C   UNL     1      -6.166   8.131  70.153  1.00  0.00    -0.032 C  
HETATM   18  C   UNL     1      -6.496   4.323  71.984  1.00  0.00    -0.022 C  
HETATM   19  C   UNL     1      -5.181   8.893  69.232  1.00  0.00    -0.036 C  
HETATM   20  C   UNL     1      -6.575   6.882  69.311  1.00  0.00    -0.048 C  
HETATM   21  O   UNL     1      -6.469   6.984  67.893  1.00  0.00    -0.046 OA 
HETATM   22  C   UNL     1      -5.985   5.606  69.853  1.00  0.00    -0.024 C  
HETATM   23  C   UNL     1      -6.819   5.144  73.255  1.00  0.00    -0.075 C  
HETATM   24  C   UNL     1      -7.098   4.773  70.618  1.00  0.00    -0.045 C  
HETATM   25  C   UNL     1      -5.129   4.844  68.809  1.00  0.00     0.000 C  
HETATM   26  H   UNL     1      -6.718   6.225  67.381  1.00  0.00     0.000 HD 
HETATM   27  C   UNL     1      -7.413   3.556  69.693  1.00  0.00    -0.045 C  
HETATM   28  C   UNL     1      -8.678   2.930  70.191  1.00  0.00    -0.129 C  
HETATM   29  C   UNL     1      -9.420   4.125  70.723  1.00  0.00    -0.172 C  
HETATM   30  C   UNL     1      -8.547   5.432  70.824  1.00  0.00    -0.131 C  
HETATM   31  O   UNL     1     -10.615   4.054  70.886  1.00  0.00     0.369 OA 
HETATM   32  C   UNL     1      -8.841   6.534  72.013  1.00  0.00    -0.133 C  
HETATM   33  C   UNL     1     -10.338   6.273  72.461  1.00  0.00    -0.214 C  
HETATM   34  C   UNL     1      -8.111   5.986  73.338  1.00  0.00    -0.111 C  
HETATM   35  C   UNL     1      -8.184   7.017  74.490  1.00  0.00    -0.189 C  
BRANCH  17  36
HETATM   36  C   UNL     1      -5.478   7.956  71.514  1.00  0.00    -0.034 C  
HETATM   37  C   UNL     1      -5.428   8.809  72.547  1.00  0.00    -0.060 C  
ENDBRANCH  17  36
ENDBRANCH  14  15
ENDBRANCH  12  14
ENDBRANCH  11  12
ENDBRANCH  10  11
ENDBRANCH   8  10
TORSDOF 6
ENDMDL
MODEL      197
REMARK 921   NORMALIZED FREE ENERGY PREDICTED BY IDOCK:    0.05 KCAL/MOL
REMARK 922        TOTAL FREE ENERGY PREDICTED BY IDOCK:   -1.69 KCAL/MOL
REMARK 923 INTER-LIGAND FREE ENERGY PREDICTED BY IDOCK:   -1.59 KCAL/MOL
REMARK 924 INTRA-LIGAND FREE ENERGY PREDICTED BY IDOCK:   -0.10 KCAL/MOL
REMARK 927      BINDING AFFINITY PREDICTED BY RF-SCORE:    0.00 PKD
ROOT
HETATM    1  C   UNL     1      -7.714  13.023  69.292  1.00  0.00     0.461 C  
HETATM    2  C   UNL     1      -8.190  14.041  68.235  1.00  0.00    -0.153 C  
HETATM    3  C   UNL     1      -6.897  14.569  67.613  1.00  0.00    -0.203 C  
HETATM    4  C   UNL     1      -5.774  13.829  68.370  1.00  0.00    -0.101 C  
HETATM    5  C   UNL     1      -5.330  12.478  67.713  1.00  0.00    -0.104 C  
HETATM    6  N   UNL     1      -6.450  13.654  69.660  1.00  0.00    -0.109 NA 
HETATM    7  C   UNL     1      -5.712  13.004  70.711  1.00  0.00    -0.160 C  
HETATM    8  C   UNL     1      -6.122  11.206  68.135  1.00  0.00    -0.049 C  
HETATM    9  C   UNL     1      -7.513  11.556  68.786  1.00  0.00    -0.119 C  
ENDROOT
BRANCH   8  10
HETATM   10  S   UNL     1      -5.135   9.384  68.637  1.00  0.00    -0.033 SA 
BRANCH  10  11
HETATM   11  C   UNL     1      -5.131   9.034  70.484  1.00  0.00    -0.020 C  
BRANCH  11  12
HETATM   12  C   UNL     1      -5.937   9.844  71.701  1.00  0.00     0.157 C  
HETATM   13  O   UNL     1      -5.219  10.541  72.431  1.00  0.00    -0.307 OA 
BRANCH  12  14
HETATM   14  O   UNL     1      -7.295   9.794  72.001  1.00  0.00     0.430 OA 
BRANCH  14  15
HETATM   15  C   UNL     1      -8.348   8.836  71.235  1.00  0.00    -0.176 C  
HETATM   16  C   UNL     1      -9.670   9.714  71.537  1.00  0.00     0.572 C  
HETATM   17  C   UNL     1     -11.029   9.419  70.848  1.00  0.00    -0.391 C  
HETATM   18  C   UNL     1     -10.634   5.390  69.593  1.00  0.00    -0.328 C  
HETATM   19  C   UNL     1     -12.118  10.519  70.888  1.00  0.00    -0.487 C  
HETATM   20  C   UNL     1     -11.634   8.262  71.703  1.00  0.00    -0.284 C  
HETATM   21  O   UNL     1     -12.611   8.612  72.681  1.00  0.00    -0.507 OA 
HETATM   22  C   UNL     1     -12.042   7.080  70.862  1.00  0.00    -0.403 C  
HETATM   23  C   UNL     1      -9.349   5.903  68.901  1.00  0.00    -0.139 C  
HETATM   24  C   UNL     1     -10.984   5.907  71.021  1.00  0.00    -0.335 C  
HETATM   25  C   UNL     1     -13.537   6.705  71.030  1.00  0.00     0.481 C  
HETATM   26  H   UNL     1     -12.978   7.908  73.201  1.00  0.00     0.000 HD 
HETATM   27  C   UNL     1     -11.701   4.815  71.876  1.00  0.00     1.152 C  
HETATM   28  C   UNL     1     -10.656   3.852  72.340  1.00  0.00    -0.075 C  
HETATM   29  C   UNL     1      -9.458   4.749  72.489  1.00  0.00    -0.136 C  
HETATM   30  C   UNL     1      -9.649   6.185  71.869  1.00  0.00    -0.166 C  
HETATM   31  O   UNL     1      -8.530   4.388  73.172  1.00  0.00    -0.094 OA 
HETATM   32  C   UNL     1      -8.362   6.988  71.227  1.00  0.00    -0.114 C  
HETATM   33  C   UNL     1      -7.086   6.331  71.897  1.00  0.00    -0.085 C  
HETATM   34  C   UNL     1      -8.156   6.411  69.739  1.00  0.00    -0.121 C  
HETATM   35  C   UNL     1      -7.067   7.202  68.973  1.00  0.00    -0.084 C  
BRANCH  17  36
HETATM   36  C   UNL     1     -10.668   9.186  69.374  1.00  0.00    -0.210 C  
HETATM   37  C   UNL     1     -11.443   9.316  68.288  1.00  0.00     0.649 C  
ENDBRANCH  17  36
ENDBRANCH  14  15
ENDBRANCH  12  14
ENDBRANCH  11  12
ENDBRANCH  10  11
ENDBRANCH   8  10
TORSDOF 6
ENDMDL
MODEL      198
REMARK 921   NORMALIZED FREE ENERGY PREDICTED BY IDOCK:    0.05 KCAL/MOL
REMARK 922        TOTAL FREE ENERGY PREDICTED BY IDOCK:   -1.68 KCAL/MOL
REMARK 923 INTER-LIGAND FREE ENERGY PREDICTED BY IDOCK:   -1.20 KCAL/MOL
REMARK 924 INTRA-LIGAND FREE ENERGY PREDICTED BY IDOCK:   -0.48 KCAL/MOL
REMARK 927      BINDING AFFINITY PREDICTED BY RF-SCORE:    0.00 PKD
ROOT
HETATM    1  C   UNL     1      -6.067  19.805  66.213  1.00  0.00    -0.168 C  
HETATM    2  C   UNL     1      -5.226  18.942  65.249  1.00  0.00    -0.200 C  
HETATM    3  C   UNL     1      -5.131  17.585  65.946  1.00  0.00    -0.149 C  
HETATM    4  C   UNL     1      -5.908  17.773  67.266  1.00  0.00    -0.137 C  
HETATM    5  C   UNL     1      -7.431  17.423  67.178  1.00  0.00    -0.219 C  
HETATM    6  N   UNL     1      -5.652  19.202  67.476  1.00  0.00    -0.177 NA 
HETATM    7  C   UNL     1      -6.198  19.805  68.663  1.00  0.00    -0.261 C  
HETATM    8  C   UNL     1      -8.385  18.570  66.734  1.00  0.00    -0.269 C  
HETATM    9  C   UNL     1      -7.617  19.740  66.013  1.00  0.00    -0.340 C  
ENDROOT
BRANCH   8  10
HETATM   10  S   UNL     1     -10.220  18.960  67.746  1.00  0.00    -0.414 SA 
BRANCH  10  11
HETATM   11  C   UNL     1     -11.010  17.411  68.462  1.00  0.00    -0.072 C  
BRANCH  11  12
HETATM   12  C   UNL     1     -10.285  16.166  69.307  1.00  0.00    -0.257 C  
HETATM   13  O   UNL     1      -9.072  16.310  69.514  1.00  0.00    -0.156 OA 
BRANCH  12  14
HETATM   14  O   UNL     1     -10.875  14.991  69.763  1.00  0.00    -0.256 OA 
BRANCH  14  15
HETATM   15  C   UNL     1     -10.856  13.600  68.938  1.00  0.00    -0.235 C  
HETATM   16  C   UNL     1     -10.950  12.613  70.213  1.00  0.00     1.134 C  
HETATM   17  C   UNL     1     -11.202  11.090  70.058  1.00  0.00    -0.303 C  
HETATM   18  C   UNL     1     -10.037  10.308  66.059  1.00  0.00    -0.311 C  
HETATM   19  C   UNL     1     -11.660  10.298  71.308  1.00  0.00    -0.318 C  
HETATM   20  C   UNL     1      -9.787  10.510  69.747  1.00  0.00    -0.005 C  
HETATM   21  O   UNL     1      -9.068   9.920  70.827  1.00  0.00    -0.340 OA 
HETATM   22  C   UNL     1      -9.776   9.662  68.501  1.00  0.00    -0.161 C  
HETATM   23  C   UNL     1     -11.035  11.440  65.720  1.00  0.00    -0.256 C  
HETATM   24  C   UNL     1      -9.110  10.462  67.303  1.00  0.00    -0.146 C  
HETATM   25  C   UNL     1      -9.264   8.220  68.755  1.00  0.00    -0.143 C  
HETATM   26  H   UNL     1      -8.207   9.567  70.637  1.00  0.00     0.000 HD 
HETATM   27  C   UNL     1      -7.719   9.790  67.078  1.00  0.00    -0.095 C  
HETATM   28  C   UNL     1      -6.916  10.702  66.206  1.00  0.00    -0.133 C  
HETATM   29  C   UNL     1      -7.426  12.053  66.626  1.00  0.00     0.119 C  
HETATM   30  C   UNL     1      -8.715  12.001  67.531  1.00  0.00    -0.166 C  
HETATM   31  O   UNL     1      -6.766  13.035  66.384  1.00  0.00     0.987 OA 
HETATM   32  C   UNL     1      -9.833  13.208  67.450  1.00  0.00    -0.226 C  
HETATM   33  C   UNL     1      -9.057  14.454  66.855  1.00  0.00    -0.269 C  
HETATM   34  C   UNL     1     -10.760  12.890  66.173  1.00  0.00    -0.290 C  
HETATM   35  C   UNL     1     -11.951  13.875  66.083  1.00  0.00    -0.449 C  
BRANCH  17  36
HETATM   36  C   UNL     1     -12.326  10.992  69.018  1.00  0.00     0.006 C  
HETATM   37  C   UNL     1     -13.650  10.919  69.214  1.00  0.00     3.478 C  
ENDBRANCH  17  36
ENDBRANCH  14  15
ENDBRANCH  12  14
ENDBRANCH  11  12
ENDBRANCH  10  11
ENDBRANCH   8  10
TORSDOF 6
ENDMDL
MODEL      199
REMARK 921   NORMALIZED FREE ENERGY PREDICTED BY IDOCK:    0.26 KCAL/MOL
REMARK 922        TOTAL FREE ENERGY PREDICTED BY IDOCK:   -1.40 KCAL/MOL
REMARK 923 INTER-LIGAND FREE ENERGY PREDICTED BY IDOCK:   -1.17 KCAL/MOL
REMARK 924 INTRA-LIGAND FREE ENERGY PREDICTED BY IDOCK:   -0.23 KCAL/MOL
REMARK 927      BINDING AFFINITY PREDICTED BY RF-SCORE:    0.00 PKD
ROOT
HETATM    1  C   UNL     1      -8.682   4.331  70.770  1.00  0.00    -0.087 C  
HETATM    2  C   UNL     1     -10.145   3.899  71.004  1.00  0.00    -0.036 C  
HETATM    3  C   UNL     1     -10.904   5.216  71.167  1.00  0.00    -0.060 C  
HETATM    4  C   UNL     1      -9.820   6.306  71.033  1.00  0.00    -0.181 C  
HETATM    5  C   UNL     1      -9.595   6.821  69.572  1.00  0.00    -0.148 C  
HETATM    6  N   UNL     1      -8.679   5.555  71.567  1.00  0.00    -0.134 NA 
HETATM    7  C   UNL     1      -7.417   6.241  71.651  1.00  0.00    -0.094 C  
HETATM    8  C   UNL     1      -8.568   6.035  68.707  1.00  0.00    -0.112 C  
HETATM    9  C   UNL     1      -8.277   4.598  69.283  1.00  0.00    -0.077 C  
ENDROOT
BRANCH   8  10
HETATM   10  S   UNL     1      -7.098   7.029  67.526  1.00  0.00    -0.087 SA 
BRANCH  10  11
HETATM   11  C   UNL     1      -6.872   8.835  67.999  1.00  0.00    -0.070 C  
BRANCH  11  12
HETATM   12  C   UNL     1      -7.208   9.582  69.454  1.00  0.00    -0.064 C  
HETATM   13  O   UNL     1      -7.449   8.812  70.395  1.00  0.00    -0.058 OA 
BRANCH  12  14
HETATM   14  O   UNL     1      -7.280  10.947  69.713  1.00  0.00    -0.136 OA 
BRANCH  14  15
HETATM   15  C   UNL     1      -8.127  11.987  68.811  1.00  0.00     0.007 C  
HETATM   16  C   UNL     1      -9.574  11.678  69.459  1.00  0.00     0.819 C  
HETATM   17  C   UNL     1     -10.817  12.554  69.153  1.00  0.00    -0.134 C  
HETATM   18  C   UNL     1      -9.790  14.473  65.517  1.00  0.00    -0.320 C  
HETATM   19  C   UNL     1     -12.041  12.434  70.095  1.00  0.00    -0.366 C  
HETATM   20  C   UNL     1     -11.337  11.998  67.792  1.00  0.00    -0.303 C  
HETATM   21  O   UNL     1     -12.433  11.086  67.831  1.00  0.00    -0.129 OA 
HETATM   22  C   UNL     1     -11.512  13.079  66.758  1.00  0.00    -0.392 C  
HETATM   23  C   UNL     1      -8.528  14.914  66.296  1.00  0.00     0.273 C  
HETATM   24  C   UNL     1     -10.328  13.022  65.703  1.00  0.00    -0.294 C  
HETATM   25  C   UNL     1     -12.954  13.150  66.192  1.00  0.00     0.647 C  
HETATM   26  H   UNL     1     -12.749  10.747  67.003  1.00  0.00     0.000 HD 
HETATM   27  C   UNL     1     -10.967  12.466  64.392  1.00  0.00    -0.377 C  
HETATM   28  C   UNL     1      -9.848  12.073  63.480  1.00  0.00    -0.314 C  
HETATM   29  C   UNL     1      -8.796  11.631  64.460  1.00  0.00     0.517 C  
HETATM   30  C   UNL     1      -9.120  11.996  65.958  1.00  0.00    -0.092 C  
HETATM   31  O   UNL     1      -7.891  10.928  64.079  1.00  0.00     0.175 OA 
HETATM   32  C   UNL     1      -7.898  12.334  67.010  1.00  0.00    -0.108 C  
HETATM   33  C   UNL     1      -6.609  11.659  66.383  1.00  0.00     0.121 C  
HETATM   34  C   UNL     1      -7.489  13.871  66.761  1.00  0.00     0.868 C  
HETATM   35  C   UNL     1      -6.451  14.354  67.803  1.00  0.00    -0.181 C  
BRANCH  17  36
HETATM   36  C   UNL     1     -10.302  13.997  69.254  1.00  0.00     0.018 C  
HETATM   37  C   UNL     1     -10.994  15.144  69.184  1.00  0.00    -0.260 C  
ENDBRANCH  17  36
ENDBRANCH  14  15
ENDBRANCH  12  14
ENDBRANCH  11  12
ENDBRANCH  10  11
ENDBRANCH   8  10
TORSDOF 6
ENDMDL
MODEL      200
REMARK 921   NORMALIZED FREE ENERGY PREDICTED BY IDOCK:    0.60 KCAL/MOL
REMARK 922        TOTAL FREE ENERGY PREDICTED BY IDOCK:   -0.94 KCAL/MOL
REMARK 923 INTER-LIGAND FREE ENERGY PREDICTED BY IDOCK:   -1.35 KCAL/MOL
REMARK 924 INTRA-LIGAND FREE ENERGY PREDICTED BY IDOCK:    0.41 KCAL/MOL
REMARK 927      BINDING AFFINITY PREDICTED BY RF-SCORE:    0.00 PKD
ROOT
HETATM    1  C   UNL     1      -5.224   7.982  73.447  1.00  0.00    -0.041 C  
HETATM    2  C   UNL     1      -5.798   9.410  73.561  1.00  0.00     0.165 C  
HETATM    3  C   UNL     1      -7.018   9.399  72.639  1.00  0.00     0.845 C  
HETATM    4  C   UNL     1      -7.045   7.973  72.051  1.00  0.00    -0.080 C  
HETATM    5  C   UNL     1      -7.884   6.944  72.881  1.00  0.00    -0.096 C  
HETATM    6  N   UNL     1      -5.604   7.696  72.066  1.00  0.00    -0.036 NA 
HETATM    7  C   UNL     1      -5.169   6.425  71.551  1.00  0.00    -0.026 C  
HETATM    8  C   UNL     1      -7.136   6.198  74.023  1.00  0.00    -0.083 C  
HETATM    9  C   UNL     1      -5.807   6.930  74.446  1.00  0.00    -0.070 C  
ENDROOT
BRANCH   8  10
HETATM   10  S   UNL     1      -7.336   4.095  74.310  1.00  0.00    -0.072 SA 
BRANCH  10  11
HETATM   11  C   UNL     1      -8.800   3.362  73.388  1.00  0.00    -0.084 C  
BRANCH  11  12
HETATM   12  C   UNL     1      -9.335   3.700  71.842  1.00  0.00    -0.125 C  
HETATM   13  O   UNL     1     -10.380   4.362  71.783  1.00  0.00    -0.161 OA 
BRANCH  12  14
HETATM   14  O   UNL     1      -8.766   3.297  70.638  1.00  0.00    -0.068 OA 
BRANCH  14  15
HETATM   15  C   UNL     1      -8.191   4.325  69.530  1.00  0.00    -0.059 C  
HETATM   16  C   UNL     1      -9.522   5.230  69.391  1.00  0.00    -0.190 C  
HETATM   17  C   UNL     1      -9.529   6.569  68.608  1.00  0.00    -0.123 C  
HETATM   18  C   UNL     1      -6.162   6.225  66.056  1.00  0.00    -0.037 C  
HETATM   19  C   UNL     1     -10.707   7.546  68.847  1.00  0.00    -0.135 C  
HETATM   20  C   UNL     1      -9.705   6.127  67.121  1.00  0.00    -0.135 C  
HETATM   21  O   UNL     1     -11.016   6.206  66.565  1.00  0.00    -0.628 OA 
HETATM   22  C   UNL     1      -8.649   6.711  66.219  1.00  0.00    -0.139 C  
HETATM   23  C   UNL     1      -5.400   5.938  67.371  1.00  0.00    -0.005 C  
HETATM   24  C   UNL     1      -7.576   5.603  65.848  1.00  0.00    -0.086 C  
HETATM   25  C   UNL     1      -9.242   7.536  65.048  1.00  0.00     0.799 C  
HETATM   26  H   UNL     1     -11.123   5.937  65.661  1.00  0.00     0.000 HD 
HETATM   27  C   UNL     1      -7.842   5.253  64.350  1.00  0.00    -0.100 C  
HETATM   28  C   UNL     1      -7.100   3.990  64.045  1.00  0.00    -0.050 C  
HETATM   29  C   UNL     1      -7.161   3.274  65.366  1.00  0.00    -0.067 C  
HETATM   30  C   UNL     1      -7.676   4.167  66.559  1.00  0.00    -0.090 C  
HETATM   31  O   UNL     1      -6.969   2.082  65.402  1.00  0.00    -0.041 OA 
HETATM   32  C   UNL     1      -7.115   3.911  68.086  1.00  0.00    -0.051 C  
HETATM   33  C   UNL     1      -6.579   2.420  68.089  1.00  0.00    -0.029 C  
HETATM   34  C   UNL     1      -5.694   4.659  68.186  1.00  0.00    -0.017 C  
HETATM   35  C   UNL     1      -5.137   4.622  69.629  1.00  0.00     0.000 C  
BRANCH  17  36
HETATM   36  C   UNL     1      -8.245   7.282  69.056  1.00  0.00    -0.125 C  
HETATM   37  C   UNL     1      -7.882   8.558  68.867  1.00  0.00    -0.109 C  
ENDBRANCH  17  36
ENDBRANCH  14  15
ENDBRANCH  12  14
ENDBRANCH  11  12
ENDBRANCH  10  11
ENDBRANCH   8  10
TORSDOF 6
ENDMDL
MODEL      201
REMARK 921   NORMALIZED FREE ENERGY PREDICTED BY IDOCK:    0.76 KCAL/MOL
REMARK 922        TOTAL FREE ENERGY PREDICTED BY IDOCK:   -0.73 KCAL/MOL
REMARK 923 INTER-LIGAND FREE ENERGY PREDICTED BY IDOCK:   -1.22 KCAL/MOL
REMARK 924 INTRA-LIGAND FREE ENERGY PREDICTED BY IDOCK:    0.50 KCAL/MOL
REMARK 927      BINDING AFFINITY PREDICTED BY RF-SCORE:    0.00 PKD
ROOT
HETATM    1  C   UNL     1      -8.439   7.707  67.911  1.00  0.00    -0.123 C  
HETATM    2  C   UNL     1      -7.851   6.804  69.015  1.00  0.00    -0.111 C  
HETATM    3  C   UNL     1      -7.506   7.771  70.147  1.00  0.00    -0.083 C  
HETATM    4  C   UNL     1      -7.905   9.160  69.604  1.00  0.00    -0.084 C  
HETATM    5  C   UNL     1      -9.376   9.584  69.927  1.00  0.00    -0.247 C  
HETATM    6  N   UNL     1      -7.668   8.919  68.177  1.00  0.00    -0.099 NA 
HETATM    7  C   UNL     1      -7.900  10.015  67.274  1.00  0.00    -0.102 C  
HETATM    8  C   UNL     1     -10.468   9.141  68.910  1.00  0.00    -0.218 C  
HETATM    9  C   UNL     1      -9.980   7.962  67.986  1.00  0.00    -0.213 C  
ENDROOT
BRANCH   8  10
HETATM   10  S   UNL     1     -11.976  10.482  68.225  1.00  0.00     0.781 SA 
BRANCH  10  11
HETATM   11  C   UNL     1     -11.277  12.078  67.519  1.00  0.00    -0.294 C  
BRANCH  11  12
HETATM   12  C   UNL     1      -9.936  12.289  66.548  1.00  0.00    -0.220 C  
HETATM   13  O   UNL     1      -9.937  11.627  65.501  1.00  0.00    -0.226 OA 
BRANCH  12  14
HETATM   14  O   UNL     1      -8.821  13.085  66.797  1.00  0.00    -0.207 OA 
BRANCH  14  15
HETATM   15  C   UNL     1      -8.877  14.698  66.903  1.00  0.00    -0.242 C  
HETATM   16  C   UNL     1      -7.317  14.926  67.254  1.00  0.00    -0.174 C  
HETATM   17  C   UNL     1      -6.673  16.338  67.260  1.00  0.00    -0.228 C  
HETATM   18  C   UNL     1      -9.999  18.927  67.709  1.00  0.00    -0.411 C  
HETATM   19  C   UNL     1      -5.128  16.432  67.219  1.00  0.00    -0.111 C  
HETATM   20  C   UNL     1      -7.046  16.909  68.663  1.00  0.00    -0.203 C  
HETATM   21  O   UNL     1      -6.052  16.842  69.684  1.00  0.00    -0.204 OA 
HETATM   22  C   UNL     1      -7.707  18.261  68.576  1.00  0.00    -0.319 C  
HETATM   23  C   UNL     1     -10.544  18.174  66.473  1.00  0.00    -0.290 C  
HETATM   24  C   UNL     1      -9.268  18.121  68.826  1.00  0.00    -0.247 C  
HETATM   25  C   UNL     1      -6.960  19.353  69.385  1.00  0.00    -0.330 C  
HETATM   26  H   UNL     1      -6.279  17.189  70.538  1.00  0.00     0.000 HD 
HETATM   27  C   UNL     1      -9.518  18.731  70.241  1.00  0.00     1.728 C  
HETATM   28  C   UNL     1     -10.893  18.324  70.668  1.00  0.00     2.506 C  
HETATM   29  C   UNL     1     -11.029  16.976  70.015  1.00  0.00     0.328 C  
HETATM   30  C   UNL     1      -9.895  16.651  68.970  1.00  0.00    -0.267 C  
HETATM   31  O   UNL     1     -11.865  16.205  70.420  1.00  0.00    -0.307 OA 
HETATM   32  C   UNL     1     -10.225  15.713  67.656  1.00  0.00    -0.261 C  
HETATM   33  C   UNL     1     -11.514  14.880  68.052  1.00  0.00    -0.355 C  
HETATM   34  C   UNL     1     -10.908  16.676  66.563  1.00  0.00    -0.017 C  
HETATM   35  C   UNL     1     -11.123  15.940  65.218  1.00  0.00    -0.255 C  
BRANCH  17  36
HETATM   36  C   UNL     1      -7.206  17.007  65.985  1.00  0.00    -0.054 C  
HETATM   37  C   UNL     1      -6.777  18.123  65.378  1.00  0.00    -0.067 C  
ENDBRANCH  17  36
ENDBRANCH  14  15
ENDBRANCH  12  14
ENDBRANCH  11  12
ENDBRANCH  10  11
ENDBRANCH   8  10
TORSDOF 6
ENDMDL
MODEL      202
REMARK 921   NORMALIZED FREE ENERGY PREDICTED BY IDOCK:    0.95 KCAL/MOL
REMARK 922        TOTAL FREE ENERGY PREDICTED BY IDOCK:   -0.47 KCAL/MOL
REMARK 923 INTER-LIGAND FREE ENERGY PREDICTED BY IDOCK:   -0.35 KCAL/MOL
REMARK 924 INTRA-LIGAND FREE ENERGY PREDICTED BY IDOCK:   -0.12 KCAL/MOL
REMARK 927      BINDING AFFINITY PREDICTED BY RF-SCORE:    0.00 PKD
ROOT
HETATM    1  C   UNL     1      -7.244  18.596  70.620  1.00  0.00     2.178 C  
HETATM    2  C   UNL     1      -7.157  20.132  70.738  1.00  0.00     0.575 C  
HETATM    3  C   UNL     1      -5.767  20.472  70.200  1.00  0.00    -0.358 C  
HETATM    4  C   UNL     1      -5.151  19.106  69.830  1.00  0.00    -0.191 C  
HETATM    5  C   UNL     1      -5.417  18.653  68.355  1.00  0.00    -0.191 C  
HETATM    6  N   UNL     1      -5.834  18.274  70.827  1.00  0.00     0.011 NA 
HETATM    7  C   UNL     1      -5.512  16.872  70.850  1.00  0.00    -0.024 C  
HETATM    8  C   UNL     1      -6.730  17.858  68.098  1.00  0.00    -0.200 C  
HETATM    9  C   UNL     1      -7.779  18.044  69.258  1.00  0.00     0.103 C  
ENDROOT
BRANCH   8  10
HETATM   10  S   UNL     1      -6.759  16.092  66.904  1.00  0.00     0.055 SA 
BRANCH  10  11
HETATM   11  C   UNL     1      -7.084  14.533  67.903  1.00  0.00    -0.157 C  
BRANCH  11  12
HETATM   12  C   UNL     1      -6.893  12.940  67.441  1.00  0.00    -0.128 C  
HETATM   13  O   UNL     1      -5.726  12.525  67.463  1.00  0.00    -0.118 OA 
BRANCH  12  14
HETATM   14  O   UNL     1      -7.877  12.056  67.009  1.00  0.00    -0.160 OA 
BRANCH  14  15
HETATM   15  C   UNL     1      -7.629  10.471  66.802  1.00  0.00    -0.115 C  
HETATM   16  C   UNL     1      -7.374  10.518  65.207  1.00  0.00    -0.059 C  
HETATM   17  C   UNL     1      -6.844   9.289  64.422  1.00  0.00    -0.086 C  
HETATM   18  C   UNL     1      -7.790   6.028  66.959  1.00  0.00    -0.102 C  
HETATM   19  C   UNL     1      -6.266   9.525  63.005  1.00  0.00    -0.101 C  
HETATM   20  C   UNL     1      -8.124   8.433  64.166  1.00  0.00    -0.145 C  
HETATM   21  O   UNL     1      -8.738   8.540  62.884  1.00  0.00    -0.420 OA 
HETATM   22  C   UNL     1      -7.962   7.006  64.622  1.00  0.00    -0.114 C  
HETATM   23  C   UNL     1      -7.012   6.840  68.021  1.00  0.00    -0.080 C  
HETATM   24  C   UNL     1      -8.746   6.776  65.982  1.00  0.00    -0.155 C  
HETATM   25  C   UNL     1      -8.204   5.977  63.488  1.00  0.00    -0.029 C  
HETATM   26  H   UNL     1      -9.517   8.020  62.728  1.00  0.00     0.000 HD 
HETATM   27  C   UNL     1      -9.987   5.908  65.604  1.00  0.00     0.403 C  
HETATM   28  C   UNL     1     -10.931   5.946  66.763  1.00  0.00    -0.280 C  
HETATM   29  C   UNL     1     -10.684   7.323  67.314  1.00  0.00    -0.321 C  
HETATM   30  C   UNL     1      -9.420   8.042  66.705  1.00  0.00    -0.273 C  
HETATM   31  O   UNL     1     -11.510   7.828  68.036  1.00  0.00     0.623 OA 
HETATM   32  C   UNL     1      -8.542   9.090  67.623  1.00  0.00    -0.120 C  
HETATM   33  C   UNL     1      -9.525   9.561  68.773  1.00  0.00    -0.147 C  
HETATM   34  C   UNL     1      -7.554   8.195  68.525  1.00  0.00    -0.104 C  
HETATM   35  C   UNL     1      -6.563   9.077  69.321  1.00  0.00    -0.049 C  
BRANCH  17  36
HETATM   36  C   UNL     1      -5.707   8.738  65.294  1.00  0.00    -0.047 C  
HETATM   37  C   UNL     1      -5.134   7.527  65.264  1.00  0.00    -0.028 C  
ENDBRANCH  17  36
ENDBRANCH  14  15
ENDBRANCH  12  14
ENDBRANCH  11  12
ENDBRANCH  10  11
ENDBRANCH   8  10
TORSDOF 6
ENDMDL
MODEL      203
REMARK 921   NORMALIZED FREE ENERGY PREDICTED BY IDOCK:    0.97 KCAL/MOL
REMARK 922        TOTAL FREE ENERGY PREDICTED BY IDOCK:   -0.45 KCAL/MOL
REMARK 923 INTER-LIGAND FREE ENERGY PREDICTED BY IDOCK:   -0.02 KCAL/MOL
REMARK 924 INTRA-LIGAND FREE ENERGY PREDICTED BY IDOCK:   -0.42 KCAL/MOL
REMARK 927      BINDING AFFINITY PREDICTED BY RF-SCORE:    0.00 PKD
ROOT
HETATM    1  C   UNL     1      -6.835   8.176  70.969  1.00  0.00    -0.043 C  
HETATM    2  C   UNL     1      -8.138   7.515  71.464  1.00  0.00    -0.099 C  
HETATM    3  C   UNL     1      -9.225   8.540  71.140  1.00  0.00    -0.248 C  
HETATM    4  C   UNL     1      -8.465   9.720  70.499  1.00  0.00     0.049 C  
HETATM    5  C   UNL     1      -8.328   9.634  68.942  1.00  0.00    -0.116 C  
HETATM    6  N   UNL     1      -7.187   9.573  71.204  1.00  0.00    -0.329 NA 
HETATM    7  C   UNL     1      -6.156  10.533  70.911  1.00  0.00     0.018 C  
HETATM    8  C   UNL     1      -7.096   8.858  68.393  1.00  0.00    -0.077 C  
HETATM    9  C   UNL     1      -6.458   7.908  69.475  1.00  0.00    -0.035 C  
ENDROOT
BRANCH   8  10
HETATM   10  S   UNL     1      -5.898   9.627  66.806  1.00  0.00    -0.055 SA 
BRANCH  10  11
HETATM   11  C   UNL     1      -6.818  10.853  65.717  1.00  0.00     0.014 C  
BRANCH  11  12
HETATM   12  C   UNL     1      -8.223  10.623  64.844  1.00  0.00    -0.057 C  
HETATM   13  O   UNL     1      -8.333   9.510  64.312  1.00  0.00    -0.147 OA 
BRANCH  12  14
HETATM   14  O   UNL     1      -9.247  11.539  64.624  1.00  0.00    -0.094 OA 
BRANCH  14  15
HETATM   15  C   UNL     1      -9.628  12.723  65.658  1.00  0.00    -0.042 C  
HETATM   16  C   UNL     1      -8.145  12.949  66.256  1.00  0.00     0.906 C  
HETATM   17  C   UNL     1      -7.801  14.153  67.172  1.00  0.00    -0.063 C  
HETATM   18  C   UNL     1     -11.580  15.345  68.676  1.00  0.00    -0.373 C  
HETATM   19  C   UNL     1      -6.307  14.508  67.376  1.00  0.00     0.124 C  
HETATM   20  C   UNL     1      -8.271  13.688  68.585  1.00  0.00    -0.058 C  
HETATM   21  O   UNL     1      -7.277  13.185  69.475  1.00  0.00    -0.318 OA 
HETATM   22  C   UNL     1      -9.194  14.684  69.240  1.00  0.00     0.030 C  
HETATM   23  C   UNL     1     -11.970  15.415  67.181  1.00  0.00     0.318 C  
HETATM   24  C   UNL     1     -10.692  14.165  69.173  1.00  0.00    -0.216 C  
HETATM   25  C   UNL     1      -8.679  15.171  70.619  1.00  0.00     1.704 C  
HETATM   26  H   UNL     1      -7.564  12.902  70.335  1.00  0.00     0.000 HD 
HETATM   27  C   UNL     1     -11.050  13.743  70.633  1.00  0.00     0.843 C  
HETATM   28  C   UNL     1     -12.310  12.940  70.572  1.00  0.00    -0.362 C  
HETATM   29  C   UNL     1     -12.174  12.261  69.237  1.00  0.00    -0.044 C  
HETATM   30  C   UNL     1     -11.006  12.827  68.343  1.00  0.00    -0.281 C  
HETATM   31  O   UNL     1     -12.833  11.276  69.005  1.00  0.00     0.001 OA 
HETATM   32  C   UNL     1     -11.149  12.835  66.702  1.00  0.00    -0.313 C  
HETATM   33  C   UNL     1     -12.239  11.733  66.374  1.00  0.00     0.833 C  
HETATM   34  C   UNL     1     -12.021  14.133  66.322  1.00  0.00    -0.448 C  
HETATM   35  C   UNL     1     -12.092  14.336  64.789  1.00  0.00    -0.457 C  
BRANCH  17  36
HETATM   36  C   UNL     1      -8.468  15.355  66.490  1.00  0.00    -0.248 C  
HETATM   37  C   UNL     1      -7.994  16.598  66.325  1.00  0.00    -0.340 C  
ENDBRANCH  17  36
ENDBRANCH  14  15
ENDBRANCH  12  14
ENDBRANCH  11  12
ENDBRANCH  10  11
ENDBRANCH   8  10
TORSDOF 6
ENDMDL
MODEL      204
REMARK 921   NORMALIZED FREE ENERGY PREDICTED BY IDOCK:    1.04 KCAL/MOL
REMARK 922        TOTAL FREE ENERGY PREDICTED BY IDOCK:   -0.35 KCAL/MOL
REMARK 923 INTER-LIGAND FREE ENERGY PREDICTED BY IDOCK:    0.21 KCAL/MOL
REMARK 924 INTRA-LIGAND FREE ENERGY PREDICTED BY IDOCK:   -0.56 KCAL/MOL
REMARK 927      BINDING AFFINITY PREDICTED BY RF-SCORE:    0.00 PKD
ROOT
HETATM    1  C   UNL     1     -13.273   9.167  71.549  1.00  0.00    -0.352 C  
HETATM    2  C   UNL     1     -14.146  10.397  71.869  1.00  0.00     0.424 C  
HETATM    3  C   UNL     1     -13.160  11.566  71.876  1.00  0.00    -0.492 C  
HETATM    4  C   UNL     1     -11.792  10.919  71.578  1.00  0.00     0.351 C  
HETATM    5  C   UNL     1     -11.425  10.850  70.057  1.00  0.00    -0.411 C  
HETATM    6  N   UNL     1     -12.030   9.603  72.180  1.00  0.00    -0.139 NA 
HETATM    7  C   UNL     1     -10.948   8.654  72.145  1.00  0.00    -0.364 C  
HETATM    8  C   UNL     1     -11.916   9.595  69.279  1.00  0.00     0.686 C  
HETATM    9  C   UNL     1     -13.079   8.843  70.031  1.00  0.00     1.863 C  
ENDROOT
BRANCH   8  10
HETATM   10  S   UNL     1     -10.640   8.528  67.946  1.00  0.00    -0.099 SA 
BRANCH  10  11
HETATM   11  C   UNL     1      -9.736   9.649  66.738  1.00  0.00    -0.197 C  
BRANCH  11  12
HETATM   12  C   UNL     1      -8.995   9.246  65.296  1.00  0.00    -0.213 C  
HETATM   13  O   UNL     1      -9.593   9.620  64.277  1.00  0.00    -0.160 OA 
BRANCH  12  14
HETATM   14  O   UNL     1      -7.822   8.520  65.117  1.00  0.00    -0.103 OA 
BRANCH  14  15
HETATM   15  C   UNL     1      -7.678   6.947  65.468  1.00  0.00    -0.101 C  
HETATM   16  C   UNL     1      -9.255   6.637  65.632  1.00  0.00     0.151 C  
HETATM   17  C   UNL     1      -9.800   5.190  65.760  1.00  0.00    -0.107 C  
HETATM   18  C   UNL     1      -6.417   2.981  67.039  1.00  0.00    -0.036 C  
HETATM   19  C   UNL     1     -11.313   4.960  65.523  1.00  0.00     0.484 C  
HETATM   20  C   UNL     1      -9.603   4.852  67.270  1.00  0.00    -0.155 C  
HETATM   21  O   UNL     1     -10.738   4.974  68.124  1.00  0.00     0.049 OA 
HETATM   22  C   UNL     1      -8.850   3.562  67.476  1.00  0.00    -0.147 C  
HETATM   23  C   UNL     1      -5.745   3.599  65.790  1.00  0.00    -0.018 C  
HETATM   24  C   UNL     1      -7.355   3.867  67.913  1.00  0.00    -0.066 C  
HETATM   25  C   UNL     1      -9.636   2.532  68.329  1.00  0.00    -0.108 C  
HETATM   26  H   UNL     1     -10.617   4.768  69.043  1.00  0.00     0.000 HD 
HETATM   27  C   UNL     1      -7.278   3.482  69.424  1.00  0.00    -0.049 C  
HETATM   28  C   UNL     1      -6.010   4.059  69.969  1.00  0.00    -0.018 C  
HETATM   29  C   UNL     1      -5.867   5.311  69.148  1.00  0.00    -0.023 C  
HETATM   30  C   UNL     1      -6.852   5.392  67.921  1.00  0.00    -0.060 C  
HETATM   31  O   UNL     1      -5.151   6.199  69.545  1.00  0.00    -0.008 OA 
HETATM   32  C   UNL     1      -6.393   6.164  66.540  1.00  0.00    -0.045 C  
HETATM   33  C   UNL     1      -5.234   7.150  66.980  1.00  0.00    -0.021 C  
HETATM   34  C   UNL     1      -5.496   5.121  65.706  1.00  0.00    -0.013 C  
HETATM   35  C   UNL     1      -5.133   5.680  64.309  1.00  0.00    -0.010 C  
BRANCH  17  36
HETATM   36  C   UNL     1      -9.043   4.400  64.683  1.00  0.00    -0.152 C  
HETATM   37  C   UNL     1      -9.516   3.489  63.821  1.00  0.00    -0.132 C  
ENDBRANCH  17  36
ENDBRANCH  14  15
ENDBRANCH  12  14
ENDBRANCH  11  12
ENDBRANCH  10  11
ENDBRANCH   8  10
TORSDOF 6
ENDMDL
MODEL      205
REMARK 921   NORMALIZED FREE ENERGY PREDICTED BY IDOCK:    1.07 KCAL/MOL
REMARK 922        TOTAL FREE ENERGY PREDICTED BY IDOCK:   -0.31 KCAL/MOL
REMARK 923 INTER-LIGAND FREE ENERGY PREDICTED BY IDOCK:   -0.02 KCAL/MOL
REMARK 924 INTRA-LIGAND FREE ENERGY PREDICTED BY IDOCK:   -0.29 KCAL/MOL
REMARK 927      BINDING AFFINITY PREDICTED BY RF-SCORE:    0.00 PKD
ROOT
HETATM    1  C   UNL     1     -12.470  14.976  70.598  1.00  0.00    -0.365 C  
HETATM    2  C   UNL     1     -11.047  15.569  70.665  1.00  0.00    -0.378 C  
HETATM    3  C   UNL     1     -10.766  15.700  72.162  1.00  0.00     0.910 C  
HETATM    4  C   UNL     1     -12.053  15.191  72.844  1.00  0.00    -0.372 C  
HETATM    5  C   UNL     1     -12.056  13.658  73.159  1.00  0.00     1.512 C  
HETATM    6  N   UNL     1     -13.021  15.575  71.811  1.00  0.00    -0.419 NA 
HETATM    7  C   UNL     1     -14.409  15.295  72.068  1.00  0.00    -0.589 C  
HETATM    8  C   UNL     1     -12.570  12.716  72.031  1.00  0.00     0.149 C  
HETATM    9  C   UNL     1     -12.562  13.415  70.620  1.00  0.00    -0.325 C  
ENDROOT
BRANCH   8  10
HETATM   10  S   UNL     1     -13.933  11.126  72.429  1.00  0.00     1.160 SA 
BRANCH  10  11
HETATM   11  C   UNL     1     -13.865   9.759  71.140  1.00  0.00     0.023 C  
BRANCH  11  12
HETATM   12  C   UNL     1     -12.736   9.518  69.934  1.00  0.00     1.007 C  
HETATM   13  O   UNL     1     -12.320   8.355  69.830  1.00  0.00     0.855 OA 
BRANCH  12  14
HETATM   14  O   UNL     1     -12.195  10.467  69.072  1.00  0.00    -0.272 OA 
BRANCH  14  15
HETATM   15  C   UNL     1     -10.778  10.286  68.314  1.00  0.00    -0.237 C  
HETATM   16  C   UNL     1     -10.163   9.172  69.309  1.00  0.00    -0.215 C  
HETATM   17  C   UNL     1      -8.858   8.402  68.976  1.00  0.00    -0.146 C  
HETATM   18  C   UNL     1      -6.952  10.895  66.127  1.00  0.00    -0.099 C  
HETATM   19  C   UNL     1      -8.555   7.107  69.770  1.00  0.00    -0.141 C  
HETATM   20  C   UNL     1      -7.726   9.383  69.416  1.00  0.00    -0.085 C  
HETATM   21  O   UNL     1      -7.116   9.155  70.684  1.00  0.00    -0.075 OA 
HETATM   22  C   UNL     1      -6.724   9.632  68.318  1.00  0.00    -0.061 C  
HETATM   23  C   UNL     1      -8.298  10.784  65.372  1.00  0.00    -0.104 C  
HETATM   24  C   UNL     1      -6.963  11.064  67.676  1.00  0.00    -0.083 C  
HETATM   25  C   UNL     1      -5.272   9.281  68.734  1.00  0.00    -0.037 C  
HETATM   26  H   UNL     1      -6.428   9.752  70.951  1.00  0.00     0.000 HD 
HETATM   27  C   UNL     1      -5.774  11.945  68.174  1.00  0.00    -0.048 C  
HETATM   28  C   UNL     1      -6.122  13.371  67.886  1.00  0.00    -0.146 C  
HETATM   29  C   UNL     1      -7.617  13.358  68.043  1.00  0.00    -0.143 C  
HETATM   30  C   UNL     1      -8.241  11.914  68.147  1.00  0.00    -0.158 C  
HETATM   31  O   UNL     1      -8.202  14.399  68.224  1.00  0.00    -0.134 OA 
HETATM   32  C   UNL     1      -9.749  11.619  67.554  1.00  0.00    -0.185 C  
HETATM   33  C   UNL     1     -10.461  13.033  67.505  1.00  0.00    -0.229 C  
HETATM   34  C   UNL     1      -9.584  11.395  65.969  1.00  0.00    -0.247 C  
HETATM   35  C   UNL     1     -10.918  10.954  65.320  1.00  0.00    -0.033 C  
BRANCH  17  36
HETATM   36  C   UNL     1      -9.011   8.008  67.500  1.00  0.00    -0.143 C  
HETATM   37  C   UNL     1      -9.405   6.838  66.979  1.00  0.00    -0.165 C  
ENDBRANCH  17  36
ENDBRANCH  14  15
ENDBRANCH  12  14
ENDBRANCH  11  12
ENDBRANCH  10  11
ENDBRANCH   8  10
TORSDOF 6
ENDMDL
MODEL      206
REMARK 921   NORMALIZED FREE ENERGY PREDICTED BY IDOCK:    1.12 KCAL/MOL
REMARK 922        TOTAL FREE ENERGY PREDICTED BY IDOCK:   -0.24 KCAL/MOL
REMARK 923 INTER-LIGAND FREE ENERGY PREDICTED BY IDOCK:    0.85 KCAL/MOL
REMARK 924 INTRA-LIGAND FREE ENERGY PREDICTED BY IDOCK:   -1.09 KCAL/MOL
REMARK 927      BINDING AFFINITY PREDICTED BY RF-SCORE:    0.00 PKD
ROOT
HETATM    1  C   UNL     1     -12.003  14.513  64.357  1.00  0.00    -0.449 C  
HETATM    2  C   UNL     1     -13.425  13.932  64.502  1.00  0.00     1.589 C  
HETATM    3  C   UNL     1     -13.206  12.559  65.137  1.00  0.00     0.863 C  
HETATM    4  C   UNL     1     -11.675  12.445  65.294  1.00  0.00    -0.390 C  
HETATM    5  C   UNL     1     -11.122  12.969  66.661  1.00  0.00    -0.318 C  
HETATM    6  N   UNL     1     -11.271  13.267  64.149  1.00  0.00    -0.386 NA 
HETATM    7  C   UNL     1      -9.860  13.408  63.901  1.00  0.00     1.330 C  
HETATM    8  C   UNL     1     -10.774  14.484  66.736  1.00  0.00    -0.291 C  
HETATM    9  C   UNL     1     -11.463  15.313  65.588  1.00  0.00    -0.123 C  
ENDROOT
BRANCH   8  10
HETATM   10  S   UNL     1      -8.960  15.179  67.615  1.00  0.00    -0.185 SA 
BRANCH  10  11
HETATM   11  C   UNL     1      -7.431  14.353  66.898  1.00  0.00     0.514 C  
BRANCH  11  12
HETATM   12  C   UNL     1      -5.919  14.181  67.585  1.00  0.00    -0.027 C  
HETATM   13  O   UNL     1      -5.423  15.227  68.027  1.00  0.00    -0.120 OA 
BRANCH  12  14
HETATM   14  O   UNL     1      -5.155  13.022  67.682  1.00  0.00    -0.159 OA 
BRANCH  14  15
HETATM   15  C   UNL     1      -5.777  11.531  67.612  1.00  0.00    -0.054 C  
HETATM   16  C   UNL     1      -5.644  11.337  66.014  1.00  0.00    -0.050 C  
HETATM   17  C   UNL     1      -5.881   9.965  65.329  1.00  0.00    -0.078 C  
HETATM   18  C   UNL     1      -8.199   7.841  68.171  1.00  0.00    -0.124 C  
HETATM   19  C   UNL     1      -5.362   9.775  63.882  1.00  0.00    -0.078 C  
HETATM   20  C   UNL     1      -7.433   9.886  65.183  1.00  0.00    -0.133 C  
HETATM   21  O   UNL     1      -7.989  10.216  63.913  1.00  0.00    -0.153 OA 
HETATM   22  C   UNL     1      -8.000   8.616  65.762  1.00  0.00    -0.106 C  
HETATM   23  C   UNL     1      -7.042   8.195  69.136  1.00  0.00    -0.061 C  
HETATM   24  C   UNL     1      -8.695   8.915  67.157  1.00  0.00    -0.126 C  
HETATM   25  C   UNL     1      -8.817   7.794  64.731  1.00  0.00     0.355 C  
HETATM   26  H   UNL     1      -8.934  10.168  63.825  1.00  0.00     0.000 HD 
HETATM   27  C   UNL     1     -10.229   8.797  66.889  1.00  0.00    -0.357 C  
HETATM   28  C   UNL     1     -10.936   9.395  68.065  1.00  0.00    -0.119 C  
HETATM   29  C   UNL     1      -9.975  10.474  68.483  1.00  0.00    -0.170 C  
HETATM   30  C   UNL     1      -8.567  10.389  67.780  1.00  0.00    -0.122 C  
HETATM   31  O   UNL     1     -10.369  11.379  69.177  1.00  0.00    -0.186 OA 
HETATM   32  C   UNL     1      -7.213  10.882  68.577  1.00  0.00    -0.090 C  
HETATM   33  C   UNL     1      -7.730  11.868  69.704  1.00  0.00     0.805 C  
HETATM   34  C   UNL     1      -6.771   9.663  69.530  1.00  0.00    -0.051 C  
HETATM   35  C   UNL     1      -5.414   9.949  70.218  1.00  0.00    -0.045 C  
BRANCH  17  36
HETATM   36  C   UNL     1      -5.135   8.959  66.218  1.00  0.00    -0.030 C  
HETATM   37  C   UNL     1      -5.188   7.620  66.200  1.00  0.00    -0.025 C  
ENDBRANCH  17  36
ENDBRANCH  14  15
ENDBRANCH  12  14
ENDBRANCH  11  12
ENDBRANCH  10  11
ENDBRANCH   8  10
TORSDOF 6
ENDMDL
MODEL      207
REMARK 921   NORMALIZED FREE ENERGY PREDICTED BY IDOCK:    1.28 KCAL/MOL
REMARK 922        TOTAL FREE ENERGY PREDICTED BY IDOCK:   -0.02 KCAL/MOL
REMARK 923 INTER-LIGAND FREE ENERGY PREDICTED BY IDOCK:   -0.22 KCAL/MOL
REMARK 924 INTRA-LIGAND FREE ENERGY PREDICTED BY IDOCK:    0.20 KCAL/MOL
REMARK 927      BINDING AFFINITY PREDICTED BY RF-SCORE:    0.00 PKD
ROOT
HETATM    1  C   UNL     1      -6.939   7.445  70.284  1.00  0.00    -0.059 C  
HETATM    2  C   UNL     1      -5.442   7.148  70.062  1.00  0.00    -0.023 C  
HETATM    3  C   UNL     1      -5.344   5.625  70.152  1.00  0.00    -0.005 C  
HETATM    4  C   UNL     1      -6.788   5.161  70.436  1.00  0.00    -0.044 C  
HETATM    5  C   UNL     1      -7.635   4.854  69.156  1.00  0.00    -0.064 C  
HETATM    6  N   UNL     1      -7.259   6.335  71.178  1.00  0.00    -0.077 NA 
HETATM    7  C   UNL     1      -8.609   6.306  71.675  1.00  0.00    -0.133 C  
HETATM    8  C   UNL     1      -8.401   6.052  68.525  1.00  0.00    -0.113 C  
HETATM    9  C   UNL     1      -7.834   7.442  69.001  1.00  0.00    -0.120 C  
ENDROOT
BRANCH   8  10
HETATM   10  S   UNL     1     -10.433   5.884  67.902  1.00  0.00    -0.243 SA 
BRANCH  10  11
HETATM   11  C   UNL     1     -11.334   7.534  67.874  1.00  0.00     0.614 C  
BRANCH  11  12
HETATM   12  C   UNL     1     -10.881   8.956  67.125  1.00  0.00     0.001 C  
HETATM   13  O   UNL     1     -11.785   9.797  67.008  1.00  0.00     0.870 OA 
BRANCH  12  14
HETATM   14  O   UNL     1      -9.635   9.281  66.598  1.00  0.00    -0.173 OA 
BRANCH  14  15
HETATM   15  C   UNL     1      -8.931  10.725  66.787  1.00  0.00    -0.147 C  
HETATM   16  C   UNL     1      -7.738  10.235  67.761  1.00  0.00    -0.090 C  
HETATM   17  C   UNL     1      -6.547  11.159  68.130  1.00  0.00    -0.058 C  
HETATM   18  C   UNL     1      -8.050  15.047  67.367  1.00  0.00    -0.216 C  
HETATM   19  C   UNL     1      -5.278  10.503  68.731  1.00  0.00    -0.041 C  
HETATM   20  C   UNL     1      -7.103  12.033  69.296  1.00  0.00     0.019 C  
HETATM   21  O   UNL     1      -6.758  11.651  70.625  1.00  0.00    -0.393 OA 
HETATM   22  C   UNL     1      -6.924  13.508  69.044  1.00  0.00    -0.091 C  
HETATM   23  C   UNL     1      -8.363  14.473  65.965  1.00  0.00     1.265 C  
HETATM   24  C   UNL     1      -8.308  14.161  68.623  1.00  0.00    -0.123 C  
HETATM   25  C   UNL     1      -6.122  14.220  70.164  1.00  0.00    -0.160 C  
HETATM   26  H   UNL     1      -7.097  12.183  71.335  1.00  0.00     0.000 HD 
HETATM   27  C   UNL     1      -8.755  15.013  69.853  1.00  0.00     0.264 C  
HETATM   28  C   UNL     1     -10.193  15.371  69.651  1.00  0.00    -0.283 C  
HETATM   29  C   UNL     1     -10.705  14.170  68.904  1.00  0.00    -0.256 C  
HETATM   30  C   UNL     1      -9.573  13.201  68.393  1.00  0.00    -0.186 C  
HETATM   31  O   UNL     1     -11.893  13.954  68.876  1.00  0.00    -0.318 OA 
HETATM   32  C   UNL     1      -9.779  12.353  66.995  1.00  0.00    -0.211 C  
HETATM   33  C   UNL     1     -11.346  12.297  66.769  1.00  0.00    -0.395 C  
HETATM   34  C   UNL     1      -9.415  13.357  65.791  1.00  0.00     0.032 C  
HETATM   35  C   UNL     1      -9.420  12.625  64.427  1.00  0.00     0.407 C  
BRANCH  17  36
HETATM   36  C   UNL     1      -6.139  11.809  66.800  1.00  0.00    -0.102 C  
HETATM   37  C   UNL     1      -6.092  11.263  65.577  1.00  0.00     0.430 C  
ENDBRANCH  17  36
ENDBRANCH  14  15
ENDBRANCH  12  14
ENDBRANCH  11  12
ENDBRANCH  10  11
ENDBRANCH   8  10
TORSDOF 6
ENDMDL
MODEL      208
REMARK 921   NORMALIZED FREE ENERGY PREDICTED BY IDOCK:    1.30 KCAL/MOL
REMARK 922        TOTAL FREE ENERGY PREDICTED BY IDOCK:   -0.00 KCAL/MOL
REMARK 923 INTER-LIGAND FREE ENERGY PREDICTED BY IDOCK:    0.36 KCAL/MOL
REMARK 924 INTRA-LIGAND FREE ENERGY PREDICTED BY IDOCK:   -0.37 KCAL/MOL
REMARK 927      BINDING AFFINITY PREDICTED BY RF-SCORE:    0.00 PKD
ROOT
HETATM    1  C   UNL     1      -7.850   3.898  70.294  1.00  0.00    -0.047 C  
HETATM    2  C   UNL     1      -9.294   3.373  70.156  1.00  0.00    -0.244 C  
HETATM    3  C   UNL     1     -10.167   4.586  70.477  1.00  0.00    -0.152 C  
HETATM    4  C   UNL     1      -9.161   5.713  70.794  1.00  0.00    -0.151 C  
HETATM    5  C   UNL     1      -8.736   6.569  69.554  1.00  0.00    -0.134 C  
HETATM    6  N   UNL     1      -8.072   4.895  71.337  1.00  0.00    -0.108 NA 
HETATM    7  C   UNL     1      -6.896   5.584  71.801  1.00  0.00    -0.066 C  
HETATM    8  C   UNL     1      -7.523   6.048  68.731  1.00  0.00    -0.086 C  
HETATM    9  C   UNL     1      -7.225   4.525  69.005  1.00  0.00    -0.052 C  
ENDROOT
BRANCH   8  10
HETATM   10  S   UNL     1      -5.956   7.345  68.092  1.00  0.00    -0.036 SA 
BRANCH  10  11
HETATM   11  C   UNL     1      -6.086   9.071  68.825  1.00  0.00    -0.045 C  
BRANCH  11  12
HETATM   12  C   UNL     1      -7.024   9.594  70.103  1.00  0.00    -0.105 C  
HETATM   13  O   UNL     1      -7.463   8.694  70.833  1.00  0.00    -0.064 OA 
BRANCH  12  14
HETATM   14  O   UNL     1      -7.389  10.901  70.412  1.00  0.00     0.053 OA 
BRANCH  14  15
HETATM   15  C   UNL     1      -7.768  12.013  69.300  1.00  0.00     0.319 C  
HETATM   16  C   UNL     1      -7.142  13.286  70.073  1.00  0.00     0.747 C  
HETATM   17  C   UNL     1      -6.990  14.670  69.389  1.00  0.00    -0.163 C  
HETATM   18  C   UNL     1      -9.760  14.489  66.187  1.00  0.00    -0.340 C  
HETATM   19  C   UNL     1      -6.044  15.706  70.047  1.00  0.00    -0.149 C  
HETATM   20  C   UNL     1      -8.405  15.312  69.531  1.00  0.00    -0.190 C  
HETATM   21  O   UNL     1      -8.595  16.252  70.586  1.00  0.00     2.263 OA 
HETATM   22  C   UNL     1      -8.953  15.791  68.212  1.00  0.00    -0.182 C  
HETATM   23  C   UNL     1      -8.998  13.195  65.816  1.00  0.00     0.601 C  
HETATM   24  C   UNL     1     -10.064  14.786  67.686  1.00  0.00    -0.227 C  
HETATM   25  C   UNL     1      -9.316  17.299  68.219  1.00  0.00    -0.272 C  
HETATM   26  H   UNL     1      -9.456  16.642  70.673  1.00  0.00     0.000 HD 
HETATM   27  C   UNL     1     -11.421  15.537  67.867  1.00  0.00    -0.276 C  
HETATM   28  C   UNL     1     -12.515  14.528  67.712  1.00  0.00     0.259 C  
HETATM   29  C   UNL     1     -11.866  13.288  68.261  1.00  0.00    -0.354 C  
HETATM   30  C   UNL     1     -10.314  13.424  68.497  1.00  0.00    -0.240 C  
HETATM   31  O   UNL     1     -12.561  12.364  68.613  1.00  0.00     0.257 OA 
HETATM   32  C   UNL     1      -9.332  12.113  68.322  1.00  0.00    -0.198 C  
HETATM   33  C   UNL     1     -10.281  10.856  68.493  1.00  0.00    -0.197 C  
HETATM   34  C   UNL     1      -9.043  11.963  66.746  1.00  0.00    -0.197 C  
HETATM   35  C   UNL     1      -8.000  10.854  66.467  1.00  0.00    -0.152 C  
BRANCH  17  36
HETATM   36  C   UNL     1      -6.420  14.349  67.999  1.00  0.00    -0.158 C  
HETATM   37  C   UNL     1      -5.578  15.073  67.248  1.00  0.00     0.451 C  
ENDBRANCH  17  36
ENDBRANCH  14  15
ENDBRANCH  12  14
ENDBRANCH  11  12
ENDBRANCH  10  11
ENDBRANCH   8  10
TORSDOF 6
ENDMDL
MODEL      209
REMARK 921   NORMALIZED FREE ENERGY PREDICTED BY IDOCK:    1.50 KCAL/MOL
REMARK 922        TOTAL FREE ENERGY PREDICTED BY IDOCK:    0.28 KCAL/MOL
REMARK 923 INTER-LIGAND FREE ENERGY PREDICTED BY IDOCK:   -2.65 KCAL/MOL
REMARK 924 INTRA-LIGAND FREE ENERGY PREDICTED BY IDOCK:    2.92 KCAL/MOL
REMARK 927      BINDING AFFINITY PREDICTED BY RF-SCORE:    0.00 PKD
ROOT
HETATM    1  C   UNL     1      -6.703   9.203  67.570  1.00  0.00    -0.069 C  
HETATM    2  C   UNL     1      -5.205   9.224  67.937  1.00  0.00    -0.034 C  
HETATM    3  C   UNL     1      -5.128  10.157  69.146  1.00  0.00    -0.035 C  
HETATM    4  C   UNL     1      -6.584  10.616  69.374  1.00  0.00    -0.075 C  
HETATM    5  C   UNL     1      -7.405   9.707  70.349  1.00  0.00    -0.156 C  
HETATM    6  N   UNL     1      -7.057  10.557  67.986  1.00  0.00    -0.084 NA 
HETATM    7  C   UNL     1      -8.418  10.950  67.735  1.00  0.00    -0.124 C  
HETATM    8  C   UNL     1      -8.142   8.493  69.714  1.00  0.00    -0.116 C  
HETATM    9  C   UNL     1      -7.568   8.120  68.295  1.00  0.00    -0.102 C  
ENDROOT
BRANCH   8  10
HETATM   10  S   UNL     1     -10.162   8.021  70.207  1.00  0.00    -0.203 SA 
BRANCH  10  11
HETATM   11  C   UNL     1     -11.349   9.444  69.891  1.00  0.00    -0.093 C  
BRANCH  11  12
HETATM   12  C   UNL     1     -11.137  10.781  68.914  1.00  0.00    -0.253 C  
HETATM   13  O   UNL     1     -11.866  10.817  67.912  1.00  0.00    -0.553 OA 
BRANCH  12  14
HETATM   14  O   UNL     1     -10.227  11.820  69.078  1.00  0.00    -0.145 OA 
BRANCH  14  15
HETATM   15  C   UNL     1     -10.505  13.340  68.601  1.00  0.00    -0.228 C  
HETATM   16  C   UNL     1     -11.249  12.978  67.213  1.00  0.00    -0.325 C  
HETATM   17  C   UNL     1     -11.981  14.053  66.368  1.00  0.00    -0.462 C  
HETATM   18  C   UNL     1     -10.243  17.686  67.688  1.00  0.00    -0.351 C  
HETATM   19  C   UNL     1     -12.978  13.571  65.285  1.00  0.00    -0.290 C  
HETATM   20  C   UNL     1     -10.835  14.724  65.549  1.00  0.00    -0.351 C  
HETATM   21  O   UNL     1     -10.656  14.297  64.200  1.00  0.00    -0.499 OA 
HETATM   22  C   UNL     1     -10.826  16.224  65.695  1.00  0.00    -0.215 C  
HETATM   23  C   UNL     1     -10.659  17.185  69.091  1.00  0.00    -0.259 C  
HETATM   24  C   UNL     1      -9.651  16.670  66.665  1.00  0.00    -0.280 C  
HETATM   25  C   UNL     1     -10.938  16.966  64.338  1.00  0.00     0.762 C  
HETATM   26  H   UNL     1      -9.958  14.706  63.702  1.00  0.00     0.000 HD 
HETATM   27  C   UNL     1      -8.580  17.331  65.741  1.00  0.00     0.212 C  
HETATM   28  C   UNL     1      -7.320  17.461  66.537  1.00  0.00    -0.312 C  
HETATM   29  C   UNL     1      -7.402  16.257  67.435  1.00  0.00    -0.163 C  
HETATM   30  C   UNL     1      -8.802  15.534  67.417  1.00  0.00    -0.203 C  
HETATM   31  O   UNL     1      -6.398  15.848  67.968  1.00  0.00    -0.112 OA 
HETATM   32  C   UNL     1      -9.362  14.782  68.771  1.00  0.00    -0.198 C  
HETATM   33  C   UNL     1      -8.075  14.484  69.645  1.00  0.00     0.276 C  
HETATM   34  C   UNL     1     -10.004  15.927  69.701  1.00  0.00    -0.255 C  
HETATM   35  C   UNL     1     -10.708  15.320  70.939  1.00  0.00    -0.126 C  
BRANCH  17  36
HETATM   36  C   UNL     1     -12.780  14.869  67.394  1.00  0.00     1.257 C  
HETATM   37  C   UNL     1     -12.978  14.620  68.696  1.00  0.00     1.516 C  
ENDBRANCH  17  36
ENDBRANCH  14  15
ENDBRANCH  12  14
ENDBRANCH  11  12
ENDBRANCH  10  11
ENDBRANCH   8  10
TORSDOF 6
ENDMDL
MODEL      210
REMARK 921   NORMALIZED FREE ENERGY PREDICTED BY IDOCK:    1.68 KCAL/MOL
REMARK 922        TOTAL FREE ENERGY PREDICTED BY IDOCK:    0.52 KCAL/MOL
REMARK 923 INTER-LIGAND FREE ENERGY PREDICTED BY IDOCK:    0.81 KCAL/MOL
REMARK 924 INTRA-LIGAND FREE ENERGY PREDICTED BY IDOCK:   -0.29 KCAL/MOL
REMARK 927      BINDING AFFINITY PREDICTED BY RF-SCORE:    0.00 PKD
ROOT
HETATM    1  C   UNL     1      -8.267  11.124  62.987  1.00  0.00     0.191 C  
HETATM    2  C   UNL     1      -9.694  10.604  62.718  1.00  0.00    -0.279 C  
HETATM    3  C   UNL     1      -9.696   9.192  63.305  1.00  0.00     1.727 C  
HETATM    4  C   UNL     1      -8.266   8.999  63.851  1.00  0.00    -0.172 C  
HETATM    5  C   UNL     1      -8.078   9.428  65.345  1.00  0.00    -0.118 C  
HETATM    6  N   UNL     1      -7.546   9.857  62.904  1.00  0.00    -0.125 NA 
HETATM    7  C   UNL     1      -6.116   9.944  63.045  1.00  0.00    -0.117 C  
HETATM    8  C   UNL     1      -7.714  10.920  65.599  1.00  0.00     0.012 C  
HETATM    9  C   UNL     1      -8.047  11.836  64.362  1.00  0.00     1.859 C  
ENDROOT
BRANCH   8  10
HETATM   10  S   UNL     1      -6.176  11.484  66.964  1.00  0.00    -0.145 SA 
BRANCH  10  11
HETATM   11  C   UNL     1      -5.268  10.011  67.700  1.00  0.00    -0.034 C  
BRANCH  11  12
HETATM   12  C   UNL     1      -5.774   8.424  67.811  1.00  0.00    -0.039 C  
HETATM   13  O   UNL     1      -6.298   7.967  66.784  1.00  0.00    -0.052 OA 
BRANCH  12  14
HETATM   14  O   UNL     1      -5.705   7.584  68.919  1.00  0.00    -0.022 OA 
BRANCH  14  15
HETATM   15  C   UNL     1      -6.870   7.478  70.036  1.00  0.00    -0.051 C  
HETATM   16  C   UNL     1      -7.532   6.105  69.501  1.00  0.00    -0.092 C  
HETATM   17  C   UNL     1      -8.602   5.334  70.318  1.00  0.00    -0.126 C  
HETATM   18  C   UNL     1     -10.142   8.286  72.940  1.00  0.00    -0.285 C  
HETATM   19  C   UNL     1      -8.890   3.862  69.932  1.00  0.00    -0.143 C  
HETATM   20  C   UNL     1      -9.932   6.076  69.978  1.00  0.00    -0.177 C  
HETATM   21  O   UNL     1     -10.777   5.490  68.991  1.00  0.00    -0.237 OA 
HETATM   22  C   UNL     1     -10.682   6.505  71.213  1.00  0.00    -0.280 C  
HETATM   23  C   UNL     1      -8.657   8.480  73.330  1.00  0.00    -0.049 C  
HETATM   24  C   UNL     1     -10.510   8.065  71.442  1.00  0.00    -0.257 C  
HETATM   25  C   UNL     1     -12.126   5.941  71.271  1.00  0.00     0.453 C  
HETATM   26  H   UNL     1     -11.586   5.942  68.785  1.00  0.00     0.000 HD 
HETATM   27  C   UNL     1     -11.894   8.692  71.085  1.00  0.00    -0.331 C  
HETATM   28  C   UNL     1     -11.697  10.169  70.953  1.00  0.00    -0.468 C  
HETATM   29  C   UNL     1     -10.291  10.244  70.425  1.00  0.00    -0.003 C  
HETATM   30  C   UNL     1      -9.508   8.877  70.485  1.00  0.00    -0.243 C  
HETATM   31  O   UNL     1      -9.918  11.253  69.877  1.00  0.00     0.479 OA 
HETATM   32  C   UNL     1      -7.878   8.866  70.721  1.00  0.00    -0.135 C  
HETATM   33  C   UNL     1      -7.383  10.303  70.275  1.00  0.00    -0.032 C  
HETATM   34  C   UNL     1      -7.642   9.030  72.305  1.00  0.00     0.315 C  
HETATM   35  C   UNL     1      -6.146   8.877  72.671  1.00  0.00    -0.027 C  
BRANCH  17  36
HETATM   36  C   UNL     1      -8.060   5.333  71.754  1.00  0.00    -0.117 C  
HETATM   37  C   UNL     1      -7.407   4.360  72.406  1.00  0.00    -0.072 C  
ENDBRANCH  17  36
ENDBRANCH  14  15
ENDBRANCH  12  14
ENDBRANCH  11  12
ENDBRANCH  10  11
ENDBRANCH   8  10
TORSDOF 6
ENDMDL
MODEL      211
REMARK 921   NORMALIZED FREE ENERGY PREDICTED BY IDOCK:    1.73 KCAL/MOL
REMARK 922        TOTAL FREE ENERGY PREDICTED BY IDOCK:    0.58 KCAL/MOL
REMARK 923 INTER-LIGAND FREE ENERGY PREDICTED BY IDOCK:   -0.42 KCAL/MOL
REMARK 924 INTRA-LIGAND FREE ENERGY PREDICTED BY IDOCK:    1.00 KCAL/MOL
REMARK 927      BINDING AFFINITY PREDICTED BY RF-SCORE:    0.00 PKD
ROOT
HETATM    1  C   UNL     1      -7.064   4.435  68.408  1.00  0.00    -0.056 C  
HETATM    2  C   UNL     1      -7.273   4.204  66.897  1.00  0.00    -0.068 C  
HETATM    3  C   UNL     1      -8.550   3.367  66.818  1.00  0.00    -0.116 C  
HETATM    4  C   UNL     1      -8.971   3.164  68.289  1.00  0.00    -0.140 C  
HETATM    5  C   UNL     1      -9.936   4.264  68.845  1.00  0.00    -0.032 C  
HETATM    6  N   UNL     1      -7.641   3.190  68.908  1.00  0.00    -0.048 NA 
HETATM    7  C   UNL     1      -7.571   2.999  70.332  1.00  0.00    -0.043 C  
HETATM    8  C   UNL     1      -9.270   5.527  69.463  1.00  0.00    -0.121 C  
HETATM    9  C   UNL     1      -7.770   5.693  69.011  1.00  0.00    -0.089 C  
ENDROOT
BRANCH   8  10
HETATM   10  S   UNL     1      -9.925   6.351  71.317  1.00  0.00    -0.183 SA 
BRANCH  10  11
HETATM   11  C   UNL     1      -9.439   8.154  71.534  1.00  0.00    -0.171 C  
BRANCH  11  12
HETATM   12  C   UNL     1      -9.861   9.468  70.595  1.00  0.00    -0.262 C  
HETATM   13  O   UNL     1     -10.748  10.190  71.073  1.00  0.00    -0.180 OA 
BRANCH  12  14
HETATM   14  O   UNL     1      -9.361   9.815  69.343  1.00  0.00    -0.176 OA 
BRANCH  14  15
HETATM   15  C   UNL     1      -9.339  11.329  68.776  1.00  0.00    -0.128 C  
HETATM   16  C   UNL     1     -10.532  11.904  69.701  1.00  0.00     0.478 C  
HETATM   17  C   UNL     1     -10.851  13.420  69.783  1.00  0.00     0.310 C  
HETATM   18  C   UNL     1      -9.131  14.976  66.236  1.00  0.00    -0.288 C  
HETATM   19  C   UNL     1     -11.725  13.916  70.962  1.00  0.00     0.029 C  
HETATM   20  C   UNL     1     -11.736  13.682  68.525  1.00  0.00    -0.357 C  
HETATM   21  O   UNL     1     -13.147  13.738  68.716  1.00  0.00     0.712 OA 
HETATM   22  C   UNL     1     -11.213  14.815  67.681  1.00  0.00    -0.332 C  
HETATM   23  C   UNL     1      -7.847  14.282  66.749  1.00  0.00     0.413 C  
HETATM   24  C   UNL     1     -10.499  14.245  66.384  1.00  0.00    -0.282 C  
HETATM   25  C   UNL     1     -12.254  15.945  67.471  1.00  0.00     1.081 C  
HETATM   26  H   UNL     1     -13.686  13.897  67.950  1.00  0.00     0.000 HD 
HETATM   27  C   UNL     1     -11.464  14.573  65.201  1.00  0.00    -0.368 C  
HETATM   28  C   UNL     1     -11.016  13.771  64.021  1.00  0.00     0.004 C  
HETATM   29  C   UNL     1     -10.472  12.534  64.681  1.00  0.00    -0.319 C  
HETATM   30  C   UNL     1     -10.313  12.656  66.244  1.00  0.00    -0.269 C  
HETATM   31  O   UNL     1     -10.341  11.526  64.030  1.00  0.00    -0.288 OA 
HETATM   32  C   UNL     1      -9.103  11.850  67.018  1.00  0.00    -0.191 C  
HETATM   33  C   UNL     1      -8.700  10.668  66.044  1.00  0.00    -0.186 C  
HETATM   34  C   UNL     1      -7.775  12.742  66.850  1.00  0.00     0.113 C  
HETATM   35  C   UNL     1      -6.598  12.163  67.672  1.00  0.00    -0.116 C  
BRANCH  17  36
HETATM   36  C   UNL     1      -9.478  14.094  69.919  1.00  0.00     1.211 C  
HETATM   37  C   UNL     1      -9.181  15.401  69.944  1.00  0.00     0.040 C  
ENDBRANCH  17  36
ENDBRANCH  14  15
ENDBRANCH  12  14
ENDBRANCH  11  12
ENDBRANCH  10  11
ENDBRANCH   8  10
TORSDOF 6
ENDMDL
MODEL      212
REMARK 921   NORMALIZED FREE ENERGY PREDICTED BY IDOCK:    1.78 KCAL/MOL
REMARK 922        TOTAL FREE ENERGY PREDICTED BY IDOCK:    0.65 KCAL/MOL
REMARK 923 INTER-LIGAND FREE ENERGY PREDICTED BY IDOCK:   -0.54 KCAL/MOL
REMARK 924 INTRA-LIGAND FREE ENERGY PREDICTED BY IDOCK:    1.18 KCAL/MOL
REMARK 927      BINDING AFFINITY PREDICTED BY RF-SCORE:    0.00 PKD
ROOT
HETATM    1  C   UNL     1      -6.029   9.634  65.583  1.00  0.00    -0.061 C  
HETATM    2  C   UNL     1      -5.417  10.258  64.311  1.00  0.00    -0.131 C  
HETATM    3  C   UNL     1      -5.821   9.298  63.192  1.00  0.00    -0.088 C  
HETATM    4  C   UNL     1      -6.619   8.186  63.904  1.00  0.00    -0.067 C  
HETATM    5  C   UNL     1      -8.159   8.449  63.994  1.00  0.00    -0.142 C  
HETATM    6  N   UNL     1      -5.945   8.226  65.207  1.00  0.00    -0.045 NA 
HETATM    7  C   UNL     1      -6.381   7.287  66.206  1.00  0.00    -0.041 C  
HETATM    8  C   UNL     1      -8.656   9.261  65.225  1.00  0.00    -0.166 C  
HETATM    9  C   UNL     1      -7.494  10.066  65.919  1.00  0.00    -0.115 C  
ENDROOT
BRANCH   8  10
HETATM   10  S   UNL     1     -10.361   8.658  66.355  1.00  0.00     0.144 SA 
BRANCH  10  11
HETATM   11  C   UNL     1     -11.026  10.020  67.467  1.00  0.00    -0.212 C  
BRANCH  11  12
HETATM   12  C   UNL     1     -10.715  10.289  69.086  1.00  0.00    -0.228 C  
HETATM   13  O   UNL     1     -10.980   9.339  69.835  1.00  0.00    -0.232 OA 
BRANCH  12  14
HETATM   14  O   UNL     1     -10.235  11.453  69.677  1.00  0.00     0.110 OA 
BRANCH  14  15
HETATM   15  C   UNL     1     -10.395  12.924  69.023  1.00  0.00     0.068 C  
HETATM   16  C   UNL     1     -10.991  12.442  67.600  1.00  0.00    -0.276 C  
HETATM   17  C   UNL     1     -11.578  13.445  66.572  1.00  0.00    -0.394 C  
HETATM   18  C   UNL     1      -9.852  17.142  67.719  1.00  0.00    -0.274 C  
HETATM   19  C   UNL     1     -12.465  12.884  65.434  1.00  0.00    -0.511 C  
HETATM   20  C   UNL     1     -10.320  13.994  65.830  1.00  0.00    -0.318 C  
HETATM   21  O   UNL     1     -10.007  13.425  64.561  1.00  0.00    -0.630 OA 
HETATM   22  C   UNL     1     -10.266  15.500  65.827  1.00  0.00    -0.390 C  
HETATM   23  C   UNL     1     -10.445  16.802  69.107  1.00  0.00    -0.343 C  
HETATM   24  C   UNL     1      -9.191  16.009  66.878  1.00  0.00    -0.244 C  
HETATM   25  C   UNL     1     -10.193  16.101  64.399  1.00  0.00     1.672 C  
HETATM   26  H   UNL     1      -9.241  13.759  64.110  1.00  0.00     0.000 HD 
HETATM   27  C   UNL     1      -7.996  16.539  66.025  1.00  0.00     0.010 C  
HETATM   28  C   UNL     1      -6.830  16.713  66.946  1.00  0.00    -0.253 C  
HETATM   29  C   UNL     1      -7.062  15.612  67.943  1.00  0.00    -0.138 C  
HETATM   30  C   UNL     1      -8.480  14.933  67.833  1.00  0.00    -0.154 C  
HETATM   31  O   UNL     1      -6.142  15.231  68.627  1.00  0.00    -0.086 OA 
HETATM   32  C   UNL     1      -9.220  14.341  69.180  1.00  0.00     0.134 C  
HETATM   33  C   UNL     1      -8.053  14.097  70.224  1.00  0.00     1.726 C  
HETATM   34  C   UNL     1      -9.916  15.595  69.911  1.00  0.00    -0.235 C  
HETATM   35  C   UNL     1     -10.779  15.140  71.113  1.00  0.00     0.063 C  
BRANCH  17  36
HETATM   36  C   UNL     1     -12.453  14.386  67.412  1.00  0.00     0.148 C  
HETATM   37  C   UNL     1     -12.870  14.241  68.678  1.00  0.00     1.161 C  
ENDBRANCH  17  36
ENDBRANCH  14  15
ENDBRANCH  12  14
ENDBRANCH  11  12
ENDBRANCH  10  11
ENDBRANCH   8  10
TORSDOF 6
ENDMDL
MODEL      213
REMARK 921   NORMALIZED FREE ENERGY PREDICTED BY IDOCK:    3.01 KCAL/MOL
REMARK 922        TOTAL FREE ENERGY PREDICTED BY IDOCK:    2.32 KCAL/MOL
REMARK 923 INTER-LIGAND FREE ENERGY PREDICTED BY IDOCK:    3.18 KCAL/MOL
REMARK 924 INTRA-LIGAND FREE ENERGY PREDICTED BY IDOCK:   -0.86 KCAL/MOL
REMARK 927      BINDING AFFINITY PREDICTED BY RF-SCORE:    0.00 PKD
ROOT
HETATM    1  C   UNL     1     -13.377  11.133  71.587  1.00  0.00    -0.217 C  
HETATM    2  C   UNL     1     -14.020  12.532  71.486  1.00  0.00     0.981 C  
HETATM    3  C   UNL     1     -12.887  13.430  70.989  1.00  0.00    -0.329 C  
HETATM    4  C   UNL     1     -11.674  12.485  70.857  1.00  0.00     0.701 C  
HETATM    5  C   UNL     1     -11.523  11.815  69.450  1.00  0.00    -0.371 C  
HETATM    6  N   UNL     1     -12.013  11.534  71.921  1.00  0.00     1.077 NA 
HETATM    7  C   UNL     1     -11.090  10.458  72.166  1.00  0.00     2.991 C  
HETATM    8  C   UNL     1     -12.283  10.475  69.232  1.00  0.00     0.051 C  
HETATM    9  C   UNL     1     -13.431  10.261  70.289  1.00  0.00     0.423 C  
ENDROOT
BRANCH   8  10
HETATM   10  S   UNL     1     -11.356   8.794  68.306  1.00  0.00     1.045 SA 
BRANCH  10  11
HETATM   11  C   UNL     1      -9.944   9.271  67.160  1.00  0.00    -0.216 C  
BRANCH  11  12
HETATM   12  C   UNL     1      -8.592   8.384  66.746  1.00  0.00    -0.118 C  
HETATM   13  O   UNL     1      -8.622   7.879  65.614  1.00  0.00    -0.147 OA 
BRANCH  12  14
HETATM   14  O   UNL     1      -7.472   8.124  67.530  1.00  0.00    -0.091 OA 
BRANCH  14  15
HETATM   15  C   UNL     1      -7.419   6.973  68.665  1.00  0.00    -0.102 C  
HETATM   16  C   UNL     1      -7.568   5.708  67.671  1.00  0.00    -0.089 C  
HETATM   17  C   UNL     1      -7.358   4.250  68.158  1.00  0.00    -0.064 C  
HETATM   18  C   UNL     1      -7.914   4.530  72.350  1.00  0.00    -0.094 C  
HETATM   19  C   UNL     1      -7.135   3.152  67.088  1.00  0.00    -0.058 C  
HETATM   20  C   UNL     1      -8.730   3.873  68.800  1.00  0.00    -0.099 C  
HETATM   21  O   UNL     1      -9.633   3.103  68.011  1.00  0.00    -0.185 OA 
HETATM   22  C   UNL     1      -8.581   3.347  70.204  1.00  0.00    -0.109 C  
HETATM   23  C   UNL     1      -6.829   5.628  72.256  1.00  0.00    -0.073 C  
HETATM   24  C   UNL     1      -9.017   4.457  71.251  1.00  0.00    -0.166 C  
HETATM   25  C   UNL     1      -9.186   1.931  70.387  1.00  0.00    -0.170 C  
HETATM   26  H   UNL     1     -10.468   2.874  68.401  1.00  0.00     0.000 HD 
HETATM   27  C   UNL     1     -10.383   3.969  71.829  1.00  0.00    -0.054 C  
HETATM   28  C   UNL     1     -11.000   5.121  72.555  1.00  0.00    -0.276 C  
HETATM   29  C   UNL     1     -10.506   6.290  71.748  1.00  0.00    -0.211 C  
HETATM   30  C   UNL     1      -9.379   5.925  70.710  1.00  0.00    -0.180 C  
HETATM   31  O   UNL     1     -11.079   7.350  71.832  1.00  0.00    -0.233 OA 
HETATM   32  C   UNL     1      -8.213   7.025  70.333  1.00  0.00    -0.124 C  
HETATM   33  C   UNL     1      -8.833   8.434  70.708  1.00  0.00    -0.171 C  
HETATM   34  C   UNL     1      -7.111   6.947  71.504  1.00  0.00    -0.075 C  
HETATM   35  C   UNL     1      -5.880   7.828  71.180  1.00  0.00    -0.034 C  
BRANCH  17  36
HETATM   36  C   UNL     1      -6.090   4.313  69.020  1.00  0.00    -0.027 C  
HETATM   37  C   UNL     1      -5.199   3.345  69.278  1.00  0.00    -0.011 C  
ENDBRANCH  17  36
ENDBRANCH  14  15
ENDBRANCH  12  14
ENDBRANCH  11  12
ENDBRANCH  10  11
ENDBRANCH   8  10
TORSDOF 6
ENDMDL
MODEL      214
REMARK 921   NORMALIZED FREE ENERGY PREDICTED BY IDOCK:    3.22 KCAL/MOL
REMARK 922        TOTAL FREE ENERGY PREDICTED BY IDOCK:    2.59 KCAL/MOL
REMARK 923 INTER-LIGAND FREE ENERGY PREDICTED BY IDOCK:    1.78 KCAL/MOL
REMARK 924 INTRA-LIGAND FREE ENERGY PREDICTED BY IDOCK:    0.82 KCAL/MOL
REMARK 927      BINDING AFFINITY PREDICTED BY RF-SCORE:    0.00 PKD
ROOT
HETATM    1  C   UNL     1     -12.552  10.554  69.689  1.00  0.00     0.128 C  
HETATM    2  C   UNL     1     -13.627  10.760  70.776  1.00  0.00     0.545 C  
HETATM    3  C   UNL     1     -13.633   9.443  71.552  1.00  0.00    -0.408 C  
HETATM    4  C   UNL     1     -12.574   8.572  70.844  1.00  0.00     0.062 C  
HETATM    5  C   UNL     1     -11.128   8.705  71.428  1.00  0.00    -0.343 C  
HETATM    6  N   UNL     1     -12.707   9.116  69.488  1.00  0.00     2.055 NA 
HETATM    7  C   UNL     1     -11.882   8.538  68.460  1.00  0.00     2.252 C  
HETATM    8  C   UNL     1     -10.240   9.839  70.836  1.00  0.00    -0.125 C  
HETATM    9  C   UNL     1     -11.090  10.937  70.092  1.00  0.00    -0.238 C  
ENDROOT
BRANCH   8  10
HETATM   10  S   UNL     1      -8.210   9.502  70.282  1.00  0.00    -0.185 SA 
BRANCH  10  11
HETATM   11  C   UNL     1      -7.834  10.014  68.513  1.00  0.00    -0.093 C  
BRANCH  11  12
HETATM   12  C   UNL     1      -6.903  11.290  67.972  1.00  0.00    -0.067 C  
HETATM   13  O   UNL     1      -6.287  11.079  66.917  1.00  0.00    -0.083 OA 
BRANCH  12  14
HETATM   14  O   UNL     1      -6.719  12.528  68.581  1.00  0.00    -0.075 OA 
BRANCH  14  15
HETATM   15  C   UNL     1      -7.554  13.855  68.185  1.00  0.00    -0.134 C  
HETATM   16  C   UNL     1      -6.374  14.922  68.467  1.00  0.00    -0.093 C  
HETATM   17  C   UNL     1      -6.493  16.410  68.045  1.00  0.00    -0.147 C  
HETATM   18  C   UNL     1     -10.673  16.980  67.640  1.00  0.00    -0.295 C  
HETATM   19  C   UNL     1      -5.197  17.257  67.994  1.00  0.00    -0.121 C  
HETATM   20  C   UNL     1      -7.318  17.057  69.201  1.00  0.00    -0.186 C  
HETATM   21  O   UNL     1      -6.596  17.769  70.203  1.00  0.00     0.149 OA 
HETATM   22  C   UNL     1      -8.519  17.814  68.695  1.00  0.00    -0.271 C  
HETATM   23  C   UNL     1     -10.581  15.764  66.688  1.00  0.00    -0.307 C  
HETATM   24  C   UNL     1      -9.841  16.976  68.958  1.00  0.00    -0.240 C  
HETATM   25  C   UNL     1      -8.529  19.300  69.137  1.00  0.00    -0.155 C  
HETATM   26  H   UNL     1      -7.098  18.162  70.907  1.00  0.00     0.000 HD 
HETATM   27  C   UNL     1     -10.580  17.720  70.114  1.00  0.00     1.128 C  
HETATM   28  C   UNL     1     -11.643  16.802  70.630  1.00  0.00     0.531 C  
HETATM   29  C   UNL     1     -11.010  15.454  70.421  1.00  0.00    -0.323 C  
HETATM   30  C   UNL     1      -9.705  15.486  69.540  1.00  0.00    -0.282 C  
HETATM   31  O   UNL     1     -11.431  14.502  71.035  1.00  0.00    -0.230 OA 
HETATM   32  C   UNL     1      -9.326  14.206  68.575  1.00  0.00    -0.191 C  
HETATM   33  C   UNL     1     -10.106  12.973  69.193  1.00  0.00     0.295 C  
HETATM   34  C   UNL     1     -10.195  14.371  67.230  1.00  0.00    -0.252 C  
HETATM   35  C   UNL     1      -9.809  13.307  66.175  1.00  0.00    -0.286 C  
BRANCH  17  36
HETATM   36  C   UNL     1      -7.063  16.360  66.620  1.00  0.00    -0.175 C  
HETATM   37  C   UNL     1      -7.704  17.319  65.937  1.00  0.00    -0.064 C  
ENDBRANCH  17  36
ENDBRANCH  14  15
ENDBRANCH  12  14
ENDBRANCH  11  12
ENDBRANCH  10  11
ENDBRANCH   8  10
TORSDOF 6
ENDMDL
MODEL      215
REMARK 921   NORMALIZED FREE ENERGY PREDICTED BY IDOCK:    3.27 KCAL/MOL
REMARK 922        TOTAL FREE ENERGY PREDICTED BY IDOCK:    2.67 KCAL/MOL
REMARK 923 INTER-LIGAND FREE ENERGY PREDICTED BY IDOCK:    1.60 KCAL/MOL
REMARK 924 INTRA-LIGAND FREE ENERGY PREDICTED BY IDOCK:    1.07 KCAL/MOL
REMARK 927      BINDING AFFINITY PREDICTED BY RF-SCORE:    0.00 PKD
ROOT
HETATM    1  C   UNL     1      -7.396   7.754  69.769  1.00  0.00    -0.080 C  
HETATM    2  C   UNL     1      -5.926   8.153  69.523  1.00  0.00    -0.030 C  
HETATM    3  C   UNL     1      -5.127   6.920  69.950  1.00  0.00    -0.015 C  
HETATM    4  C   UNL     1      -6.195   5.913  70.425  1.00  0.00    -0.031 C  
HETATM    5  C   UNL     1      -6.731   4.959  69.305  1.00  0.00    -0.048 C  
HETATM    6  N   UNL     1      -7.200   6.864  70.910  1.00  0.00    -0.071 NA 
HETATM    7  C   UNL     1      -8.401   6.320  71.488  1.00  0.00    -0.126 C  
HETATM    8  C   UNL     1      -7.938   5.476  68.471  1.00  0.00    -0.088 C  
HETATM    9  C   UNL     1      -8.117   7.037  68.582  1.00  0.00    -0.121 C  
ENDROOT
BRANCH   8  10
HETATM   10  S   UNL     1      -9.617   4.236  68.037  1.00  0.00    -0.118 SA 
BRANCH  10  11
HETATM   11  C   UNL     1     -11.120   5.207  67.460  1.00  0.00     0.996 C  
BRANCH  11  12
HETATM   12  C   UNL     1     -11.191   6.469  66.369  1.00  0.00     0.701 C  
HETATM   13  O   UNL     1     -12.253   6.554  65.735  1.00  0.00     4.063 OA 
BRANCH  12  14
HETATM   14  O   UNL     1     -10.196   7.395  66.074  1.00  0.00     0.279 OA 
BRANCH  14  15
HETATM   15  C   UNL     1     -10.028   8.807  66.845  1.00  0.00    -0.257 C  
HETATM   16  C   UNL     1     -10.845   8.402  68.178  1.00  0.00     0.010 C  
HETATM   17  C   UNL     1     -10.851   9.299  69.444  1.00  0.00    -0.184 C  
HETATM   18  C   UNL     1      -9.750  13.108  67.948  1.00  0.00    -0.221 C  
HETATM   19  C   UNL     1     -11.320   8.669  70.779  1.00  0.00    -0.299 C  
HETATM   20  C   UNL     1     -11.941  10.371  69.133  1.00  0.00     0.016 C  
HETATM   21  O   UNL     1     -13.235  10.175  69.701  1.00  0.00    -0.264 OA 
HETATM   22  C   UNL     1     -11.430  11.777  69.309  1.00  0.00    -0.369 C  
HETATM   23  C   UNL     1      -8.532  12.348  67.371  1.00  0.00    -0.179 C  
HETATM   24  C   UNL     1     -11.157  12.440  67.894  1.00  0.00    -0.283 C  
HETATM   25  C   UNL     1     -12.266  12.603  70.322  1.00  0.00    -0.347 C  
HETATM   26  H   UNL     1     -13.898  10.827  69.511  1.00  0.00     0.000 HD 
HETATM   27  C   UNL     1     -12.294  13.492  67.701  1.00  0.00    -0.044 C  
HETATM   28  C   UNL     1     -12.289  13.900  66.262  1.00  0.00    -0.489 C  
HETATM   29  C   UNL     1     -11.843  12.632  65.587  1.00  0.00    -0.437 C  
HETATM   30  C   UNL     1     -11.304  11.531  66.578  1.00  0.00    -0.263 C  
HETATM   31  O   UNL     1     -12.055  12.483  64.408  1.00  0.00    -0.377 OA 
HETATM   32  C   UNL     1     -10.117  10.495  66.098  1.00  0.00    -0.306 C  
HETATM   33  C   UNL     1     -10.177  10.497  64.515  1.00  0.00    -0.355 C  
HETATM   34  C   UNL     1      -8.723  11.281  66.271  1.00  0.00    -0.184 C  
HETATM   35  C   UNL     1      -7.515  10.354  65.998  1.00  0.00    -0.134 C  
BRANCH  17  36
HETATM   36  C   UNL     1      -9.385   9.715  69.625  1.00  0.00    -0.226 C  
HETATM   37  C   UNL     1      -8.886  10.778  70.272  1.00  0.00     1.475 C  
ENDBRANCH  17  36
ENDBRANCH  14  15
ENDBRANCH  12  14
ENDBRANCH  11  12
ENDBRANCH  10  11
ENDBRANCH   8  10
TORSDOF 6
ENDMDL
MODEL      216
REMARK 921   NORMALIZED FREE ENERGY PREDICTED BY IDOCK:    3.33 KCAL/MOL
REMARK 922        TOTAL FREE ENERGY PREDICTED BY IDOCK:    2.75 KCAL/MOL
REMARK 923 INTER-LIGAND FREE ENERGY PREDICTED BY IDOCK:    2.26 KCAL/MOL
REMARK 924 INTRA-LIGAND FREE ENERGY PREDICTED BY IDOCK:    0.48 KCAL/MOL
REMARK 927      BINDING AFFINITY PREDICTED BY RF-SCORE:    0.00 PKD
ROOT
HETATM    1  C   UNL     1      -7.387   5.618  65.418  1.00  0.00    -0.072 C  
HETATM    2  C   UNL     1      -8.842   5.449  64.932  1.00  0.00    -0.054 C  
HETATM    3  C   UNL     1      -9.543   4.736  66.089  1.00  0.00    -0.185 C  
HETATM    4  C   UNL     1      -8.437   4.533  67.145  1.00  0.00    -0.104 C  
HETATM    5  C   UNL     1      -8.304   5.701  68.178  1.00  0.00    -0.099 C  
HETATM    6  N   UNL     1      -7.285   4.419  66.244  1.00  0.00    -0.074 NA 
HETATM    7  C   UNL     1      -5.998   4.183  66.843  1.00  0.00    -0.024 C  
HETATM    8  C   UNL     1      -7.370   6.880  67.779  1.00  0.00    -0.097 C  
HETATM    9  C   UNL     1      -7.085   6.919  66.231  1.00  0.00    -0.074 C  
ENDROOT
BRANCH   8  10
HETATM   10  S   UNL     1      -5.960   7.709  69.147  1.00  0.00    -0.035 SA 
BRANCH  10  11
HETATM   11  C   UNL     1      -6.680   9.091  70.199  1.00  0.00    -0.047 C  
BRANCH  11  12
HETATM   12  C   UNL     1      -6.384  10.732  70.109  1.00  0.00    -0.147 C  
HETATM   13  O   UNL     1      -5.241  11.039  69.741  1.00  0.00    -0.041 OA 
BRANCH  12  14
HETATM   14  O   UNL     1      -7.251  11.771  70.431  1.00  0.00     0.715 OA 
BRANCH  14  15
HETATM   15  C   UNL     1      -7.825  12.827  69.348  1.00  0.00     0.747 C  
HETATM   16  C   UNL     1      -6.758  14.005  69.637  1.00  0.00    -0.064 C  
HETATM   17  C   UNL     1      -6.643  15.253  68.723  1.00  0.00    -0.102 C  
HETATM   18  C   UNL     1     -10.389  15.363  66.744  1.00  0.00    -0.279 C  
HETATM   19  C   UNL     1      -5.365  16.121  68.835  1.00  0.00    -0.111 C  
HETATM   20  C   UNL     1      -7.780  16.193  69.233  1.00  0.00    -0.210 C  
HETATM   21  O   UNL     1      -7.410  17.248  70.118  1.00  0.00     0.970 OA 
HETATM   22  C   UNL     1      -8.690  16.650  68.123  1.00  0.00    -0.201 C  
HETATM   23  C   UNL     1     -10.042  13.907  66.353  1.00  0.00    -0.298 C  
HETATM   24  C   UNL     1     -10.065  15.860  68.184  1.00  0.00    -0.229 C  
HETATM   25  C   UNL     1      -8.770  18.194  68.003  1.00  0.00    -0.276 C  
HETATM   26  H   UNL     1      -8.102  17.819  70.429  1.00  0.00     0.000 HD 
HETATM   27  C   UNL     1     -11.116  16.897  68.693  1.00  0.00    -0.194 C  
HETATM   28  C   UNL     1     -12.340  16.135  69.092  1.00  0.00     0.429 C  
HETATM   29  C   UNL     1     -11.748  14.842  69.583  1.00  0.00    -0.320 C  
HETATM   30  C   UNL     1     -10.219  14.666  69.246  1.00  0.00    -0.156 C  
HETATM   31  O   UNL     1     -12.405  14.126  70.300  1.00  0.00    -0.322 OA 
HETATM   32  C   UNL     1      -9.601  13.165  68.964  1.00  0.00     0.351 C  
HETATM   33  C   UNL     1     -10.612  12.162  69.656  1.00  0.00     0.459 C  
HETATM   34  C   UNL     1      -9.943  12.808  67.433  1.00  0.00    -0.212 C  
HETATM   35  C   UNL     1      -9.274  11.480  67.001  1.00  0.00    -0.180 C  
BRANCH  17  36
HETATM   36  C   UNL     1      -6.688  14.688  67.296  1.00  0.00     0.137 C  
HETATM   37  C   UNL     1      -7.203  15.240  66.188  1.00  0.00     2.662 C  
ENDBRANCH  17  36
ENDBRANCH  14  15
ENDBRANCH  12  14
ENDBRANCH  11  12
ENDBRANCH  10  11
ENDBRANCH   8  10
TORSDOF 6
ENDMDL
MODEL      217
REMARK 921   NORMALIZED FREE ENERGY PREDICTED BY IDOCK:    3.76 KCAL/MOL
REMARK 922        TOTAL FREE ENERGY PREDICTED BY IDOCK:    3.33 KCAL/MOL
REMARK 923 INTER-LIGAND FREE ENERGY PREDICTED BY IDOCK:    0.11 KCAL/MOL
REMARK 924 INTRA-LIGAND FREE ENERGY PREDICTED BY IDOCK:    3.22 KCAL/MOL
REMARK 927      BINDING AFFINITY PREDICTED BY RF-SCORE:    0.00 PKD
ROOT
HETATM    1  C   UNL     1     -10.719  12.982  68.566  1.00  0.00    -0.255 C  
HETATM    2  C   UNL     1     -10.867  14.477  68.918  1.00  0.00    -0.262 C  
HETATM    3  C   UNL     1      -9.488  15.069  68.626  1.00  0.00    -0.212 C  
HETATM    4  C   UNL     1      -8.646  13.869  68.145  1.00  0.00    -0.180 C  
HETATM    5  C   UNL     1      -8.677  13.633  66.598  1.00  0.00    -0.018 C  
HETATM    6  N   UNL     1      -9.311  12.808  68.909  1.00  0.00     0.179 NA 
HETATM    7  C   UNL     1      -8.797  11.471  68.770  1.00  0.00    -0.042 C  
HETATM    8  C   UNL     1      -9.825  12.735  66.054  1.00  0.00    -0.255 C  
HETATM    9  C   UNL     1     -11.013  12.598  67.079  1.00  0.00    -0.300 C  
ENDROOT
BRANCH   8  10
HETATM   10  S   UNL     1      -9.467  11.198  64.621  1.00  0.00    -0.188 SA 
BRANCH  10  11
HETATM   11  C   UNL     1      -8.752   9.634  65.382  1.00  0.00    -0.158 C  
BRANCH  11  12
HETATM   12  C   UNL     1      -9.200   8.862  66.793  1.00  0.00    -0.159 C  
HETATM   13  O   UNL     1     -10.276   9.239  67.277  1.00  0.00    -0.216 OA 
BRANCH  12  14
HETATM   14  O   UNL     1      -8.495   7.885  67.489  1.00  0.00    -0.122 OA 
BRANCH  14  15
HETATM   15  C   UNL     1      -8.727   7.557  69.055  1.00  0.00    -0.136 C  
HETATM   16  C   UNL     1      -7.169   7.476  69.473  1.00  0.00    -0.082 C  
HETATM   17  C   UNL     1      -6.717   7.403  70.956  1.00  0.00    -0.043 C  
HETATM   18  C   UNL     1     -10.176   6.001  72.963  1.00  0.00    -0.210 C  
HETATM   19  C   UNL     1      -5.236   7.720  71.281  1.00  0.00    -0.027 C  
HETATM   20  C   UNL     1      -6.865   5.892  71.314  1.00  0.00    -0.066 C  
HETATM   21  O   UNL     1      -5.684   5.093  71.286  1.00  0.00    -0.014 OA 
HETATM   22  C   UNL     1      -7.692   5.673  72.554  1.00  0.00    -0.102 C  
HETATM   23  C   UNL     1     -10.864   7.203  72.274  1.00  0.00    -0.264 C  
HETATM   24  C   UNL     1      -9.140   5.158  72.161  1.00  0.00    -0.150 C  
HETATM   25  C   UNL     1      -6.938   4.880  73.653  1.00  0.00    -0.072 C  
HETATM   26  H   UNL     1      -5.774   4.174  71.504  1.00  0.00     0.000 HD 
HETATM   27  C   UNL     1      -9.170   3.652  72.573  1.00  0.00    -0.145 C  
HETATM   28  C   UNL     1     -10.368   3.034  71.925  1.00  0.00     0.072 C  
HETATM   29  C   UNL     1     -10.466   3.824  70.649  1.00  0.00     0.972 C  
HETATM   30  C   UNL     1      -9.538   5.096  70.607  1.00  0.00    -0.242 C  
HETATM   31  O   UNL     1     -11.101   3.375  69.724  1.00  0.00     3.980 OA 
HETATM   32  C   UNL     1     -10.009   6.437  69.775  1.00  0.00    -0.196 C  
HETATM   33  C   UNL     1     -11.077   5.922  68.724  1.00  0.00    -0.218 C  
HETATM   34  C   UNL     1     -11.014   7.246  70.738  1.00  0.00    -0.273 C  
HETATM   35  C   UNL     1     -11.405   8.612  70.125  1.00  0.00    -0.083 C  
BRANCH  17  36
HETATM   36  C   UNL     1      -7.577   8.456  71.670  1.00  0.00    -0.126 C  
HETATM   37  C   UNL     1      -8.670   8.278  72.426  1.00  0.00    -0.279 C  
ENDBRANCH  17  36
ENDBRANCH  14  15
ENDBRANCH  12  14
ENDBRANCH  11  12
ENDBRANCH  10  11
ENDBRANCH   8  10
TORSDOF 6
ENDMDL
MODEL      218
REMARK 921   NORMALIZED FREE ENERGY PREDICTED BY IDOCK:    4.35 KCAL/MOL
REMARK 922        TOTAL FREE ENERGY PREDICTED BY IDOCK:    4.12 KCAL/MOL
REMARK 923 INTER-LIGAND FREE ENERGY PREDICTED BY IDOCK:    4.59 KCAL/MOL
REMARK 924 INTRA-LIGAND FREE ENERGY PREDICTED BY IDOCK:   -0.47 KCAL/MOL
REMARK 927      BINDING AFFINITY PREDICTED BY RF-SCORE:    0.00 PKD
ROOT
HETATM    1  C   UNL     1      -7.025  14.271  70.635  1.00  0.00     0.604 C  
HETATM    2  C   UNL     1      -7.117  15.795  70.857  1.00  0.00     1.812 C  
HETATM    3  C   UNL     1      -6.289  16.390  69.718  1.00  0.00    -0.186 C  
HETATM    4  C   UNL     1      -5.769  15.165  68.937  1.00  0.00    -0.094 C  
HETATM    5  C   UNL     1      -6.704  14.693  67.773  1.00  0.00    -0.194 C  
HETATM    6  N   UNL     1      -5.691  14.208  70.046  1.00  0.00    -0.113 NA 
HETATM    7  C   UNL     1      -5.203  12.888  69.747  1.00  0.00    -0.082 C  
HETATM    8  C   UNL     1      -7.821  13.676  68.148  1.00  0.00    -0.143 C  
HETATM    9  C   UNL     1      -8.112  13.650  69.696  1.00  0.00     1.059 C  
ENDROOT
BRANCH   8  10
HETATM   10  S   UNL     1      -8.217  11.953  66.958  1.00  0.00    -0.158 SA 
BRANCH  10  11
HETATM   11  C   UNL     1      -9.132  12.352  65.365  1.00  0.00     0.440 C  
BRANCH  11  12
HETATM   12  C   UNL     1     -10.327  11.472  64.600  1.00  0.00    -0.297 C  
HETATM   13  O   UNL     1     -11.336  12.120  64.286  1.00  0.00    -0.322 OA 
BRANCH  12  14
HETATM   14  O   UNL     1     -10.330  10.110  64.314  1.00  0.00    -0.065 OA 
BRANCH  14  15
HETATM   15  C   UNL     1      -9.959   8.966  65.395  1.00  0.00     0.578 C  
HETATM   16  C   UNL     1     -10.571   9.712  66.690  1.00  0.00    -0.173 C  
HETATM   17  C   UNL     1     -10.725   8.994  68.057  1.00  0.00    -0.184 C  
HETATM   18  C   UNL     1      -7.988   5.771  67.782  1.00  0.00    -0.098 C  
HETATM   19  C   UNL     1     -11.660   9.635  69.113  1.00  0.00     0.238 C  
HETATM   20  C   UNL     1      -9.307   9.106  68.696  1.00  0.00    -0.135 C  
HETATM   21  O   UNL     1      -9.102  10.134  69.662  1.00  0.00    -0.240 OA 
HETATM   22  C   UNL     1      -8.769   7.770  69.139  1.00  0.00    -0.139 C  
HETATM   23  C   UNL     1      -8.759   5.440  66.482  1.00  0.00    -0.117 C  
HETATM   24  C   UNL     1      -7.668   7.259  68.117  1.00  0.00    -0.117 C  
HETATM   25  C   UNL     1      -8.401   7.734  70.645  1.00  0.00    -0.124 C  
HETATM   26  H   UNL     1      -8.238  10.202  70.051  1.00  0.00     0.000 HD 
HETATM   27  C   UNL     1      -6.306   7.407  68.866  1.00  0.00    -0.039 C  
HETATM   28  C   UNL     1      -5.218   7.267  67.849  1.00  0.00    -0.024 C  
HETATM   29  C   UNL     1      -5.866   7.854  66.626  1.00  0.00    -0.044 C  
HETATM   30  C   UNL     1      -7.415   8.102  66.774  1.00  0.00    -0.090 C  
HETATM   31  O   UNL     1      -5.172   8.222  65.708  1.00  0.00    -0.030 OA 
HETATM   32  C   UNL     1      -8.404   7.970  65.464  1.00  0.00    -0.153 C  
HETATM   33  C   UNL     1      -7.458   8.164  64.207  1.00  0.00    -0.101 C  
HETATM   34  C   UNL     1      -8.709   6.401  65.274  1.00  0.00     0.012 C  
HETATM   35  C   UNL     1      -9.759   6.161  64.163  1.00  0.00     2.423 C  
BRANCH  17  36
HETATM   36  C   UNL     1     -11.310   7.619  67.703  1.00  0.00     0.625 C  
HETATM   37  C   UNL     1     -11.600   6.594  68.517  1.00  0.00     0.258 C  
ENDBRANCH  17  36
ENDBRANCH  14  15
ENDBRANCH  12  14
ENDBRANCH  11  12
ENDBRANCH  10  11
ENDBRANCH   8  10
TORSDOF 6
ENDMDL
MODEL      219
REMARK 921   NORMALIZED FREE ENERGY PREDICTED BY IDOCK:    4.49 KCAL/MOL
REMARK 922        TOTAL FREE ENERGY PREDICTED BY IDOCK:    4.31 KCAL/MOL
REMARK 923 INTER-LIGAND FREE ENERGY PREDICTED BY IDOCK:    4.79 KCAL/MOL
REMARK 924 INTRA-LIGAND FREE ENERGY PREDICTED BY IDOCK:   -0.48 KCAL/MOL
REMARK 927      BINDING AFFINITY PREDICTED BY RF-SCORE:    0.00 PKD
ROOT
HETATM    1  C   UNL     1     -12.106  14.957  68.996  1.00  0.00    -0.212 C  
HETATM    2  C   UNL     1     -12.704  14.922  70.417  1.00  0.00    -0.370 C  
HETATM    3  C   UNL     1     -12.664  13.443  70.805  1.00  0.00    -0.301 C  
HETATM    4  C   UNL     1     -12.063  12.737  69.571  1.00  0.00    -0.205 C  
HETATM    5  C   UNL     1     -10.503  12.604  69.597  1.00  0.00     0.729 C  
HETATM    6  N   UNL     1     -12.552  13.647  68.530  1.00  0.00     0.348 NA 
HETATM    7  C   UNL     1     -12.227  13.327  67.166  1.00  0.00    -0.227 C  
HETATM    8  C   UNL     1      -9.693  13.795  69.007  1.00  0.00     0.148 C  
HETATM    9  C   UNL     1     -10.552  15.112  68.912  1.00  0.00    -0.242 C  
ENDROOT
BRANCH   8  10
HETATM   10  S   UNL     1      -8.051  13.492  67.683  1.00  0.00    -0.195 SA 
BRANCH  10  11
HETATM   11  C   UNL     1      -8.199  14.477  66.088  1.00  0.00     1.220 C  
BRANCH  11  12
HETATM   12  C   UNL     1      -9.582  14.979  65.298  1.00  0.00     0.043 C  
HETATM   13  O   UNL     1     -10.087  14.138  64.540  1.00  0.00    -0.287 OA 
BRANCH  12  14
HETATM   14  O   UNL     1     -10.197  16.225  65.368  1.00  0.00    -0.518 OA 
BRANCH  14  15
HETATM   15  C   UNL     1      -9.447  17.568  65.864  1.00  0.00     0.031 C  
HETATM   16  C   UNL     1      -7.939  16.994  65.781  1.00  0.00     0.303 C  
HETATM   17  C   UNL     1      -6.699  17.915  65.929  1.00  0.00    -0.312 C  
HETATM   18  C   UNL     1      -8.238  21.310  67.945  1.00  0.00     0.582 C  
HETATM   19  C   UNL     1      -5.328  17.371  65.455  1.00  0.00     0.573 C  
HETATM   20  C   UNL     1      -6.529  18.061  67.473  1.00  0.00    -0.172 C  
HETATM   21  O   UNL     1      -5.551  17.239  68.106  1.00  0.00    -0.119 OA 
HETATM   22  C   UNL     1      -6.456  19.502  67.909  1.00  0.00    -0.248 C  
HETATM   23  C   UNL     1      -9.260  21.333  66.784  1.00  0.00     0.681 C  
HETATM   24  C   UNL     1      -7.830  19.942  68.570  1.00  0.00    -0.236 C  
HETATM   25  C   UNL     1      -5.160  19.832  68.695  1.00  0.00    -0.208 C  
HETATM   26  H   UNL     1      -5.448  17.328  69.046  1.00  0.00     0.000 HD 
HETATM   27  C   UNL     1      -7.534  20.066  70.098  1.00  0.00     0.519 C  
HETATM   28  C   UNL     1      -8.851  20.143  70.804  1.00  0.00     1.831 C  
HETATM   29  C   UNL     1      -9.721  19.292  69.921  1.00  0.00     0.501 C  
HETATM   30  C   UNL     1      -9.062  18.914  68.541  1.00  0.00    -0.392 C  
HETATM   31  O   UNL     1     -10.754  18.847  70.362  1.00  0.00     1.399 OA 
HETATM   32  C   UNL     1     -10.001  18.717  67.202  1.00  0.00    -0.376 C  
HETATM   33  C   UNL     1     -11.454  18.411  67.753  1.00  0.00     0.915 C  
HETATM   34  C   UNL     1     -10.287  20.191  66.621  1.00  0.00    -0.508 C  
HETATM   35  C   UNL     1     -11.033  20.128  65.266  1.00  0.00     0.206 C  
BRANCH  17  36
HETATM   36  C   UNL     1      -7.027  19.142  65.066  1.00  0.00     0.217 C  
HETATM   37  C   UNL     1      -6.216  20.134  64.673  1.00  0.00    -0.325 C  
ENDBRANCH  17  36
ENDBRANCH  14  15
ENDBRANCH  12  14
ENDBRANCH  11  12
ENDBRANCH  10  11
ENDBRANCH   8  10
TORSDOF 6
ENDMDL
MODEL      220
REMARK 921   NORMALIZED FREE ENERGY PREDICTED BY IDOCK:    5.27 KCAL/MOL
REMARK 922        TOTAL FREE ENERGY PREDICTED BY IDOCK:    5.36 KCAL/MOL
REMARK 923 INTER-LIGAND FREE ENERGY PREDICTED BY IDOCK:    6.00 KCAL/MOL
REMARK 924 INTRA-LIGAND FREE ENERGY PREDICTED BY IDOCK:   -0.64 KCAL/MOL
REMARK 927      BINDING AFFINITY PREDICTED BY RF-SCORE:    0.00 PKD
ROOT
HETATM    1  C   UNL     1     -13.650  11.602  72.070  1.00  0.00    -0.041 C  
HETATM    2  C   UNL     1     -14.370  12.919  72.427  1.00  0.00     0.098 C  
HETATM    3  C   UNL     1     -13.317  14.001  72.183  1.00  0.00    -0.545 C  
HETATM    4  C   UNL     1     -12.065  13.225  71.722  1.00  0.00     0.723 C  
HETATM    5  C   UNL     1     -11.961  13.024  70.173  1.00  0.00    -0.374 C  
HETATM    6  N   UNL     1     -12.292  11.976  72.457  1.00  0.00     1.437 NA 
HETATM    7  C   UNL     1     -11.300  10.942  72.326  1.00  0.00     4.404 C  
HETATM    8  C   UNL     1     -12.661  11.763  69.587  1.00  0.00     0.411 C  
HETATM    9  C   UNL     1     -13.733  11.162  70.572  1.00  0.00     1.545 C  
ENDROOT
BRANCH   8  10
HETATM   10  S   UNL     1     -11.702  10.508  68.156  1.00  0.00     0.325 SA 
BRANCH  10  11
HETATM   11  C   UNL     1     -10.713  11.470  66.878  1.00  0.00    -0.263 C  
BRANCH  11  12
HETATM   12  C   UNL     1      -9.680  10.885  65.703  1.00  0.00    -0.232 C  
HETATM   13  O   UNL     1     -10.133  10.908  64.550  1.00  0.00    -0.289 OA 
BRANCH  12  14
HETATM   14  O   UNL     1      -8.406  10.354  65.878  1.00  0.00    -0.140 OA 
BRANCH  14  15
HETATM   15  C   UNL     1      -8.126   8.838  66.367  1.00  0.00    -0.103 C  
HETATM   16  C   UNL     1      -9.671   8.385  66.499  1.00  0.00    -0.330 C  
HETATM   17  C   UNL     1     -10.078   6.906  66.730  1.00  0.00    -0.264 C  
HETATM   18  C   UNL     1      -6.558   5.159  68.315  1.00  0.00    -0.049 C  
HETATM   19  C   UNL     1     -11.550   6.506  66.457  1.00  0.00     1.290 C  
HETATM   20  C   UNL     1      -9.917   6.713  68.269  1.00  0.00    -0.144 C  
HETATM   21  O   UNL     1     -11.096   6.789  69.067  1.00  0.00    -0.399 OA 
HETATM   22  C   UNL     1      -9.052   5.527  68.612  1.00  0.00    -0.128 C  
HETATM   23  C   UNL     1      -5.894   5.739  67.044  1.00  0.00    -0.018 C  
HETATM   24  C   UNL     1      -7.615   6.015  69.075  1.00  0.00    -0.091 C  
HETATM   25  C   UNL     1      -9.772   4.495  69.520  1.00  0.00    -0.282 C  
HETATM   26  H   UNL     1     -10.997   6.672  70.004  1.00  0.00     0.000 HD 
HETATM   27  C   UNL     1      -7.569   5.763  70.615  1.00  0.00    -0.091 C  
HETATM   28  C   UNL     1      -6.389   6.508  71.156  1.00  0.00    -0.048 C  
HETATM   29  C   UNL     1      -6.331   7.696  70.237  1.00  0.00    -0.034 C  
HETATM   30  C   UNL     1      -7.264   7.578  68.972  1.00  0.00    -0.085 C  
HETATM   31  O   UNL     1      -5.724   8.682  70.582  1.00  0.00    -0.027 OA 
HETATM   32  C   UNL     1      -6.821   8.278  67.548  1.00  0.00    -0.070 C  
HETATM   33  C   UNL     1      -5.783   9.407  67.945  1.00  0.00    -0.041 C  
HETATM   34  C   UNL     1      -5.790   7.266  66.839  1.00  0.00    -0.030 C  
HETATM   35  C   UNL     1      -5.421   7.743  65.414  1.00  0.00    -0.033 C  
BRANCH  17  36
HETATM   36  C   UNL     1      -9.200   6.111  65.753  1.00  0.00    -0.014 C  
HETATM   37  C   UNL     1      -9.471   4.957  65.127  1.00  0.00    -0.070 C  
ENDBRANCH  17  36
ENDBRANCH  14  15
ENDBRANCH  12  14
ENDBRANCH  11  12
ENDBRANCH  10  11
ENDBRANCH   8  10
TORSDOF 6
ENDMDL
MODEL      221
REMARK 921   NORMALIZED FREE ENERGY PREDICTED BY IDOCK:    5.87 KCAL/MOL
REMARK 922        TOTAL FREE ENERGY PREDICTED BY IDOCK:    6.18 KCAL/MOL
REMARK 923 INTER-LIGAND FREE ENERGY PREDICTED BY IDOCK:    5.68 KCAL/MOL
REMARK 924 INTRA-LIGAND FREE ENERGY PREDICTED BY IDOCK:    0.50 KCAL/MOL
REMARK 927      BINDING AFFINITY PREDICTED BY RF-SCORE:    0.00 PKD
ROOT
HETATM    1  C   UNL     1      -9.899  14.818  69.519  1.00  0.00     0.012 C  
HETATM    2  C   UNL     1     -10.410  14.350  70.897  1.00  0.00     1.622 C  
HETATM    3  C   UNL     1     -11.186  15.552  71.436  1.00  0.00    -0.410 C  
HETATM    4  C   UNL     1     -11.049  16.626  70.337  1.00  0.00     0.009 C  
HETATM    5  C   UNL     1     -12.185  16.600  69.260  1.00  0.00     1.249 C  
HETATM    6  N   UNL     1      -9.737  16.240  69.808  1.00  0.00    -0.043 NA 
HETATM    7  C   UNL     1      -9.194  17.035  68.739  1.00  0.00    -0.252 C  
HETATM    8  C   UNL     1     -11.961  15.664  68.036  1.00  0.00     0.130 C  
HETATM    9  C   UNL     1     -10.863  14.570  68.312  1.00  0.00    -0.247 C  
ENDROOT
BRANCH   8  10
HETATM   10  S   UNL     1     -12.347  16.312  66.042  1.00  0.00     2.978 SA 
BRANCH  10  11
HETATM   11  C   UNL     1     -11.864  15.037  64.747  1.00  0.00    -0.341 C  
BRANCH  11  12
HETATM   12  C   UNL     1     -10.523  14.042  64.713  1.00  0.00    -0.421 C  
HETATM   13  O   UNL     1     -10.258  13.559  63.603  1.00  0.00     0.235 OA 
BRANCH  12  14
HETATM   14  O   UNL     1      -9.707  13.676  65.779  1.00  0.00    -0.237 OA 
BRANCH  14  15
HETATM   15  C   UNL     1      -9.225  12.158  66.058  1.00  0.00    -0.118 C  
HETATM   16  C   UNL     1      -8.353  12.468  67.382  1.00  0.00    -0.182 C  
HETATM   17  C   UNL     1      -7.792  11.335  68.282  1.00  0.00    -0.130 C  
HETATM   18  C   UNL     1      -7.787   7.962  65.717  1.00  0.00    -0.103 C  
HETATM   19  C   UNL     1      -7.316  11.708  69.708  1.00  0.00     0.461 C  
HETATM   20  C   UNL     1      -6.483  10.898  67.553  1.00  0.00    -0.058 C  
HETATM   21  O   UNL     1      -5.251  11.417  68.050  1.00  0.00    -0.043 OA 
HETATM   22  C   UNL     1      -6.434   9.414  67.301  1.00  0.00    -0.070 C  
HETATM   23  C   UNL     1      -9.279   8.317  65.516  1.00  0.00    -0.000 C  
HETATM   24  C   UNL     1      -6.735   9.110  65.773  1.00  0.00    -0.072 C  
HETATM   25  C   UNL     1      -5.185   8.735  67.920  1.00  0.00    -0.035 C  
HETATM   26  H   UNL     1      -4.455  11.152  67.607  1.00  0.00     0.000 HD 
HETATM   27  C   UNL     1      -5.367   8.676  65.159  1.00  0.00    -0.039 C  
HETATM   28  C   UNL     1      -5.513   8.708  63.670  1.00  0.00    -0.062 C  
HETATM   29  C   UNL     1      -6.490   9.835  63.484  1.00  0.00    -0.117 C  
HETATM   30  C   UNL     1      -7.169  10.326  64.818  1.00  0.00    -0.092 C  
HETATM   31  O   UNL     1      -6.576  10.370  62.404  1.00  0.00    -0.129 OA 
HETATM   32  C   UNL     1      -8.710  10.909  64.797  1.00  0.00    -0.055 C  
HETATM   33  C   UNL     1      -8.963  11.362  63.301  1.00  0.00    -0.036 C  
HETATM   34  C   UNL     1      -9.686   9.630  64.813  1.00  0.00    -0.108 C  
HETATM   35  C   UNL     1     -11.168  10.053  64.953  1.00  0.00     2.660 C  
BRANCH  17  36
HETATM   36  C   UNL     1      -8.960  10.351  68.432  1.00  0.00    -0.137 C  
HETATM   37  C   UNL     1      -8.952   9.106  68.929  1.00  0.00    -0.139 C  
ENDBRANCH  17  36
ENDBRANCH  14  15
ENDBRANCH  12  14
ENDBRANCH  11  12
ENDBRANCH  10  11
ENDBRANCH   8  10
TORSDOF 6
ENDMDL
MODEL      222
REMARK 921   NORMALIZED FREE ENERGY PREDICTED BY IDOCK:    6.43 KCAL/MOL
REMARK 922        TOTAL FREE ENERGY PREDICTED BY IDOCK:    6.93 KCAL/MOL
REMARK 923 INTER-LIGAND FREE ENERGY PREDICTED BY IDOCK:    5.23 KCAL/MOL
REMARK 924 INTRA-LIGAND FREE ENERGY PREDICTED BY IDOCK:    1.70 KCAL/MOL
REMARK 927      BINDING AFFINITY PREDICTED BY RF-SCORE:    0.00 PKD
ROOT
HETATM    1  C   UNL     1     -12.906  15.003  66.187  1.00  0.00     1.026 C  
HETATM    2  C   UNL     1     -13.041  14.892  64.654  1.00  0.00     0.843 C  
HETATM    3  C   UNL     1     -11.789  14.128  64.221  1.00  0.00    -0.420 C  
HETATM    4  C   UNL     1     -11.019  13.872  65.533  1.00  0.00    -0.302 C  
HETATM    5  C   UNL     1     -11.381  12.525  66.245  1.00  0.00    -0.386 C  
HETATM    6  N   UNL     1     -11.449  15.058  66.281  1.00  0.00    -0.272 NA 
HETATM    7  C   UNL     1     -10.918  15.233  67.607  1.00  0.00    -0.311 C  
HETATM    8  C   UNL     1     -12.579  12.561  67.237  1.00  0.00     1.341 C  
HETATM    9  C   UNL     1     -13.503  13.817  67.012  1.00  0.00     4.218 C  
ENDROOT
BRANCH   8  10
HETATM   10  S   UNL     1     -12.476  11.640  69.157  1.00  0.00     0.489 SA 
BRANCH  10  11
HETATM   11  C   UNL     1     -11.081  10.388  69.299  1.00  0.00    -0.253 C  
BRANCH  11  12
HETATM   12  C   UNL     1     -11.179   8.744  69.573  1.00  0.00     0.129 C  
HETATM   13  O   UNL     1     -12.099   8.392  70.325  1.00  0.00     0.146 OA 
BRANCH  12  14
HETATM   14  O   UNL     1     -10.337   7.748  69.087  1.00  0.00    -0.208 OA 
BRANCH  14  15
HETATM   15  C   UNL     1      -8.858   8.034  68.497  1.00  0.00    -0.134 C  
HETATM   16  C   UNL     1      -8.626   9.456  69.228  1.00  0.00    -0.143 C  
HETATM   17  C   UNL     1      -7.245  10.163  69.233  1.00  0.00    -0.085 C  
HETATM   18  C   UNL     1      -5.237   8.407  65.940  1.00  0.00    -0.031 C  
HETATM   19  C   UNL     1      -7.012  11.296  70.263  1.00  0.00     0.568 C  
HETATM   20  C   UNL     1      -7.198  10.894  67.855  1.00  0.00    -0.086 C  
HETATM   21  O   UNL     1      -7.511  12.284  67.839  1.00  0.00    -0.100 OA 
HETATM   22  C   UNL     1      -5.954  10.563  67.072  1.00  0.00    -0.053 C  
HETATM   23  C   UNL     1      -5.586   7.075  66.646  1.00  0.00    -0.022 C  
HETATM   24  C   UNL     1      -6.298   9.547  65.903  1.00  0.00    -0.075 C  
HETATM   25  C   UNL     1      -5.127  11.819  66.691  1.00  0.00    -0.041 C  
HETATM   26  H   UNL     1      -7.483  12.729  67.001  1.00  0.00     0.000 HD 
HETATM   27  C   UNL     1      -6.209  10.383  64.587  1.00  0.00    -0.080 C  
HETATM   28  C   UNL     1      -6.848   9.577  63.501  1.00  0.00    -0.103 C  
HETATM   29  C   UNL     1      -7.914   8.834  64.258  1.00  0.00    -0.146 C  
HETATM   30  C   UNL     1      -7.783   8.940  65.825  1.00  0.00    -0.094 C  
HETATM   31  O   UNL     1      -8.844   8.356  63.653  1.00  0.00     0.153 OA 
HETATM   32  C   UNL     1      -8.263   7.689  66.782  1.00  0.00    -0.124 C  
HETATM   33  C   UNL     1      -9.285   6.859  65.901  1.00  0.00     0.004 C  
HETATM   34  C   UNL     1      -7.056   6.625  66.788  1.00  0.00    -0.069 C  
HETATM   35  C   UNL     1      -7.327   5.471  67.783  1.00  0.00    -0.076 C  
BRANCH  17  36
HETATM   36  C   UNL     1      -6.243   9.044  69.551  1.00  0.00    -0.040 C  
HETATM   37  C   UNL     1      -6.471   7.733  69.714  1.00  0.00    -0.034 C  
ENDBRANCH  17  36
ENDBRANCH  14  15
ENDBRANCH  12  14
ENDBRANCH  11  12
ENDBRANCH  10  11
ENDBRANCH   8  10
TORSDOF 6
ENDMDL
MODEL      223
REMARK 921   NORMALIZED FREE ENERGY PREDICTED BY IDOCK:    7.39 KCAL/MOL
REMARK 922        TOTAL FREE ENERGY PREDICTED BY IDOCK:    8.23 KCAL/MOL
REMARK 923 INTER-LIGAND FREE ENERGY PREDICTED BY IDOCK:    8.01 KCAL/MOL
REMARK 924 INTRA-LIGAND FREE ENERGY PREDICTED BY IDOCK:    0.22 KCAL/MOL
REMARK 927      BINDING AFFINITY PREDICTED BY RF-SCORE:    0.00 PKD
ROOT
HETATM    1  C   UNL     1      -9.104   5.728  68.511  1.00  0.00    -0.114 C  
HETATM    2  C   UNL     1     -10.567   5.573  68.047  1.00  0.00    -0.213 C  
HETATM    3  C   UNL     1     -11.242   6.871  68.493  1.00  0.00    -0.068 C  
HETATM    4  C   UNL     1     -10.122   7.667  69.194  1.00  0.00    -0.194 C  
HETATM    5  C   UNL     1      -9.313   8.619  68.250  1.00  0.00    -0.143 C  
HETATM    6  N   UNL     1      -9.330   6.542  69.702  1.00  0.00    -0.143 NA 
HETATM    7  C   UNL     1      -8.157   6.854  70.475  1.00  0.00    -0.115 C  
HETATM    8  C   UNL     1      -8.085   7.999  67.523  1.00  0.00    -0.123 C  
HETATM    9  C   UNL     1      -8.137   6.425  67.499  1.00  0.00    -0.117 C  
ENDROOT
BRANCH   8  10
HETATM   10  S   UNL     1      -6.209   9.008  67.425  1.00  0.00    -0.059 SA 
BRANCH  10  11
HETATM   11  C   UNL     1      -6.081  10.442  68.634  1.00  0.00    -0.043 C  
BRANCH  11  12
HETATM   12  C   UNL     1      -7.132  10.871  69.859  1.00  0.00    -0.045 C  
HETATM   13  O   UNL     1      -7.354   9.982  70.694  1.00  0.00    -0.308 OA 
BRANCH  12  14
HETATM   14  O   UNL     1      -7.800  12.080  70.022  1.00  0.00     1.251 OA 
BRANCH  14  15
HETATM   15  C   UNL     1      -8.858  12.672  68.951  1.00  0.00     0.337 C  
HETATM   16  C   UNL     1      -7.916  13.851  68.374  1.00  0.00    -0.144 C  
HETATM   17  C   UNL     1      -8.302  14.668  67.113  1.00  0.00    -0.236 C  
HETATM   18  C   UNL     1     -12.494  14.115  66.833  1.00  0.00    -0.142 C  
HETATM   19  C   UNL     1      -7.191  15.490  66.412  1.00  0.00     1.157 C  
HETATM   20  C   UNL     1      -9.280  15.754  67.661  1.00  0.00    -0.200 C  
HETATM   21  O   UNL     1      -8.748  17.054  67.905  1.00  0.00    -0.209 OA 
HETATM   22  C   UNL     1     -10.584  15.786  66.905  1.00  0.00    -0.317 C  
HETATM   23  C   UNL     1     -12.134  12.611  66.874  1.00  0.00    -0.213 C  
HETATM   24  C   UNL     1     -11.730  15.103  67.764  1.00  0.00    -0.250 C  
HETATM   25  C   UNL     1     -10.896  17.177  66.295  1.00  0.00     0.048 C  
HETATM   26  H   UNL     1      -9.344  17.714  68.238  1.00  0.00     0.000 HD 
HETATM   27  C   UNL     1     -12.643  16.276  68.243  1.00  0.00     1.823 C  
HETATM   28  C   UNL     1     -13.529  15.742  69.323  1.00  0.00     2.538 C  
HETATM   29  C   UNL     1     -12.642  14.711  69.964  1.00  0.00    -0.230 C  
HETATM   30  C   UNL     1     -11.333  14.391  69.147  1.00  0.00    -0.308 C  
HETATM   31  O   UNL     1     -12.896  14.324  71.080  1.00  0.00    -0.324 OA 
HETATM   32  C   UNL     1     -10.678  12.880  69.192  1.00  0.00    -0.060 C  
HETATM   33  C   UNL     1     -11.232  12.225  70.524  1.00  0.00     1.052 C  
HETATM   34  C   UNL     1     -11.510  11.988  68.141  1.00  0.00    -0.383 C  
HETATM   35  C   UNL     1     -10.885  10.581  67.978  1.00  0.00    -0.312 C  
BRANCH  17  36
HETATM   36  C   UNL     1      -8.795  13.616  66.110  1.00  0.00     0.378 C  
HETATM   37  C   UNL     1      -8.212  13.194  64.979  1.00  0.00     4.435 C  
ENDBRANCH  17  36
ENDBRANCH  14  15
ENDBRANCH  12  14
ENDBRANCH  11  12
ENDBRANCH  10  11
ENDBRANCH   8  10
TORSDOF 6
ENDMDL
MODEL      224
REMARK 921   NORMALIZED FREE ENERGY PREDICTED BY IDOCK:    7.87 KCAL/MOL
REMARK 922        TOTAL FREE ENERGY PREDICTED BY IDOCK:    8.88 KCAL/MOL
REMARK 923 INTER-LIGAND FREE ENERGY PREDICTED BY IDOCK:    5.43 KCAL/MOL
REMARK 924 INTRA-LIGAND FREE ENERGY PREDICTED BY IDOCK:    3.45 KCAL/MOL
REMARK 927      BINDING AFFINITY PREDICTED BY RF-SCORE:    0.00 PKD
ROOT
HETATM    1  C   UNL     1      -9.868   9.674  68.627  1.00  0.00    -0.161 C  
HETATM    2  C   UNL     1     -10.534   8.681  67.653  1.00  0.00    -0.311 C  
HETATM    3  C   UNL     1     -10.256   9.270  66.269  1.00  0.00    -0.273 C  
HETATM    4  C   UNL     1      -9.468  10.566  66.552  1.00  0.00    -0.166 C  
HETATM    5  C   UNL     1      -7.913  10.384  66.591  1.00  0.00    -0.120 C  
HETATM    6  N   UNL     1     -10.048  10.902  67.856  1.00  0.00    -0.173 NA 
HETATM    7  C   UNL     1      -9.591  12.109  68.492  1.00  0.00    -0.133 C  
HETATM    8  C   UNL     1      -7.293   9.994  67.964  1.00  0.00    -0.087 C  
HETATM    9  C   UNL     1      -8.364   9.404  68.958  1.00  0.00    -0.124 C  
ENDROOT
BRANCH   8  10
HETATM   10  S   UNL     1      -5.548  10.955  68.722  1.00  0.00    -0.039 SA 
BRANCH  10  11
HETATM   11  C   UNL     1      -5.342  12.713  68.090  1.00  0.00    -0.073 C  
BRANCH  11  12
HETATM   12  C   UNL     1      -6.446  13.966  68.112  1.00  0.00    -0.125 C  
HETATM   13  O   UNL     1      -6.114  14.968  67.464  1.00  0.00    -0.295 OA 
BRANCH  12  14
HETATM   14  O   UNL     1      -7.658  14.019  68.794  1.00  0.00    -0.123 OA 
BRANCH  14  15
HETATM   15  C   UNL     1      -8.937  14.867  68.283  1.00  0.00    -0.177 C  
HETATM   16  C   UNL     1      -9.365  13.873  67.083  1.00  0.00    -0.244 C  
HETATM   17  C   UNL     1     -10.707  14.033  66.322  1.00  0.00    -0.289 C  
HETATM   18  C   UNL     1     -11.780  18.065  67.065  1.00  0.00     1.995 C  
HETATM   19  C   UNL     1     -11.210  12.836  65.476  1.00  0.00    -0.329 C  
HETATM   20  C   UNL     1     -10.405  15.139  65.264  1.00  0.00    -0.396 C  
HETATM   21  O   UNL     1     -10.112  14.713  63.935  1.00  0.00     0.523 OA 
HETATM   22  C   UNL     1     -11.401  16.268  65.312  1.00  0.00     0.109 C  
HETATM   23  C   UNL     1     -11.611  17.665  68.550  1.00  0.00     1.383 C  
HETATM   24  C   UNL     1     -10.757  17.535  66.016  1.00  0.00    -0.116 C  
HETATM   25  C   UNL     1     -12.115  16.504  63.955  1.00  0.00     1.477 C  
HETATM   26  H   UNL     1      -9.928  15.386  63.292  1.00  0.00     0.000 HD 
HETATM   27  C   UNL     1     -10.512  18.567  64.870  1.00  0.00     1.942 C  
HETATM   28  C   UNL     1      -9.606  19.629  65.409  1.00  0.00     0.642 C  
HETATM   29  C   UNL     1      -8.764  18.848  66.380  1.00  0.00    -0.303 C  
HETATM   30  C   UNL     1      -9.296  17.393  66.668  1.00  0.00    -0.279 C  
HETATM   31  O   UNL     1      -7.705  19.302  66.742  1.00  0.00    -0.239 OA 
HETATM   32  C   UNL     1      -9.066  16.705  68.146  1.00  0.00    -0.213 C  
HETATM   33  C   UNL     1      -7.843  17.486  68.783  1.00  0.00    -0.242 C  
HETATM   34  C   UNL     1     -10.223  17.280  69.106  1.00  0.00    -0.283 C  
HETATM   35  C   UNL     1     -10.206  16.585  70.489  1.00  0.00     0.914 C  
BRANCH  17  36
HETATM   36  C   UNL     1     -11.746  14.280  67.426  1.00  0.00    -0.422 C  
HETATM   37  C   UNL     1     -13.082  14.323  67.328  1.00  0.00     2.183 C  
ENDBRANCH  17  36
ENDBRANCH  14  15
ENDBRANCH  12  14
ENDBRANCH  11  12
ENDBRANCH  10  11
ENDBRANCH   8  10
TORSDOF 6
ENDMDL
MODEL      225
REMARK 921   NORMALIZED FREE ENERGY PREDICTED BY IDOCK:    8.32 KCAL/MOL
REMARK 922        TOTAL FREE ENERGY PREDICTED BY IDOCK:    9.48 KCAL/MOL
REMARK 923 INTER-LIGAND FREE ENERGY PREDICTED BY IDOCK:    7.64 KCAL/MOL
REMARK 924 INTRA-LIGAND FREE ENERGY PREDICTED BY IDOCK:    1.84 KCAL/MOL
REMARK 927      BINDING AFFINITY PREDICTED BY RF-SCORE:    0.00 PKD
ROOT
HETATM    1  C   UNL     1     -11.659  10.672  70.388  1.00  0.00    -0.351 C  
HETATM    2  C   UNL     1     -12.938  10.658  71.252  1.00  0.00    -0.513 C  
HETATM    3  C   UNL     1     -13.467  12.090  71.161  1.00  0.00     0.498 C  
HETATM    4  C   UNL     1     -12.445  12.824  70.268  1.00  0.00    -0.105 C  
HETATM    5  C   UNL     1     -12.780  12.792  68.739  1.00  0.00     1.119 C  
HETATM    6  N   UNL     1     -11.247  12.054  70.618  1.00  0.00     0.954 NA 
HETATM    7  C   UNL     1     -10.007  12.445  70.002  1.00  0.00     2.541 C  
HETATM    8  C   UNL     1     -12.242  11.573  67.934  1.00  0.00     0.424 C  
HETATM    9  C   UNL     1     -11.858  10.364  68.868  1.00  0.00    -0.046 C  
ENDROOT
BRANCH   8  10
HETATM   10  S   UNL     1     -11.290  11.807  66.042  1.00  0.00    -0.200 SA 
BRANCH  10  11
HETATM   11  C   UNL     1     -12.009  13.215  65.025  1.00  0.00    -0.383 C  
BRANCH  11  12
HETATM   12  C   UNL     1     -11.415  14.762  64.820  1.00  0.00    -0.410 C  
HETATM   13  O   UNL     1     -12.203  15.561  64.295  1.00  0.00    -0.504 OA 
BRANCH  12  14
HETATM   14  O   UNL     1     -10.145  15.235  65.137  1.00  0.00    -0.345 OA 
BRANCH  14  15
HETATM   15  C   UNL     1      -9.818  16.113  66.455  1.00  0.00    -0.284 C  
HETATM   16  C   UNL     1      -9.965  17.567  65.765  1.00  0.00    -0.060 C  
HETATM   17  C   UNL     1      -9.984  18.875  66.598  1.00  0.00    -0.416 C  
HETATM   18  C   UNL     1      -8.150  17.738  70.246  1.00  0.00     2.959 C  
HETATM   19  C   UNL     1     -10.511  20.163  65.917  1.00  0.00    -0.427 C  
HETATM   20  C   UNL     1      -8.474  19.176  66.851  1.00  0.00    -0.294 C  
HETATM   21  O   UNL     1      -7.849  20.142  66.010  1.00  0.00    -0.441 OA 
HETATM   22  C   UNL     1      -8.166  19.383  68.311  1.00  0.00    -0.372 C  
HETATM   23  C   UNL     1      -9.231  16.631  70.255  1.00  0.00     1.944 C  
HETATM   24  C   UNL     1      -7.446  18.099  68.904  1.00  0.00    -0.246 C  
HETATM   25  C   UNL     1      -7.508  20.756  68.603  1.00  0.00     0.494 C  
HETATM   26  H   UNL     1      -6.930  20.325  66.163  1.00  0.00     0.000 HD 
HETATM   27  C   UNL     1      -5.959  18.523  69.123  1.00  0.00    -0.242 C  
HETATM   28  C   UNL     1      -5.167  17.275  69.353  1.00  0.00    -0.162 C  
HETATM   29  C   UNL     1      -5.910  16.281  68.504  1.00  0.00    -0.109 C  
HETATM   30  C   UNL     1      -7.298  16.801  67.971  1.00  0.00    -0.167 C  
HETATM   31  O   UNL     1      -5.359  15.258  68.173  1.00  0.00    -0.111 OA 
HETATM   32  C   UNL     1      -8.544  15.748  67.742  1.00  0.00    -0.164 C  
HETATM   33  C   UNL     1      -7.864  14.325  67.590  1.00  0.00    -0.191 C  
HETATM   34  C   UNL     1      -9.223  15.519  69.184  1.00  0.00    -0.246 C  
HETATM   35  C   UNL     1     -10.509  14.665  69.072  1.00  0.00    -0.248 C  
BRANCH  17  36
HETATM   36  C   UNL     1     -10.920  18.565  67.775  1.00  0.00    -0.152 C  
HETATM   37  C   UNL     1     -12.232  18.814  67.895  1.00  0.00     3.898 C  
ENDBRANCH  17  36
ENDBRANCH  14  15
ENDBRANCH  12  14
ENDBRANCH  11  12
ENDBRANCH  10  11
ENDBRANCH   8  10
TORSDOF 6
ENDMDL
MODEL      226
REMARK 921   NORMALIZED FREE ENERGY PREDICTED BY IDOCK:    8.94 KCAL/MOL
REMARK 922        TOTAL FREE ENERGY PREDICTED BY IDOCK:   10.33 KCAL/MOL
REMARK 923 INTER-LIGAND FREE ENERGY PREDICTED BY IDOCK:    8.81 KCAL/MOL
REMARK 924 INTRA-LIGAND FREE ENERGY PREDICTED BY IDOCK:    1.52 KCAL/MOL
REMARK 927      BINDING AFFINITY PREDICTED BY RF-SCORE:    0.00 PKD
ROOT
HETATM    1  C   UNL     1      -7.655   8.582  68.079  1.00  0.00    -0.098 C  
HETATM    2  C   UNL     1      -7.351   8.012  69.479  1.00  0.00    -0.086 C  
HETATM    3  C   UNL     1      -7.536   9.205  70.418  1.00  0.00    -0.118 C  
HETATM    4  C   UNL     1      -7.916  10.375  69.487  1.00  0.00    -0.144 C  
HETATM    5  C   UNL     1      -9.454  10.545  69.254  1.00  0.00    -0.191 C  
HETATM    6  N   UNL     1      -7.189   9.951  68.286  1.00  0.00    -0.077 NA 
HETATM    7  C   UNL     1      -7.254  10.812  67.135  1.00  0.00    -0.100 C  
HETATM    8  C   UNL     1     -10.075   9.730  68.083  1.00  0.00    -0.165 C  
HETATM    9  C   UNL     1      -9.154   8.534  67.632  1.00  0.00    -0.144 C  
ENDROOT
BRANCH   8  10
HETATM   10  S   UNL     1     -11.438  10.609  66.699  1.00  0.00     0.881 SA 
BRANCH  10  11
HETATM   11  C   UNL     1     -11.001  12.385  66.264  1.00  0.00    -0.286 C  
BRANCH  11  12
HETATM   12  C   UNL     1      -9.667  12.959  65.439  1.00  0.00    -0.027 C  
HETATM   13  O   UNL     1      -9.476  12.443  64.329  1.00  0.00     0.092 OA 
BRANCH  12  14
HETATM   14  O   UNL     1      -8.745  13.908  65.868  1.00  0.00     0.534 OA 
BRANCH  14  15
HETATM   15  C   UNL     1      -9.153  15.267  66.645  1.00  0.00    -0.282 C  
HETATM   16  C   UNL     1      -9.801  16.031  65.378  1.00  0.00    -0.113 C  
HETATM   17  C   UNL     1     -10.602  17.351  65.535  1.00  0.00    -0.115 C  
HETATM   18  C   UNL     1      -9.284  18.856  69.272  1.00  0.00     0.007 C  
HETATM   19  C   UNL     1     -11.503  17.799  64.358  1.00  0.00     3.247 C  
HETATM   20  C   UNL     1      -9.496  18.450  65.599  1.00  0.00     0.638 C  
HETATM   21  O   UNL     1      -9.223  19.175  64.402  1.00  0.00     4.386 OA 
HETATM   22  C   UNL     1      -9.641  19.341  66.805  1.00  0.00    -0.398 C  
HETATM   23  C   UNL     1      -9.704  17.462  69.796  1.00  0.00     0.634 C  
HETATM   24  C   UNL     1      -8.555  18.960  67.898  1.00  0.00    -0.323 C  
HETATM   25  C   UNL     1      -9.771  20.842  66.437  1.00  0.00     0.324 C  
HETATM   26  H   UNL     1      -8.549  19.843  64.441  1.00  0.00     0.000 HD 
HETATM   27  C   UNL     1      -7.519  20.128  67.877  1.00  0.00    -0.316 C  
HETATM   28  C   UNL     1      -6.310  19.668  68.629  1.00  0.00    -0.304 C  
HETATM   29  C   UNL     1      -6.308  18.194  68.331  1.00  0.00    -0.197 C  
HETATM   30  C   UNL     1      -7.628  17.674  67.646  1.00  0.00    -0.211 C  
HETATM   31  O   UNL     1      -5.290  17.561  68.485  1.00  0.00    -0.147 OA 
HETATM   32  C   UNL     1      -8.165  16.144  67.937  1.00  0.00    -0.159 C  
HETATM   33  C   UNL     1      -6.890  15.342  68.428  1.00  0.00    -0.115 C  
HETATM   34  C   UNL     1      -8.953  16.193  69.339  1.00  0.00    -0.128 C  
HETATM   35  C   UNL     1      -9.641  14.841  69.646  1.00  0.00     0.143 C  
BRANCH  17  36
HETATM   36  C   UNL     1     -11.517  17.102  66.743  1.00  0.00     1.069 C  
HETATM   37  C   UNL     1     -11.614  17.801  67.883  1.00  0.00     1.102 C  
ENDBRANCH  17  36
ENDBRANCH  14  15
ENDBRANCH  12  14
ENDBRANCH  11  12
ENDBRANCH  10  11
ENDBRANCH   8  10
TORSDOF 6
ENDMDL
MODEL      227
REMARK 921   NORMALIZED FREE ENERGY PREDICTED BY IDOCK:    9.01 KCAL/MOL
REMARK 922        TOTAL FREE ENERGY PREDICTED BY IDOCK:   10.42 KCAL/MOL
REMARK 923 INTER-LIGAND FREE ENERGY PREDICTED BY IDOCK:    7.90 KCAL/MOL
REMARK 924 INTRA-LIGAND FREE ENERGY PREDICTED BY IDOCK:    2.52 KCAL/MOL
REMARK 927      BINDING AFFINITY PREDICTED BY RF-SCORE:    0.00 PKD
ROOT
HETATM    1  C   UNL     1     -11.232   7.905  72.298  1.00  0.00    -0.331 C  
HETATM    2  C   UNL     1     -11.640   6.533  71.723  1.00  0.00    -0.359 C  
HETATM    3  C   UNL     1     -11.395   6.668  70.220  1.00  0.00    -0.431 C  
HETATM    4  C   UNL     1     -10.882   8.112  70.040  1.00  0.00    -0.233 C  
HETATM    5  C   UNL     1      -9.326   8.263  70.127  1.00  0.00    -0.159 C  
HETATM    6  N   UNL     1     -11.592   8.743  71.157  1.00  0.00    -0.279 NA 
HETATM    7  C   UNL     1     -11.409  10.158  71.342  1.00  0.00    -0.061 C  
HETATM    8  C   UNL     1      -8.728   8.485  71.547  1.00  0.00    -0.189 C  
HETATM    9  C   UNL     1      -9.726   8.062  72.689  1.00  0.00    -0.332 C  
ENDROOT
BRANCH   8  10
HETATM   10  S   UNL     1      -7.242   9.967  71.920  1.00  0.00     2.007 SA 
BRANCH  10  11
HETATM   11  C   UNL     1      -6.568  10.747  70.348  1.00  0.00    -0.021 C  
BRANCH  11  12
HETATM   12  C   UNL     1      -7.237  11.959  69.415  1.00  0.00     0.116 C  
HETATM   13  O   UNL     1      -7.116  11.806  68.192  1.00  0.00    -0.071 OA 
BRANCH  12  14
HETATM   14  O   UNL     1      -7.873  13.117  69.853  1.00  0.00     1.199 OA 
BRANCH  14  15
HETATM   15  C   UNL     1      -8.501  14.225  68.857  1.00  0.00    -0.031 C  
HETATM   16  C   UNL     1      -9.707  14.697  69.822  1.00  0.00     0.311 C  
HETATM   17  C   UNL     1     -10.573  15.945  69.507  1.00  0.00    -0.282 C  
HETATM   18  C   UNL     1     -10.009  16.501  65.344  1.00  0.00     0.001 C  
HETATM   19  C   UNL     1     -11.428  16.545  70.652  1.00  0.00    -0.027 C  
HETATM   20  C   UNL     1     -11.630  15.416  68.489  1.00  0.00    -0.359 C  
HETATM   21  O   UNL     1     -12.922  15.088  68.996  1.00  0.00    -0.072 OA 
HETATM   22  C   UNL     1     -11.686  16.247  67.234  1.00  0.00     0.634 C  
HETATM   23  C   UNL     1      -8.507  16.498  65.713  1.00  0.00     0.247 C  
HETATM   24  C   UNL     1     -10.964  15.486  66.043  1.00  0.00    -0.251 C  
HETATM   25  C   UNL     1     -13.099  16.819  66.948  1.00  0.00     6.603 C  
HETATM   26  H   UNL     1     -13.565  14.765  68.376  1.00  0.00     0.000 HD 
HETATM   27  C   UNL     1     -12.111  15.017  65.094  1.00  0.00    -0.073 C  
HETATM   28  C   UNL     1     -11.529  14.016  64.148  1.00  0.00    -0.230 C  
HETATM   29  C   UNL     1     -10.478  13.363  65.003  1.00  0.00    -0.365 C  
HETATM   30  C   UNL     1     -10.198  14.111  66.361  1.00  0.00    -0.292 C  
HETATM   31  O   UNL     1     -10.046  12.281  64.685  1.00  0.00    -0.282 OA 
HETATM   32  C   UNL     1      -8.690  14.088  67.024  1.00  0.00    -0.220 C  
HETATM   33  C   UNL     1      -7.980  12.819  66.396  1.00  0.00     0.700 C  
HETATM   34  C   UNL     1      -7.837  15.221  66.264  1.00  0.00     0.870 C  
HETATM   35  C   UNL     1      -6.441  15.402  66.909  1.00  0.00     0.623 C  
BRANCH  17  36
HETATM   36  C   UNL     1      -9.559  17.018  69.084  1.00  0.00    -0.135 C  
HETATM   37  C   UNL     1      -9.690  17.980  68.160  1.00  0.00    -0.323 C  
ENDBRANCH  17  36
ENDBRANCH  14  15
ENDBRANCH  12  14
ENDBRANCH  11  12
ENDBRANCH  10  11
ENDBRANCH   8  10
TORSDOF 6
ENDMDL
MODEL      228
REMARK 921   NORMALIZED FREE ENERGY PREDICTED BY IDOCK:   10.20 KCAL/MOL
REMARK 922        TOTAL FREE ENERGY PREDICTED BY IDOCK:   12.03 KCAL/MOL
REMARK 923 INTER-LIGAND FREE ENERGY PREDICTED BY IDOCK:   11.93 KCAL/MOL
REMARK 924 INTRA-LIGAND FREE ENERGY PREDICTED BY IDOCK:    0.10 KCAL/MOL
REMARK 927      BINDING AFFINITY PREDICTED BY RF-SCORE:    0.00 PKD
ROOT
HETATM    1  C   UNL     1      -9.177  16.668  69.909  1.00  0.00     0.913 C  
HETATM    2  C   UNL     1      -8.326  16.058  71.042  1.00  0.00     4.065 C  
HETATM    3  C   UNL     1      -9.355  15.503  72.027  1.00  0.00     5.454 C  
HETATM    4  C   UNL     1     -10.720  15.850  71.397  1.00  0.00     0.515 C  
HETATM    5  C   UNL     1     -11.296  14.747  70.447  1.00  0.00    -0.265 C  
HETATM    6  N   UNL     1     -10.337  17.080  70.695  1.00  0.00     1.056 NA 
HETATM    7  C   UNL     1     -11.366  17.775  69.968  1.00  0.00     2.519 C  
HETATM    8  C   UNL     1     -10.861  14.817  68.955  1.00  0.00    -0.254 C  
HETATM    9  C   UNL     1      -9.570  15.695  68.749  1.00  0.00    -0.215 C  
ENDROOT
BRANCH   8  10
HETATM   10  S   UNL     1     -12.262  14.589  67.364  1.00  0.00     0.049 SA 
BRANCH  10  11
HETATM   11  C   UNL     1     -12.390  12.819  66.744  1.00  0.00     0.157 C  
BRANCH  11  12
HETATM   12  C   UNL     1     -11.878  11.414  67.487  1.00  0.00    -0.022 C  
HETATM   13  O   UNL     1     -12.299  11.248  68.641  1.00  0.00    -0.534 OA 
BRANCH  12  14
HETATM   14  O   UNL     1     -11.020  10.445  66.976  1.00  0.00    -0.244 OA 
BRANCH  14  15
HETATM   15  C   UNL     1      -9.747   9.859  67.785  1.00  0.00    -0.150 C  
HETATM   16  C   UNL     1      -9.558   8.515  66.908  1.00  0.00    -0.257 C  
HETATM   17  C   UNL     1      -8.313   7.603  67.059  1.00  0.00    -0.124 C  
HETATM   18  C   UNL     1      -6.818   8.614  70.893  1.00  0.00    -0.061 C  
HETATM   19  C   UNL     1      -8.023   6.577  65.935  1.00  0.00    -0.115 C  
HETATM   20  C   UNL     1      -8.650   6.716  68.297  1.00  0.00    -0.119 C  
HETATM   21  O   UNL     1      -9.142   5.401  68.048  1.00  0.00    -0.108 OA 
HETATM   22  C   UNL     1      -7.563   6.749  69.340  1.00  0.00    -0.096 C  
HETATM   23  C   UNL     1      -6.834  10.058  70.339  1.00  0.00    -0.140 C  
HETATM   24  C   UNL     1      -8.006   7.661  70.561  1.00  0.00    -0.100 C  
HETATM   25  C   UNL     1      -7.008   5.341  69.680  1.00  0.00    -0.058 C  
HETATM   26  H   UNL     1      -9.347   4.862  68.802  1.00  0.00     0.000 HD 
HETATM   27  C   UNL     1      -8.304   6.672  71.732  1.00  0.00    -0.111 C  
HETATM   28  C   UNL     1      -9.042   7.435  72.786  1.00  0.00    -0.184 C  
HETATM   29  C   UNL     1      -9.819   8.422  71.960  1.00  0.00    -0.284 C  
HETATM   30  C   UNL     1      -9.380   8.483  70.448  1.00  0.00    -0.179 C  
HETATM   31  O   UNL     1     -10.782   8.968  72.443  1.00  0.00    -0.180 OA 
HETATM   32  C   UNL     1      -9.481   9.899  69.613  1.00  0.00    -0.252 C  
HETATM   33  C   UNL     1     -10.545  10.771  70.399  1.00  0.00     0.343 C  
HETATM   34  C   UNL     1      -8.169  10.751  69.991  1.00  0.00     0.689 C  
HETATM   35  C   UNL     1      -8.072  12.043  69.145  1.00  0.00     0.338 C  
BRANCH  17  36
HETATM   36  C   UNL     1      -7.127   8.578  67.104  1.00  0.00    -0.076 C  
HETATM   37  C   UNL     1      -5.820   8.307  67.229  1.00  0.00    -0.043 C  
ENDBRANCH  17  36
ENDBRANCH  14  15
ENDBRANCH  12  14
ENDBRANCH  11  12
ENDBRANCH  10  11
ENDBRANCH   8  10
TORSDOF 6
ENDMDL
MODEL      229
REMARK 921   NORMALIZED FREE ENERGY PREDICTED BY IDOCK:   10.31 KCAL/MOL
REMARK 922        TOTAL FREE ENERGY PREDICTED BY IDOCK:   12.17 KCAL/MOL
REMARK 923 INTER-LIGAND FREE ENERGY PREDICTED BY IDOCK:   13.08 KCAL/MOL
REMARK 924 INTRA-LIGAND FREE ENERGY PREDICTED BY IDOCK:   -0.91 KCAL/MOL
REMARK 927      BINDING AFFINITY PREDICTED BY RF-SCORE:    0.00 PKD
ROOT
HETATM    1  C   UNL     1     -14.066   9.642  70.723  1.00  0.00     0.512 C  
HETATM    2  C   UNL     1     -14.042   8.127  71.017  1.00  0.00    -0.052 C  
HETATM    3  C   UNL     1     -12.559   7.760  70.974  1.00  0.00    -0.140 C  
HETATM    4  C   UNL     1     -11.842   9.086  70.641  1.00  0.00    -0.154 C  
HETATM    5  C   UNL     1     -11.416   9.925  71.893  1.00  0.00     0.230 C  
HETATM    6  N   UNL     1     -12.900   9.720  69.848  1.00  0.00     0.572 NA 
HETATM    7  C   UNL     1     -12.623  11.019  69.295  1.00  0.00     0.273 C  
HETATM    8  C   UNL     1     -12.473  10.918  72.457  1.00  0.00     1.675 C  
HETATM    9  C   UNL     1     -13.932  10.581  71.966  1.00  0.00     0.276 C  
ENDROOT
BRANCH   8  10
HETATM   10  S   UNL     1     -11.962  12.916  72.996  1.00  0.00     5.471 SA 
BRANCH  10  11
HETATM   11  C   UNL     1     -13.084  14.202  72.208  1.00  0.00    -0.423 C  
BRANCH  11  12
HETATM   12  C   UNL     1     -13.221  14.619  70.597  1.00  0.00    -0.209 C  
HETATM   13  O   UNL     1     -14.063  13.973  69.958  1.00  0.00     1.922 OA 
BRANCH  12  14
HETATM   14  O   UNL     1     -12.484  15.571  69.899  1.00  0.00    -0.336 OA 
BRANCH  14  15
HETATM   15  C   UNL     1     -11.463  15.209  68.697  1.00  0.00    -0.325 C  
HETATM   16  C   UNL     1     -12.540  15.283  67.495  1.00  0.00     1.302 C  
HETATM   17  C   UNL     1     -12.112  15.244  66.004  1.00  0.00     0.441 C  
HETATM   18  C   UNL     1      -8.260  13.483  66.137  1.00  0.00     1.361 C  
HETATM   19  C   UNL     1     -13.140  15.706  64.941  1.00  0.00     1.551 C  
HETATM   20  C   UNL     1     -11.929  13.723  65.711  1.00  0.00    -0.399 C  
HETATM   21  O   UNL     1     -12.998  13.048  65.053  1.00  0.00    -0.723 OA 
HETATM   22  C   UNL     1     -10.582  13.412  65.112  1.00  0.00    -0.353 C  
HETATM   23  C   UNL     1      -7.957  14.615  67.148  1.00  0.00    -0.184 C  
HETATM   24  C   UNL     1      -9.636  12.756  66.204  1.00  0.00    -0.214 C  
HETATM   25  C   UNL     1     -10.680  12.691  63.742  1.00  0.00    -0.454 C  
HETATM   26  H   UNL     1     -12.886  12.122  64.875  1.00  0.00     0.000 HD 
HETATM   27  C   UNL     1      -9.520  11.252  65.802  1.00  0.00    -0.252 C  
HETATM   28  C   UNL     1      -8.931  10.521  66.967  1.00  0.00    -0.149 C  
HETATM   29  C   UNL     1      -9.476  11.306  68.128  1.00  0.00    -0.184 C  
HETATM   30  C   UNL     1     -10.159  12.666  67.720  1.00  0.00    -0.220 C  
HETATM   31  O   UNL     1      -9.493  10.803  69.226  1.00  0.00    -0.176 OA 
HETATM   32  C   UNL     1     -10.102  13.959  68.738  1.00  0.00    -0.161 C  
HETATM   33  C   UNL     1      -9.832  13.347  70.174  1.00  0.00     2.731 C  
HETATM   34  C   UNL     1      -8.668  14.655  68.518  1.00  0.00    -0.176 C  
HETATM   35  C   UNL     1      -8.555  15.980  69.310  1.00  0.00    -0.224 C  
BRANCH  17  36
HETATM   36  C   UNL     1     -10.913  16.199  65.925  1.00  0.00    -0.072 C  
HETATM   37  C   UNL     1     -10.465  16.901  64.875  1.00  0.00     0.344 C  
ENDBRANCH  17  36
ENDBRANCH  14  15
ENDBRANCH  12  14
ENDBRANCH  11  12
ENDBRANCH  10  11
ENDBRANCH   8  10
TORSDOF 6
ENDMDL
MODEL      230
REMARK 921   NORMALIZED FREE ENERGY PREDICTED BY IDOCK:   10.39 KCAL/MOL
REMARK 922        TOTAL FREE ENERGY PREDICTED BY IDOCK:   12.29 KCAL/MOL
REMARK 923 INTER-LIGAND FREE ENERGY PREDICTED BY IDOCK:   13.51 KCAL/MOL
REMARK 924 INTRA-LIGAND FREE ENERGY PREDICTED BY IDOCK:   -1.22 KCAL/MOL
REMARK 927      BINDING AFFINITY PREDICTED BY RF-SCORE:    0.00 PKD
ROOT
HETATM    1  C   UNL     1      -7.094  13.343  71.643  1.00  0.00     4.633 C  
HETATM    2  C   UNL     1      -6.874  14.870  71.643  1.00  0.00     1.577 C  
HETATM    3  C   UNL     1      -5.576  15.063  70.860  1.00  0.00    -0.092 C  
HETATM    4  C   UNL     1      -5.136  13.632  70.483  1.00  0.00    -0.105 C  
HETATM    5  C   UNL     1      -5.685  13.127  69.106  1.00  0.00    -0.076 C  
HETATM    6  N   UNL     1      -5.698  12.915  71.632  1.00  0.00    -0.319 NA 
HETATM    7  C   UNL     1      -5.482  11.494  71.694  1.00  0.00     0.289 C  
HETATM    8  C   UNL     1      -7.078  12.434  69.125  1.00  0.00     0.007 C  
HETATM    9  C   UNL     1      -7.895  12.768  70.429  1.00  0.00     3.923 C  
ENDROOT
BRANCH   8  10
HETATM   10  S   UNL     1      -7.443  10.617  68.071  1.00  0.00    -0.091 SA 
BRANCH  10  11
HETATM   11  C   UNL     1      -6.822  10.657  66.297  1.00  0.00    -0.133 C  
BRANCH  11  12
HETATM   12  C   UNL     1      -7.694  10.889  64.892  1.00  0.00     0.304 C  
HETATM   13  O   UNL     1      -7.013  10.958  63.859  1.00  0.00     0.303 OA 
BRANCH  12  14
HETATM   14  O   UNL     1      -9.070  11.045  64.761  1.00  0.00    -0.196 OA 
BRANCH  14  15
HETATM   15  C   UNL     1      -9.906  12.246  65.449  1.00  0.00    -0.192 C  
HETATM   16  C   UNL     1      -8.689  13.305  65.541  1.00  0.00     1.552 C  
HETATM   17  C   UNL     1      -8.919  14.790  65.927  1.00  0.00     0.246 C  
HETATM   18  C   UNL     1     -12.653  14.715  67.930  1.00  0.00     0.611 C  
HETATM   19  C   UNL     1      -7.790  15.805  65.616  1.00  0.00     2.504 C  
HETATM   20  C   UNL     1      -8.979  14.763  67.486  1.00  0.00    -0.187 C  
HETATM   21  O   UNL     1      -7.798  15.132  68.194  1.00  0.00    -0.118 OA 
HETATM   22  C   UNL     1     -10.218  15.430  68.024  1.00  0.00    -0.235 C  
HETATM   23  C   UNL     1     -13.146  14.018  66.640  1.00  0.00     1.150 C  
HETATM   24  C   UNL     1     -11.258  14.335  68.512  1.00  0.00    -0.289 C  
HETATM   25  C   UNL     1      -9.905  16.588  69.007  1.00  0.00    -0.266 C  
HETATM   26  H   UNL     1      -7.834  15.116  69.143  1.00  0.00     0.000 HD 
HETATM   27  C   UNL     1     -11.239  14.409  70.071  1.00  0.00    -0.193 C  
HETATM   28  C   UNL     1     -11.931  13.188  70.587  1.00  0.00    -0.246 C  
HETATM   29  C   UNL     1     -11.584  12.172  69.533  1.00  0.00    -0.315 C  
HETATM   30  C   UNL     1     -10.930  12.787  68.238  1.00  0.00    -0.278 C  
HETATM   31  O   UNL     1     -11.680  10.996  69.791  1.00  0.00    -0.273 OA 
HETATM   32  C   UNL     1     -11.190  12.089  66.769  1.00  0.00    -0.376 C  
HETATM   33  C   UNL     1     -11.608  10.594  67.086  1.00  0.00     0.402 C  
HETATM   34  C   UNL     1     -12.620  12.618  66.255  1.00  0.00     0.502 C  
HETATM   35  C   UNL     1     -12.907  12.151  64.807  1.00  0.00     0.099 C  
BRANCH  17  36
HETATM   36  C   UNL     1     -10.149  15.212  65.111  1.00  0.00    -0.331 C  
HETATM   37  C   UNL     1     -10.706  16.426  64.996  1.00  0.00    -0.279 C  
ENDBRANCH  17  36
ENDBRANCH  14  15
ENDBRANCH  12  14
ENDBRANCH  11  12
ENDBRANCH  10  11
ENDBRANCH   8  10
TORSDOF 6
ENDMDL
MODEL      231
REMARK 921   NORMALIZED FREE ENERGY PREDICTED BY IDOCK:   12.93 KCAL/MOL
REMARK 922        TOTAL FREE ENERGY PREDICTED BY IDOCK:   15.71 KCAL/MOL
REMARK 923 INTER-LIGAND FREE ENERGY PREDICTED BY IDOCK:   12.77 KCAL/MOL
REMARK 924 INTRA-LIGAND FREE ENERGY PREDICTED BY IDOCK:    2.93 KCAL/MOL
REMARK 927      BINDING AFFINITY PREDICTED BY RF-SCORE:    0.00 PKD
ROOT
HETATM    1  C   UNL     1      -9.361   2.093  72.503  1.00  0.00    -0.082 C  
HETATM    2  C   UNL     1      -8.907   1.713  73.927  1.00  0.00    -0.058 C  
HETATM    3  C   UNL     1      -7.568   2.431  74.099  1.00  0.00    -0.042 C  
HETATM    4  C   UNL     1      -7.343   3.155  72.756  1.00  0.00    -0.049 C  
HETATM    5  C   UNL     1      -7.916   4.611  72.700  1.00  0.00    -0.092 C  
HETATM    6  N   UNL     1      -8.048   2.218  71.874  1.00  0.00    -0.052 NA 
HETATM    7  C   UNL     1      -8.058   2.515  70.466  1.00  0.00    -0.041 C  
HETATM    8  C   UNL     1      -9.399   4.759  72.254  1.00  0.00    -0.127 C  
HETATM    9  C   UNL     1     -10.199   3.408  72.380  1.00  0.00    -0.199 C  
ENDROOT
BRANCH   8  10
HETATM   10  S   UNL     1     -10.005   6.231  70.836  1.00  0.00    -0.189 SA 
BRANCH  10  11
HETATM   11  C   UNL     1     -11.491   5.701  69.814  1.00  0.00     0.641 C  
BRANCH  11  12
HETATM   12  C   UNL     1     -11.833   6.042  68.215  1.00  0.00     2.027 C  
HETATM   13  O   UNL     1     -13.014   5.869  67.884  1.00  0.00     8.422 OA 
BRANCH  12  14
HETATM   14  O   UNL     1     -10.947   6.458  67.226  1.00  0.00    -0.342 OA 
BRANCH  14  15
HETATM   15  C   UNL     1     -10.040   7.792  67.339  1.00  0.00    -0.222 C  
HETATM   16  C   UNL     1     -11.009   8.763  66.487  1.00  0.00     0.728 C  
HETATM   17  C   UNL     1     -10.785  10.297  66.420  1.00  0.00    -0.103 C  
HETATM   18  C   UNL     1      -6.708  10.737  67.490  1.00  0.00    -0.073 C  
HETATM   19  C   UNL     1     -11.955  11.182  65.921  1.00  0.00     1.383 C  
HETATM   20  C   UNL     1      -9.693  10.465  65.319  1.00  0.00    -0.278 C  
HETATM   21  O   UNL     1     -10.130  10.831  64.012  1.00  0.00    -0.314 OA 
HETATM   22  C   UNL     1      -8.518  11.280  65.794  1.00  0.00    -0.018 C  
HETATM   23  C   UNL     1      -7.118   9.925  68.742  1.00  0.00    -0.067 C  
HETATM   24  C   UNL     1      -7.284  10.331  66.101  1.00  0.00    -0.121 C  
HETATM   25  C   UNL     1      -8.246  12.524  64.909  1.00  0.00     3.118 C  
HETATM   26  H   UNL     1      -9.466  10.933  63.342  1.00  0.00     0.000 HD 
HETATM   27  C   UNL     1      -6.263  10.593  64.949  1.00  0.00     0.026 C  
HETATM   28  C   UNL     1      -5.246   9.497  64.992  1.00  0.00    -0.045 C  
HETATM   29  C   UNL     1      -6.068   8.338  65.487  1.00  0.00    -0.045 C  
HETATM   30  C   UNL     1      -7.496   8.742  66.015  1.00  0.00    -0.089 C  
HETATM   31  O   UNL     1      -5.665   7.213  65.316  1.00  0.00    -0.034 OA 
HETATM   32  C   UNL     1      -8.197   7.890  67.239  1.00  0.00    -0.122 C  
HETATM   33  C   UNL     1      -7.476   6.480  67.231  1.00  0.00    -0.088 C  
HETATM   34  C   UNL     1      -7.569   8.455  68.609  1.00  0.00    -0.102 C  
HETATM   35  C   UNL     1      -8.267   7.837  69.845  1.00  0.00    -0.125 C  
BRANCH  17  36
HETATM   36  C   UNL     1     -10.492  10.704  67.871  1.00  0.00    -0.243 C  
HETATM   37  C   UNL     1     -10.177   9.926  68.916  1.00  0.00    -0.209 C  
ENDBRANCH  17  36
ENDBRANCH  14  15
ENDBRANCH  12  14
ENDBRANCH  11  12
ENDBRANCH  10  11
ENDBRANCH   8  10
TORSDOF 6
ENDMDL
MODEL      232
REMARK 921   NORMALIZED FREE ENERGY PREDICTED BY IDOCK:   12.98 KCAL/MOL
REMARK 922        TOTAL FREE ENERGY PREDICTED BY IDOCK:   15.78 KCAL/MOL
REMARK 923 INTER-LIGAND FREE ENERGY PREDICTED BY IDOCK:   13.44 KCAL/MOL
REMARK 924 INTRA-LIGAND FREE ENERGY PREDICTED BY IDOCK:    2.34 KCAL/MOL
REMARK 927      BINDING AFFINITY PREDICTED BY RF-SCORE:    0.00 PKD
ROOT
HETATM    1  C   UNL     1     -10.999  11.240  67.052  1.00  0.00    -0.294 C  
HETATM    2  C   UNL     1     -12.091  12.304  66.819  1.00  0.00    -0.043 C  
HETATM    3  C   UNL     1     -11.998  12.616  65.325  1.00  0.00    -0.487 C  
HETATM    4  C   UNL     1     -10.849  11.722  64.814  1.00  0.00    -0.302 C  
HETATM    5  C   UNL     1     -11.301  10.310  64.311  1.00  0.00     2.843 C  
HETATM    6  N   UNL     1     -10.042  11.673  66.038  1.00  0.00    -0.216 NA 
HETATM    7  C   UNL     1      -8.810  10.932  65.988  1.00  0.00    -0.188 C  
HETATM    8  C   UNL     1     -11.380   9.182  65.380  1.00  0.00     5.442 C  
HETATM    9  C   UNL     1     -11.440   9.753  66.847  1.00  0.00     1.267 C  
ENDROOT
BRANCH   8  10
HETATM   10  S   UNL     1     -10.586   7.237  65.022  1.00  0.00     6.536 SA 
BRANCH  10  11
HETATM   11  C   UNL     1      -8.709   7.178  65.116  1.00  0.00     0.160 C  
BRANCH  11  12
HETATM   12  C   UNL     1      -7.719   5.862  65.389  1.00  0.00    -0.093 C  
HETATM   13  O   UNL     1      -7.356   5.259  64.369  1.00  0.00    -0.057 OA 
BRANCH  12  14
HETATM   14  O   UNL     1      -7.294   5.356  66.613  1.00  0.00    -0.083 OA 
BRANCH  14  15
HETATM   15  C   UNL     1      -7.519   6.115  68.024  1.00  0.00    -0.089 C  
HETATM   16  C   UNL     1      -9.134   6.074  68.014  1.00  0.00    -0.117 C  
HETATM   17  C   UNL     1      -9.974   6.467  69.258  1.00  0.00    -0.172 C  
HETATM   18  C   UNL     1      -7.299   8.840  71.534  1.00  0.00    -0.109 C  
HETATM   19  C   UNL     1     -11.461   6.035  69.297  1.00  0.00    -0.039 C  
HETATM   20  C   UNL     1     -10.039   8.025  69.183  1.00  0.00    -0.201 C  
HETATM   21  O   UNL     1     -11.223   8.606  68.641  1.00  0.00    -0.367 OA 
HETATM   22  C   UNL     1      -9.597   8.680  70.465  1.00  0.00    -0.210 C  
HETATM   23  C   UNL     1      -6.365   7.613  71.411  1.00  0.00    -0.035 C  
HETATM   24  C   UNL     1      -8.138   9.280  70.296  1.00  0.00    -0.165 C  
HETATM   25  C   UNL     1     -10.676   9.616  71.070  1.00  0.00    -0.393 C  
HETATM   26  H   UNL     1     -11.263   9.554  68.595  1.00  0.00     0.000 HD 
HETATM   27  C   UNL     1      -8.330  10.829  70.245  1.00  0.00     1.355 C  
HETATM   28  C   UNL     1      -7.049  11.423  69.751  1.00  0.00     0.103 C  
HETATM   29  C   UNL     1      -6.552  10.349  68.824  1.00  0.00    -0.052 C  
HETATM   30  C   UNL     1      -7.340   8.988  68.934  1.00  0.00    -0.074 C  
HETATM   31  O   UNL     1      -5.725  10.625  67.988  1.00  0.00    -0.043 OA 
HETATM   32  C   UNL     1      -6.565   7.559  68.669  1.00  0.00    -0.053 C  
HETATM   33  C   UNL     1      -5.292   7.930  67.801  1.00  0.00    -0.032 C  
HETATM   34  C   UNL     1      -5.803   7.189  70.037  1.00  0.00    -0.024 C  
HETATM   35  C   UNL     1      -5.162   5.782  69.963  1.00  0.00    -0.005 C  
BRANCH  17  36
HETATM   36  C   UNL     1      -9.266   5.777  70.432  1.00  0.00    -0.175 C  
HETATM   37  C   UNL     1      -9.030   6.248  71.665  1.00  0.00    -0.144 C  
ENDBRANCH  17  36
ENDBRANCH  14  15
ENDBRANCH  12  14
ENDBRANCH  11  12
ENDBRANCH  10  11
ENDBRANCH   8  10
TORSDOF 6
ENDMDL
MODEL      233
REMARK 921   NORMALIZED FREE ENERGY PREDICTED BY IDOCK:   15.28 KCAL/MOL
REMARK 922        TOTAL FREE ENERGY PREDICTED BY IDOCK:   18.88 KCAL/MOL
REMARK 923 INTER-LIGAND FREE ENERGY PREDICTED BY IDOCK:   13.81 KCAL/MOL
REMARK 924 INTRA-LIGAND FREE ENERGY PREDICTED BY IDOCK:    5.07 KCAL/MOL
REMARK 927      BINDING AFFINITY PREDICTED BY RF-SCORE:    0.00 PKD
ROOT
HETATM    1  C   UNL     1      -9.409  10.722  62.706  1.00  0.00    -0.330 C  
HETATM    2  C   UNL     1     -10.814  10.085  62.751  1.00  0.00     2.867 C  
HETATM    3  C   UNL     1     -10.684   8.961  63.779  1.00  0.00     7.855 C  
HETATM    4  C   UNL     1      -9.211   9.023  64.235  1.00  0.00     0.333 C  
HETATM    5  C   UNL     1      -8.955   9.946  65.474  1.00  0.00    -0.209 C  
HETATM    6  N   UNL     1      -8.613   9.532  62.996  1.00  0.00    -0.202 NA 
HETATM    7  C   UNL     1      -7.187   9.718  62.978  1.00  0.00    -0.119 C  
HETATM    8  C   UNL     1      -8.673  11.448  65.176  1.00  0.00     0.188 C  
HETATM    9  C   UNL     1      -9.147  11.870  63.735  1.00  0.00     0.381 C  
ENDROOT
BRANCH   8  10
HETATM   10  S   UNL     1      -7.090  12.505  66.134  1.00  0.00     2.363 SA 
BRANCH  10  11
HETATM   11  C   UNL     1      -5.635  11.403  66.585  1.00  0.00    -0.138 C  
BRANCH  11  12
HETATM   12  C   UNL     1      -5.479   9.752  66.394  1.00  0.00    -0.045 C  
HETATM   13  O   UNL     1      -5.554   9.350  65.224  1.00  0.00    -0.048 OA 
BRANCH  12  14
HETATM   14  O   UNL     1      -5.314   8.792  67.388  1.00  0.00    -0.033 OA 
BRANCH  14  15
HETATM   15  C   UNL     1      -6.446   8.435  68.486  1.00  0.00    -0.055 C  
HETATM   16  C   UNL     1      -6.138   6.852  68.580  1.00  0.00    -0.026 C  
HETATM   17  C   UNL     1      -6.774   5.954  69.674  1.00  0.00    -0.055 C  
HETATM   18  C   UNL     1     -10.170   8.169  70.906  1.00  0.00    -0.216 C  
HETATM   19  C   UNL     1      -6.138   4.565  69.934  1.00  0.00    -0.018 C  
HETATM   20  C   UNL     1      -8.186   5.618  69.102  1.00  0.00    -0.100 C  
HETATM   21  O   UNL     1      -8.353   4.352  68.468  1.00  0.00    -0.084 OA 
HETATM   22  C   UNL     1      -9.290   5.936  70.076  1.00  0.00    -0.171 C  
HETATM   23  C   UNL     1      -9.143   9.303  71.137  1.00  0.00    -0.197 C  
HETATM   24  C   UNL     1     -10.034   7.269  69.642  1.00  0.00    -0.176 C  
HETATM   25  C   UNL     1     -10.180   4.709  70.405  1.00  0.00    -0.208 C  
HETATM   26  H   UNL     1      -9.212   4.148  68.120  1.00  0.00     0.000 HD 
HETATM   27  C   UNL     1     -11.426   6.810  69.102  1.00  0.00    -0.122 C  
HETATM   28  C   UNL     1     -12.028   7.968  68.372  1.00  0.00     2.764 C  
HETATM   29  C   UNL     1     -10.806   8.647  67.817  1.00  0.00    -0.005 C  
HETATM   30  C   UNL     1      -9.447   8.109  68.406  1.00  0.00    -0.146 C  
HETATM   31  O   UNL     1     -10.926   9.415  66.892  1.00  0.00    -0.079 OA 
HETATM   32  C   UNL     1      -8.160   9.122  68.575  1.00  0.00    -0.103 C  
HETATM   33  C   UNL     1      -8.430  10.311  67.565  1.00  0.00    -0.118 C  
HETATM   34  C   UNL     1      -8.391   9.934  69.945  1.00  0.00    -0.200 C  
HETATM   35  C   UNL     1      -7.164  10.810  70.295  1.00  0.00     0.353 C  
BRANCH  17  36
HETATM   36  C   UNL     1      -6.635   6.769  70.968  1.00  0.00    -0.053 C  
HETATM   37  C   UNL     1      -5.686   6.694  71.911  1.00  0.00    -0.037 C  
ENDBRANCH  17  36
ENDBRANCH  14  15
ENDBRANCH  12  14
ENDBRANCH  11  12
ENDBRANCH  10  11
ENDBRANCH   8  10
TORSDOF 6
ENDMDL
MODEL      234
REMARK 921   NORMALIZED FREE ENERGY PREDICTED BY IDOCK:   18.81 KCAL/MOL
REMARK 922        TOTAL FREE ENERGY PREDICTED BY IDOCK:   23.65 KCAL/MOL
REMARK 923 INTER-LIGAND FREE ENERGY PREDICTED BY IDOCK:   20.02 KCAL/MOL
REMARK 924 INTRA-LIGAND FREE ENERGY PREDICTED BY IDOCK:    3.63 KCAL/MOL
REMARK 927      BINDING AFFINITY PREDICTED BY RF-SCORE:    0.00 PKD
ROOT
HETATM    1  C   UNL     1     -12.593  16.282  63.994  1.00  0.00     1.764 C  
HETATM    2  C   UNL     1     -13.973  15.887  64.561  1.00  0.00     4.251 C  
HETATM    3  C   UNL     1     -13.664  14.758  65.545  1.00  0.00     2.119 C  
HETATM    4  C   UNL     1     -12.134  14.576  65.457  1.00  0.00    -0.299 C  
HETATM    5  C   UNL     1     -11.318  15.444  66.473  1.00  0.00    -0.098 C  
HETATM    6  N   UNL     1     -11.940  14.977  64.060  1.00  0.00    -0.427 NA 
HETATM    7  C   UNL     1     -10.601  14.924  63.537  1.00  0.00     3.740 C  
HETATM    8  C   UNL     1     -10.931  16.878  66.007  1.00  0.00     0.141 C  
HETATM    9  C   UNL     1     -11.811  17.372  64.797  1.00  0.00     2.675 C  
ENDROOT
BRANCH   8  10
HETATM   10  S   UNL     1      -8.969  17.660  66.291  1.00  0.00    -0.127 SA 
BRANCH  10  11
HETATM   11  C   UNL     1      -7.616  16.417  65.892  1.00  0.00     0.758 C  
BRANCH  11  12
HETATM   12  C   UNL     1      -6.124  16.231  66.618  1.00  0.00     0.412 C  
HETATM   13  O   UNL     1      -5.219  16.933  66.144  1.00  0.00    -0.342 OA 
BRANCH  12  14
HETATM   14  O   UNL     1      -5.783  15.365  67.652  1.00  0.00    -0.220 OA 
BRANCH  14  15
HETATM   15  C   UNL     1      -6.844  14.400  68.400  1.00  0.00    -0.106 C  
HETATM   16  C   UNL     1      -5.770  13.558  69.265  1.00  0.00    -0.081 C  
HETATM   17  C   UNL     1      -6.203  12.587  70.394  1.00  0.00     0.108 C  
HETATM   18  C   UNL     1     -10.245  11.733  69.451  1.00  0.00     0.285 C  
HETATM   19  C   UNL     1      -5.128  12.130  71.412  1.00  0.00    -0.095 C  
HETATM   20  C   UNL     1      -6.577  11.277  69.632  1.00  0.00    -0.136 C  
HETATM   21  O   UNL     1      -5.602  10.237  69.598  1.00  0.00    -0.037 OA 
HETATM   22  C   UNL     1      -7.954  10.779  69.987  1.00  0.00     0.554 C  
HETATM   23  C   UNL     1     -10.402  13.272  69.458  1.00  0.00     0.556 C  
HETATM   24  C   UNL     1      -8.971  11.103  68.813  1.00  0.00    -0.136 C  
HETATM   25  C   UNL     1      -7.951   9.329  70.535  1.00  0.00    -0.188 C  
HETATM   26  H   UNL     1      -5.830   9.440  69.134  1.00  0.00     0.000 HD 
HETATM   27  C   UNL     1      -9.277   9.728  68.139  1.00  0.00    -0.132 C  
HETATM   28  C   UNL     1      -9.949  10.009  66.833  1.00  0.00    -0.263 C  
HETATM   29  C   UNL     1      -9.306  11.308  66.431  1.00  0.00    -0.192 C  
HETATM   30  C   UNL     1      -8.459  11.986  67.574  1.00  0.00    -0.165 C  
HETATM   31  O   UNL     1      -9.349  11.657  65.276  1.00  0.00    -0.196 OA 
HETATM   32  C   UNL     1      -8.351  13.627  67.661  1.00  0.00    -0.182 C  
HETATM   33  C   UNL     1      -8.691  14.145  66.203  1.00  0.00     0.482 C  
HETATM   34  C   UNL     1      -9.687  14.138  68.398  1.00  0.00    -0.226 C  
HETATM   35  C   UNL     1      -9.630  15.659  68.680  1.00  0.00    -0.202 C  
BRANCH  17  36
HETATM   36  C   UNL     1      -7.273  13.361  71.176  1.00  0.00     3.695 C  
HETATM   37  C   UNL     1      -7.447  14.686  71.277  1.00  0.00     2.334 C  
ENDBRANCH  17  36
ENDBRANCH  14  15
ENDBRANCH  12  14
ENDBRANCH  11  12
ENDBRANCH  10  11
ENDBRANCH   8  10
TORSDOF 6
ENDMDL
MODEL      235
REMARK 921   NORMALIZED FREE ENERGY PREDICTED BY IDOCK:   21.30 KCAL/MOL
REMARK 922        TOTAL FREE ENERGY PREDICTED BY IDOCK:   27.02 KCAL/MOL
REMARK 923 INTER-LIGAND FREE ENERGY PREDICTED BY IDOCK:   27.66 KCAL/MOL
REMARK 924 INTRA-LIGAND FREE ENERGY PREDICTED BY IDOCK:   -0.64 KCAL/MOL
REMARK 927      BINDING AFFINITY PREDICTED BY RF-SCORE:    0.00 PKD
ROOT
HETATM    1  C   UNL     1     -13.606  11.605  72.447  1.00  0.00     0.296 C  
HETATM    2  C   UNL     1     -14.315  12.766  73.175  1.00  0.00     2.500 C  
HETATM    3  C   UNL     1     -13.553  14.012  72.721  1.00  0.00    -0.515 C  
HETATM    4  C   UNL     1     -12.454  13.473  71.782  1.00  0.00    -0.062 C  
HETATM    5  C   UNL     1     -12.869  13.395  70.275  1.00  0.00     0.044 C  
HETATM    6  N   UNL     1     -12.256  12.158  72.400  1.00  0.00     1.491 NA 
HETATM    7  C   UNL     1     -11.252  11.302  71.826  1.00  0.00     3.710 C  
HETATM    8  C   UNL     1     -13.568  12.084  69.813  1.00  0.00     3.354 C  
HETATM    9  C   UNL     1     -14.149  11.258  71.022  1.00  0.00     2.449 C  
ENDROOT
BRANCH   8  10
HETATM   10  S   UNL     1     -13.017  11.092  68.008  1.00  0.00     5.441 SA 
BRANCH  10  11
HETATM   11  C   UNL     1     -12.895  12.256  66.537  1.00  0.00     2.384 C  
BRANCH  11  12
HETATM   12  C   UNL     1     -12.154  11.998  65.062  1.00  0.00    -0.133 C  
HETATM   13  O   UNL     1     -12.900  11.575  64.168  1.00  0.00    -0.055 OA 
BRANCH  12  14
HETATM   14  O   UNL     1     -10.811  12.170  64.744  1.00  0.00    -0.285 OA 
BRANCH  14  15
HETATM   15  C   UNL     1      -9.648  11.132  65.177  1.00  0.00    -0.234 C  
HETATM   16  C   UNL     1     -10.580  10.143  66.050  1.00  0.00    -0.071 C  
HETATM   17  C   UNL     1     -10.067   8.775  66.570  1.00  0.00    -0.349 C  
HETATM   18  C   UNL     1      -5.853   9.216  66.488  1.00  0.00    -0.058 C  
HETATM   19  C   UNL     1     -11.115   7.739  67.046  1.00  0.00     0.280 C  
HETATM   20  C   UNL     1      -9.286   9.142  67.869  1.00  0.00    -0.133 C  
HETATM   21  O   UNL     1      -9.959   8.960  69.113  1.00  0.00    -0.179 OA 
HETATM   22  C   UNL     1      -7.885   8.586  67.874  1.00  0.00    -0.103 C  
HETATM   23  C   UNL     1      -6.086   9.604  65.009  1.00  0.00    -0.085 C  
HETATM   24  C   UNL     1      -6.839   9.741  67.574  1.00  0.00    -0.082 C  
HETATM   25  C   UNL     1      -7.598   7.677  69.098  1.00  0.00    -0.100 C  
HETATM   26  H   UNL     1      -9.484   9.183  69.904  1.00  0.00     0.000 HD 
HETATM   27  C   UNL     1      -6.119  10.011  68.933  1.00  0.00    -0.040 C  
HETATM   28  C   UNL     1      -5.376  11.302  68.798  1.00  0.00    -0.039 C  
HETATM   29  C   UNL     1      -6.264  12.068  67.857  1.00  0.00    -0.073 C  
HETATM   30  C   UNL     1      -7.392  11.197  67.184  1.00  0.00    -0.121 C  
HETATM   31  O   UNL     1      -6.162  13.270  67.794  1.00  0.00    -0.132 OA 
HETATM   32  C   UNL     1      -7.914  11.551  65.663  1.00  0.00     0.459 C  
HETATM   33  C   UNL     1      -7.530  13.071  65.433  1.00  0.00     5.672 C  
HETATM   34  C   UNL     1      -6.851  10.895  64.648  1.00  0.00     0.487 C  
HETATM   35  C   UNL     1      -7.320  11.027  63.178  1.00  0.00     0.473 C  
BRANCH  17  36
HETATM   36  C   UNL     1      -9.331   8.161  65.370  1.00  0.00     0.270 C  
HETATM   37  C   UNL     1      -9.384   6.905  64.904  1.00  0.00     1.206 C  
ENDBRANCH  17  36
ENDBRANCH  14  15
ENDBRANCH  12  14
ENDBRANCH  11  12
ENDBRANCH  10  11
ENDBRANCH   8  10
TORSDOF 6
ENDMDL
MODEL      236
REMARK 921   NORMALIZED FREE ENERGY PREDICTED BY IDOCK:   24.35 KCAL/MOL
REMARK 922        TOTAL FREE ENERGY PREDICTED BY IDOCK:   31.14 KCAL/MOL
REMARK 923 INTER-LIGAND FREE ENERGY PREDICTED BY IDOCK:   29.89 KCAL/MOL
REMARK 924 INTRA-LIGAND FREE ENERGY PREDICTED BY IDOCK:    1.25 KCAL/MOL
REMARK 927      BINDING AFFINITY PREDICTED BY RF-SCORE:    0.00 PKD
ROOT
HETATM    1  C   UNL     1      -8.810  10.015  70.668  1.00  0.00     0.617 C  
HETATM    2  C   UNL     1      -9.525  10.704  71.848  1.00  0.00     7.698 C  
HETATM    3  C   UNL     1      -9.364  12.198  71.563  1.00  0.00    14.942 C  
HETATM    4  C   UNL     1      -8.553  12.256  70.251  1.00  0.00     4.697 C  
HETATM    5  C   UNL     1      -9.425  12.283  68.951  1.00  0.00     0.199 C  
HETATM    6  N   UNL     1      -7.781  11.019  70.409  1.00  0.00     0.835 NA 
HETATM    7  C   UNL     1      -6.838  10.692  69.374  1.00  0.00    -0.095 C  
HETATM    8  C   UNL     1      -9.830  10.903  68.357  1.00  0.00    -0.177 C  
HETATM    9  C   UNL     1      -9.689   9.736  69.405  1.00  0.00    -0.214 C  
ENDROOT
BRANCH   8  10
HETATM   10  S   UNL     1      -9.679  10.490  66.271  1.00  0.00    -0.215 SA 
BRANCH  10  11
HETATM   11  C   UNL     1      -9.396  12.032  65.234  1.00  0.00     0.065 C  
BRANCH  11  12
HETATM   12  C   UNL     1      -9.650  13.629  65.650  1.00  0.00     0.001 C  
HETATM   13  O   UNL     1      -9.391  14.450  64.758  1.00  0.00     0.631 OA 
BRANCH  12  14
HETATM   14  O   UNL     1     -10.077  14.132  66.875  1.00  0.00    -0.251 OA 
BRANCH  14  15
HETATM   15  C   UNL     1      -9.436  15.440  67.579  1.00  0.00    -0.205 C  
HETATM   16  C   UNL     1     -10.633  16.464  67.219  1.00  0.00    -0.293 C  
HETATM   17  C   UNL     1     -10.713  17.885  67.836  1.00  0.00    -0.328 C  
HETATM   18  C   UNL     1      -6.731  18.639  69.074  1.00  0.00    -0.296 C  
HETATM   19  C   UNL     1     -12.063  18.639  67.751  1.00  0.00     3.212 C  
HETATM   20  C   UNL     1      -9.755  18.731  66.942  1.00  0.00    -0.316 C  
HETATM   21  O   UNL     1     -10.346  19.529  65.919  1.00  0.00    -0.470 OA 
HETATM   22  C   UNL     1      -8.728  19.481  67.750  1.00  0.00    -0.364 C  
HETATM   23  C   UNL     1      -6.887  17.301  69.834  1.00  0.00     0.388 C  
HETATM   24  C   UNL     1      -7.315  18.766  67.635  1.00  0.00    -0.238 C  
HETATM   25  C   UNL     1      -8.763  21.012  67.505  1.00  0.00     0.010 C  
HETATM   26  H   UNL     1      -9.763  20.044  65.375  1.00  0.00     0.000 HD 
HETATM   27  C   UNL     1      -6.449  19.704  66.736  1.00  0.00    -0.199 C  
HETATM   28  C   UNL     1      -5.240  18.929  66.316  1.00  0.00    -0.165 C  
HETATM   29  C   UNL     1      -5.786  17.531  66.235  1.00  0.00    -0.209 C  
HETATM   30  C   UNL     1      -7.224  17.365  66.858  1.00  0.00    -0.231 C  
HETATM   31  O   UNL     1      -5.187  16.698  65.597  1.00  0.00     0.680 OA 
HETATM   32  C   UNL     1      -7.659  15.945  67.570  1.00  0.00    -0.186 C  
HETATM   33  C   UNL     1      -6.683  14.856  66.959  1.00  0.00     0.552 C  
HETATM   34  C   UNL     1      -7.055  15.975  69.062  1.00  0.00    -0.171 C  
HETATM   35  C   UNL     1      -7.532  14.756  69.888  1.00  0.00     0.060 C  
BRANCH  17  36
HETATM   36  C   UNL     1     -10.400  17.674  69.324  1.00  0.00    -0.105 C  
HETATM   37  C   UNL     1     -10.318  16.527  70.012  1.00  0.00     0.031 C  
ENDBRANCH  17  36
ENDBRANCH  14  15
ENDBRANCH  12  14
ENDBRANCH  11  12
ENDBRANCH  10  11
ENDBRANCH   8  10
TORSDOF 6
ENDMDL
MODEL      237
REMARK 921   NORMALIZED FREE ENERGY PREDICTED BY IDOCK:   26.61 KCAL/MOL
REMARK 922        TOTAL FREE ENERGY PREDICTED BY IDOCK:   34.19 KCAL/MOL
REMARK 923 INTER-LIGAND FREE ENERGY PREDICTED BY IDOCK:   19.31 KCAL/MOL
REMARK 924 INTRA-LIGAND FREE ENERGY PREDICTED BY IDOCK:   14.88 KCAL/MOL
REMARK 927      BINDING AFFINITY PREDICTED BY RF-SCORE:    0.00 PKD
ROOT
HETATM    1  C   UNL     1      -8.492  11.860  63.666  1.00  0.00     1.423 C  
HETATM    2  C   UNL     1      -9.743  11.488  62.843  1.00  0.00    -0.302 C  
HETATM    3  C   UNL     1     -10.100  10.079  63.319  1.00  0.00     0.708 C  
HETATM    4  C   UNL     1      -9.019   9.740  64.366  1.00  0.00    -0.245 C  
HETATM    5  C   UNL     1      -9.390  10.139  65.834  1.00  0.00    -0.224 C  
HETATM    6  N   UNL     1      -7.913  10.527  63.811  1.00  0.00    -0.075 NA 
HETATM    7  C   UNL     1      -6.650  10.469  64.497  1.00  0.00     0.056 C  
HETATM    8  C   UNL     1      -9.020  11.585  66.276  1.00  0.00    -0.196 C  
HETATM    9  C   UNL     1      -8.761  12.537  65.049  1.00  0.00     1.551 C  
ENDROOT
BRANCH   8  10
HETATM   10  S   UNL     1      -8.091  11.983  68.153  1.00  0.00    -0.167 SA 
BRANCH  10  11
HETATM   11  C   UNL     1      -9.238  12.832  69.377  1.00  0.00     1.272 C  
BRANCH  11  12
HETATM   12  C   UNL     1      -9.880  12.228  70.796  1.00  0.00     6.870 C  
HETATM   13  O   UNL     1     -10.553  13.037  71.452  1.00  0.00     4.954 OA 
BRANCH  12  14
HETATM   14  O   UNL     1      -9.717  10.954  71.329  1.00  0.00     3.263 OA 
BRANCH  14  15
HETATM   15  C   UNL     1      -8.959   9.750  70.559  1.00  0.00     0.007 C  
HETATM   16  C   UNL     1      -7.701  10.615  70.030  1.00  0.00     0.234 C  
HETATM   17  C   UNL     1      -6.458   9.949  69.384  1.00  0.00    -0.046 C  
HETATM   18  C   UNL     1      -7.914   6.170  68.134  1.00  0.00    -0.107 C  
HETATM   19  C   UNL     1      -5.161  10.788  69.267  1.00  0.00    -0.041 C  
HETATM   20  C   UNL     1      -6.889   9.719  67.902  1.00  0.00    -0.073 C  
HETATM   21  O   UNL     1      -6.442  10.666  66.935  1.00  0.00    -0.073 OA 
HETATM   22  C   UNL     1      -6.692   8.292  67.461  1.00  0.00    -0.063 C  
HETATM   23  C   UNL     1      -8.360   6.037  69.609  1.00  0.00    -0.119 C  
HETATM   24  C   UNL     1      -8.088   7.539  67.410  1.00  0.00    -0.116 C  
HETATM   25  C   UNL     1      -5.778   8.164  66.215  1.00  0.00    -0.040 C  
HETATM   26  H   UNL     1      -6.705  10.526  66.033  1.00  0.00     0.000 HD 
HETATM   27  C   UNL     1      -8.405   7.357  65.892  1.00  0.00    -0.140 C  
HETATM   28  C   UNL     1      -9.845   6.967  65.778  1.00  0.00     0.644 C  
HETATM   29  C   UNL     1     -10.451   7.696  66.946  1.00  0.00    -0.318 C  
HETATM   30  C   UNL     1      -9.394   8.303  67.944  1.00  0.00    -0.150 C  
HETATM   31  O   UNL     1     -11.643   7.893  66.965  1.00  0.00     1.177 OA 
HETATM   32  C   UNL     1      -9.741   8.414  69.551  1.00  0.00    -0.177 C  
HETATM   33  C   UNL     1     -11.323   8.383  69.638  1.00  0.00     0.209 C  
HETATM   34  C   UNL     1      -9.454   6.963  70.184  1.00  0.00    -0.162 C  
HETATM   35  C   UNL     1      -9.595   6.982  71.726  1.00  0.00    -0.161 C  
BRANCH  17  36
HETATM   36  C   UNL     1      -6.148   8.752  70.295  1.00  0.00    -0.030 C  
HETATM   37  C   UNL     1      -6.442   7.457  70.112  1.00  0.00    -0.035 C  
ENDBRANCH  17  36
ENDBRANCH  14  15
ENDBRANCH  12  14
ENDBRANCH  11  12
ENDBRANCH  10  11
ENDBRANCH   8  10
TORSDOF 6
ENDMDL
MODEL      238
REMARK 921   NORMALIZED FREE ENERGY PREDICTED BY IDOCK:   30.15 KCAL/MOL
REMARK 922        TOTAL FREE ENERGY PREDICTED BY IDOCK:   38.97 KCAL/MOL
REMARK 923 INTER-LIGAND FREE ENERGY PREDICTED BY IDOCK:   38.80 KCAL/MOL
REMARK 924 INTRA-LIGAND FREE ENERGY PREDICTED BY IDOCK:    0.17 KCAL/MOL
REMARK 927      BINDING AFFINITY PREDICTED BY RF-SCORE:    0.00 PKD
ROOT
HETATM    1  C   UNL     1      -9.803  13.363  65.767  1.00  0.00    -0.198 C  
HETATM    2  C   UNL     1      -8.370  13.231  66.325  1.00  0.00     0.804 C  
HETATM    3  C   UNL     1      -8.569  13.051  67.830  1.00  0.00    -0.189 C  
HETATM    4  C   UNL     1     -10.098  13.111  68.028  1.00  0.00    -0.232 C  
HETATM    5  C   UNL     1     -10.818  11.724  67.946  1.00  0.00    -0.255 C  
HETATM    6  N   UNL     1     -10.434  14.007  66.916  1.00  0.00    -0.274 NA 
HETATM    7  C   UNL     1     -11.817  14.364  66.748  1.00  0.00    -0.410 C  
HETATM    8  C   UNL     1     -11.263  11.253  66.531  1.00  0.00    -0.152 C  
HETATM    9  C   UNL     1     -10.512  12.024  65.381  1.00  0.00    -0.313 C  
ENDROOT
BRANCH   8  10
HETATM   10  S   UNL     1     -13.195  10.425  66.179  1.00  0.00    14.876 SA 
BRANCH  10  11
HETATM   11  C   UNL     1     -13.219   8.547  66.265  1.00  0.00    19.988 C  
BRANCH  11  12
HETATM   12  C   UNL     1     -12.143   7.525  67.030  1.00  0.00     4.626 C  
HETATM   13  O   UNL     1     -11.665   6.635  66.312  1.00  0.00     1.266 OA 
BRANCH  12  14
HETATM   14  O   UNL     1     -11.758   7.540  68.367  1.00  0.00     0.971 OA 
BRANCH  14  15
HETATM   15  C   UNL     1     -10.438   6.793  68.928  1.00  0.00    -0.207 C  
HETATM   16  C   UNL     1     -10.590   5.442  68.056  1.00  0.00    -0.157 C  
HETATM   17  C   UNL     1      -9.463   4.378  67.983  1.00  0.00    -0.208 C  
HETATM   18  C   UNL     1      -7.148   5.167  71.444  1.00  0.00    -0.061 C  
HETATM   19  C   UNL     1      -9.524   3.331  66.843  1.00  0.00    -0.145 C  
HETATM   20  C   UNL     1      -9.666   3.533  69.279  1.00  0.00     0.030 C  
HETATM   21  O   UNL     1     -10.357   2.293  69.151  1.00  0.00     1.024 OA 
HETATM   22  C   UNL     1      -8.404   3.421  70.095  1.00  0.00    -0.081 C  
HETATM   23  C   UNL     1      -7.088   6.605  70.877  1.00  0.00    -0.069 C  
HETATM   24  C   UNL     1      -8.487   4.374  71.361  1.00  0.00    -0.109 C  
HETATM   25  C   UNL     1      -7.975   1.952  70.347  1.00  0.00    -0.051 C  
HETATM   26  H   UNL     1     -10.480   1.779  69.939  1.00  0.00     0.000 HD 
HETATM   27  C   UNL     1      -8.677   3.423  72.584  1.00  0.00    -0.094 C  
HETATM   28  C   UNL     1      -9.099   4.266  73.746  1.00  0.00    -0.093 C  
HETATM   29  C   UNL     1      -9.890   5.349  73.066  1.00  0.00    -0.162 C  
HETATM   30  C   UNL     1      -9.744   5.364  71.497  1.00  0.00    -0.209 C  
HETATM   31  O   UNL     1     -10.667   6.010  73.714  1.00  0.00    -0.261 OA 
HETATM   32  C   UNL     1      -9.825   6.787  70.672  1.00  0.00    -0.191 C  
HETATM   33  C   UNL     1     -10.600   7.782  71.631  1.00  0.00    -0.252 C  
HETATM   34  C   UNL     1      -8.368   7.464  70.778  1.00  0.00    -0.119 C  
HETATM   35  C   UNL     1      -8.273   8.739  69.905  1.00  0.00    -0.118 C  
BRANCH  17  36
HETATM   36  C   UNL     1      -8.178   5.195  67.784  1.00  0.00    -0.098 C  
HETATM   37  C   UNL     1      -7.096   4.896  67.051  1.00  0.00    -0.072 C  
ENDBRANCH  17  36
ENDBRANCH  14  15
ENDBRANCH  12  14
ENDBRANCH  11  12
ENDBRANCH  10  11
ENDBRANCH   8  10
TORSDOF 6
ENDMDL
MODEL      239
REMARK 921   NORMALIZED FREE ENERGY PREDICTED BY IDOCK:   31.72 KCAL/MOL
REMARK 922        TOTAL FREE ENERGY PREDICTED BY IDOCK:   41.09 KCAL/MOL
REMARK 923 INTER-LIGAND FREE ENERGY PREDICTED BY IDOCK:   35.40 KCAL/MOL
REMARK 924 INTRA-LIGAND FREE ENERGY PREDICTED BY IDOCK:    5.69 KCAL/MOL
REMARK 927      BINDING AFFINITY PREDICTED BY RF-SCORE:    0.00 PKD
ROOT
HETATM    1  C   UNL     1      -8.409  12.099  63.653  1.00  0.00     2.410 C  
HETATM    2  C   UNL     1      -9.738  11.467  63.188  1.00  0.00    -0.413 C  
HETATM    3  C   UNL     1     -10.466  11.126  64.489  1.00  0.00    -0.415 C  
HETATM    4  C   UNL     1      -9.495  11.571  65.603  1.00  0.00    -0.222 C  
HETATM    5  C   UNL     1      -9.694  13.047  66.085  1.00  0.00    -0.255 C  
HETATM    6  N   UNL     1      -8.228  11.356  64.896  1.00  0.00     0.514 NA 
HETATM    7  C   UNL     1      -7.014  11.633  65.617  1.00  0.00     1.104 C  
HETATM    8  C   UNL     1      -8.917  14.146  65.303  1.00  0.00     1.694 C  
HETATM    9  C   UNL     1      -8.434  13.645  63.890  1.00  0.00     8.780 C  
ENDROOT
BRANCH   8  10
HETATM   10  S   UNL     1      -7.858  15.701  66.305  1.00  0.00     0.822 SA 
BRANCH  10  11
HETATM   11  C   UNL     1      -8.196  17.404  65.584  1.00  0.00     0.537 C  
BRANCH  11  12
HETATM   12  C   UNL     1      -9.118  18.643  66.221  1.00  0.00    -0.228 C  
HETATM   13  O   UNL     1      -9.061  19.712  65.597  1.00  0.00    -0.322 OA 
BRANCH  12  14
HETATM   14  O   UNL     1      -9.898  18.617  67.372  1.00  0.00    -0.301 OA 
BRANCH  14  15
HETATM   15  C   UNL     1     -10.118  17.294  68.277  1.00  0.00    -0.321 C  
HETATM   16  C   UNL     1     -11.372  16.697  67.452  1.00  0.00     0.253 C  
HETATM   17  C   UNL     1     -11.921  15.269  67.707  1.00  0.00     0.020 C  
HETATM   18  C   UNL     1     -10.512  14.362  71.600  1.00  0.00     2.775 C  
HETATM   19  C   UNL     1     -12.844  14.642  66.633  1.00  0.00     0.898 C  
HETATM   20  C   UNL     1     -12.853  15.445  68.946  1.00  0.00     0.919 C  
HETATM   21  O   UNL     1     -14.253  15.554  68.702  1.00  0.00     5.356 OA 
HETATM   22  C   UNL     1     -12.523  14.480  70.055  1.00  0.00    -0.348 C  
HETATM   23  C   UNL     1      -9.129  14.720  71.005  1.00  0.00     2.916 C  
HETATM   24  C   UNL     1     -11.748  15.231  71.219  1.00  0.00    -0.425 C  
HETATM   25  C   UNL     1     -13.730  13.598  70.469  1.00  0.00     0.944 C  
HETATM   26  H   UNL     1     -14.820  15.662  69.456  1.00  0.00     0.000 HD 
HETATM   27  C   UNL     1     -12.769  15.338  72.395  1.00  0.00    -0.449 C  
HETATM   28  C   UNL     1     -12.219  16.322  73.378  1.00  0.00    -0.614 C  
HETATM   29  C   UNL     1     -11.481  17.273  72.477  1.00  0.00     1.225 C  
HETATM   30  C   UNL     1     -11.321  16.762  70.995  1.00  0.00     0.315 C  
HETATM   31  O   UNL     1     -11.205  18.377  72.882  1.00  0.00     1.426 OA 
HETATM   32  C   UNL     1      -9.991  17.175  70.116  1.00  0.00     1.015 C  
HETATM   33  C   UNL     1      -9.424  18.482  70.808  1.00  0.00     3.674 C  
HETATM   34  C   UNL     1      -8.818  16.163  70.554  1.00  0.00     2.264 C  
HETATM   35  C   UNL     1      -7.555  16.352  69.680  1.00  0.00     0.215 C  
BRANCH  17  36
HETATM   36  C   UNL     1     -10.666  14.388  67.801  1.00  0.00    -0.248 C  
HETATM   37  C   UNL     1     -10.039  13.932  68.894  1.00  0.00    -0.106 C  
ENDBRANCH  17  36
ENDBRANCH  14  15
ENDBRANCH  12  14
ENDBRANCH  11  12
ENDBRANCH  10  11
ENDBRANCH   8  10
TORSDOF 6
ENDMDL
MODEL      240
REMARK 921   NORMALIZED FREE ENERGY PREDICTED BY IDOCK:   32.45 KCAL/MOL
REMARK 922        TOTAL FREE ENERGY PREDICTED BY IDOCK:   42.08 KCAL/MOL
REMARK 923 INTER-LIGAND FREE ENERGY PREDICTED BY IDOCK:   35.64 KCAL/MOL
REMARK 924 INTRA-LIGAND FREE ENERGY PREDICTED BY IDOCK:    6.44 KCAL/MOL
REMARK 927      BINDING AFFINITY PREDICTED BY RF-SCORE:    0.00 PKD
ROOT
HETATM    1  C   UNL     1     -11.984  11.803  68.135  1.00  0.00    -0.143 C  
HETATM    2  C   UNL     1     -12.712  11.882  69.493  1.00  0.00     0.509 C  
HETATM    3  C   UNL     1     -12.293  10.603  70.218  1.00  0.00    -0.406 C  
HETATM    4  C   UNL     1     -11.371   9.875  69.217  1.00  0.00    -0.067 C  
HETATM    5  C   UNL     1      -9.854  10.237  69.352  1.00  0.00    -0.247 C  
HETATM    6  N   UNL     1     -11.975  10.352  67.969  1.00  0.00     0.005 NA 
HETATM    7  C   UNL     1     -11.411   9.871  66.735  1.00  0.00     0.849 C  
HETATM    8  C   UNL     1      -9.358  11.470  68.541  1.00  0.00    -0.170 C  
HETATM    9  C   UNL     1     -10.542  12.408  68.096  1.00  0.00    -0.232 C  
ENDROOT
BRANCH   8  10
HETATM   10  S   UNL     1      -7.552  11.418  67.410  1.00  0.00    -0.131 SA 
BRANCH  10  11
HETATM   11  C   UNL     1      -7.764  12.060  65.656  1.00  0.00     1.457 C  
BRANCH  11  12
HETATM   12  C   UNL     1      -7.613  13.625  65.093  1.00  0.00     8.719 C  
HETATM   13  O   UNL     1      -7.608  13.739  63.859  1.00  0.00    12.508 OA 
BRANCH  12  14
HETATM   14  O   UNL     1      -7.461  14.788  65.842  1.00  0.00     2.334 OA 
BRANCH  14  15
HETATM   15  C   UNL     1      -8.702  15.671  66.387  1.00  0.00    -0.318 C  
HETATM   16  C   UNL     1      -7.971  17.109  66.303  1.00  0.00    -0.339 C  
HETATM   17  C   UNL     1      -8.748  18.439  66.494  1.00  0.00    -0.291 C  
HETATM   18  C   UNL     1     -12.231  17.245  68.592  1.00  0.00     2.728 C  
HETATM   19  C   UNL     1      -8.072  19.750  66.019  1.00  0.00    -0.334 C  
HETATM   20  C   UNL     1      -8.831  18.601  68.043  1.00  0.00    -0.306 C  
HETATM   21  O   UNL     1      -7.891  19.475  68.663  1.00  0.00    -0.344 OA 
HETATM   22  C   UNL     1     -10.242  18.822  68.523  1.00  0.00    -0.397 C  
HETATM   23  C   UNL     1     -12.396  16.248  67.421  1.00  0.00     1.901 C  
HETATM   24  C   UNL     1     -10.809  17.494  69.180  1.00  0.00     0.221 C  
HETATM   25  C   UNL     1     -10.408  20.134  69.333  1.00  0.00     0.029 C  
HETATM   26  H   UNL     1      -7.941  19.573  69.606  1.00  0.00     0.000 HD 
HETATM   27  C   UNL     1     -10.857  17.779  70.715  1.00  0.00     1.938 C  
HETATM   28  C   UNL     1     -11.055  16.468  71.408  1.00  0.00     0.311 C  
HETATM   29  C   UNL     1     -10.329  15.524  70.490  1.00  0.00    -0.006 C  
HETATM   30  C   UNL     1      -9.921  16.159  69.106  1.00  0.00    -0.251 C  
HETATM   31  O   UNL     1      -9.985  14.443  70.905  1.00  0.00     1.569 OA 
HETATM   32  C   UNL     1      -9.865  15.224  67.751  1.00  0.00    -0.220 C  
HETATM   33  C   UNL     1      -9.702  13.739  68.276  1.00  0.00    -0.231 C  
HETATM   34  C   UNL     1     -11.377  15.107  67.212  1.00  0.00    -0.305 C  
HETATM   35  C   UNL     1     -11.433  14.378  65.847  1.00  0.00    -0.341 C  
BRANCH  17  36
HETATM   36  C   UNL     1     -10.027  18.258  65.664  1.00  0.00     0.269 C  
HETATM   37  C   UNL     1     -10.168  18.231  64.331  1.00  0.00     5.375 C  
ENDBRANCH  17  36
ENDBRANCH  14  15
ENDBRANCH  12  14
ENDBRANCH  11  12
ENDBRANCH  10  11
ENDBRANCH   8  10
TORSDOF 6
ENDMDL
MODEL      241
REMARK 921   NORMALIZED FREE ENERGY PREDICTED BY IDOCK:   32.54 KCAL/MOL
REMARK 922        TOTAL FREE ENERGY PREDICTED BY IDOCK:   42.20 KCAL/MOL
REMARK 923 INTER-LIGAND FREE ENERGY PREDICTED BY IDOCK:   41.76 KCAL/MOL
REMARK 924 INTRA-LIGAND FREE ENERGY PREDICTED BY IDOCK:    0.43 KCAL/MOL
REMARK 927      BINDING AFFINITY PREDICTED BY RF-SCORE:    0.00 PKD
ROOT
HETATM    1  C   UNL     1      -6.957   6.434  66.369  1.00  0.00    -0.067 C  
HETATM    2  C   UNL     1      -8.335   6.337  65.682  1.00  0.00    -0.147 C  
HETATM    3  C   UNL     1      -9.149   5.422  66.598  1.00  0.00    -0.124 C  
HETATM    4  C   UNL     1      -8.174   5.047  67.734  1.00  0.00    -0.098 C  
HETATM    5  C   UNL     1      -8.208   6.015  68.964  1.00  0.00    -0.108 C  
HETATM    6  N   UNL     1      -6.917   5.108  66.980  1.00  0.00    -0.063 NA 
HETATM    7  C   UNL     1      -5.706   4.785  67.687  1.00  0.00    -0.021 C  
HETATM    8  C   UNL     1      -7.272   7.257  68.898  1.00  0.00    -0.090 C  
HETATM    9  C   UNL     1      -6.801   7.573  67.429  1.00  0.00    -0.071 C  
ENDROOT
BRANCH   8  10
HETATM   10  S   UNL     1      -6.068   7.846  70.556  1.00  0.00    -0.033 SA 
BRANCH  10  11
HETATM   11  C   UNL     1      -6.963   8.996  71.744  1.00  0.00     0.049 C  
BRANCH  11  12
HETATM   12  C   UNL     1      -6.709  10.625  72.009  1.00  0.00     2.921 C  
HETATM   13  O   UNL     1      -5.526  10.988  71.941  1.00  0.00    -0.328 OA 
BRANCH  12  14
HETATM   14  O   UNL     1      -7.656  11.594  72.326  1.00  0.00     9.409 OA 
BRANCH  14  15
HETATM   15  C   UNL     1      -8.079  12.794  71.329  1.00  0.00    10.437 C  
HETATM   16  C   UNL     1      -7.788  12.013  69.945  1.00  0.00     1.688 C  
HETATM   17  C   UNL     1      -8.226  12.584  68.570  1.00  0.00    -0.079 C  
HETATM   18  C   UNL     1      -8.710  16.723  69.339  1.00  0.00     0.188 C  
HETATM   19  C   UNL     1      -8.262  11.617  67.361  1.00  0.00    -0.153 C  
HETATM   20  C   UNL     1      -7.092  13.592  68.209  1.00  0.00    -0.110 C  
HETATM   21  O   UNL     1      -6.083  13.149  67.304  1.00  0.00    -0.367 OA 
HETATM   22  C   UNL     1      -7.626  14.960  67.869  1.00  0.00    -0.146 C  
HETATM   23  C   UNL     1      -9.648  16.237  70.469  1.00  0.00     1.629 C  
HETATM   24  C   UNL     1      -7.378  15.958  69.077  1.00  0.00    -0.185 C  
HETATM   25  C   UNL     1      -7.198  15.443  66.459  1.00  0.00     0.939 C  
HETATM   26  H   UNL     1      -5.393  13.763  67.085  1.00  0.00     0.000 HD 
HETATM   27  C   UNL     1      -6.242  16.916  68.598  1.00  0.00    -0.154 C  
HETATM   28  C   UNL     1      -5.736  17.648  69.800  1.00  0.00    -0.235 C  
HETATM   29  C   UNL     1      -5.920  16.621  70.883  1.00  0.00     0.631 C  
HETATM   30  C   UNL     1      -6.779  15.374  70.447  1.00  0.00     0.199 C  
HETATM   31  O   UNL     1      -5.305  16.735  71.916  1.00  0.00    -0.049 OA 
HETATM   32  C   UNL     1      -7.725  14.595  71.548  1.00  0.00     3.446 C  
HETATM   33  C   UNL     1      -7.108  14.962  72.961  1.00  0.00     4.240 C  
HETATM   34  C   UNL     1      -9.086  15.445  71.669  1.00  0.00     4.495 C  
HETATM   35  C   UNL     1     -10.123  14.724  72.563  1.00  0.00     4.278 C  
BRANCH  17  36
HETATM   36  C   UNL     1      -9.660  13.081  68.801  1.00  0.00     0.083 C  
HETATM   37  C   UNL     1     -10.284  14.133  68.254  1.00  0.00    -0.243 C  
ENDBRANCH  17  36
ENDBRANCH  14  15
ENDBRANCH  12  14
ENDBRANCH  11  12
ENDBRANCH  10  11
ENDBRANCH   8  10
TORSDOF 6
ENDMDL
MODEL      242
REMARK 921   NORMALIZED FREE ENERGY PREDICTED BY IDOCK:   36.54 KCAL/MOL
REMARK 922        TOTAL FREE ENERGY PREDICTED BY IDOCK:   47.61 KCAL/MOL
REMARK 923 INTER-LIGAND FREE ENERGY PREDICTED BY IDOCK:   46.88 KCAL/MOL
REMARK 924 INTRA-LIGAND FREE ENERGY PREDICTED BY IDOCK:    0.73 KCAL/MOL
REMARK 927      BINDING AFFINITY PREDICTED BY RF-SCORE:    0.00 PKD
ROOT
HETATM    1  C   UNL     1      -9.807  13.363  65.766  1.00  0.00    -0.198 C  
HETATM    2  C   UNL     1      -8.381  13.196  66.332  1.00  0.00     0.538 C  
HETATM    3  C   UNL     1      -8.593  13.017  67.836  1.00  0.00    -0.189 C  
HETATM    4  C   UNL     1     -10.121  13.112  68.025  1.00  0.00    -0.232 C  
HETATM    5  C   UNL     1     -10.872  11.741  67.935  1.00  0.00    -0.255 C  
HETATM    6  N   UNL     1     -10.429  14.018  66.914  1.00  0.00    -0.274 NA 
HETATM    7  C   UNL     1     -11.804  14.407  66.739  1.00  0.00    -0.410 C  
HETATM    8  C   UNL     1     -11.320  11.284  66.516  1.00  0.00    -0.047 C  
HETATM    9  C   UNL     1     -10.545  12.042  65.373  1.00  0.00    -0.319 C  
ENDROOT
BRANCH   8  10
HETATM   10  S   UNL     1     -13.268  10.502  66.149  1.00  0.00    14.008 SA 
BRANCH  10  11
HETATM   11  C   UNL     1     -13.336   8.625  66.233  1.00  0.00    21.454 C  
BRANCH  11  12
HETATM   12  C   UNL     1     -12.290   7.577  67.006  1.00  0.00     6.660 C  
HETATM   13  O   UNL     1     -11.828   6.677  66.291  1.00  0.00     1.605 OA 
BRANCH  12  14
HETATM   14  O   UNL     1     -11.916   7.583  68.346  1.00  0.00     1.611 OA 
BRANCH  14  15
HETATM   15  C   UNL     1     -10.621   6.800  68.918  1.00  0.00    -0.228 C  
HETATM   16  C   UNL     1      -9.973   8.047  69.716  1.00  0.00    -0.191 C  
HETATM   17  C   UNL     1      -8.781   7.868  70.692  1.00  0.00    -0.135 C  
HETATM   18  C   UNL     1      -7.058   4.194  69.471  1.00  0.00    -0.049 C  
HETATM   19  C   UNL     1      -8.482   9.014  71.691  1.00  0.00    -0.030 C  
HETATM   20  C   UNL     1      -7.534   7.854  69.756  1.00  0.00    -0.088 C  
HETATM   21  O   UNL     1      -6.791   9.064  69.634  1.00  0.00    -0.048 OA 
HETATM   22  C   UNL     1      -6.658   6.649  69.984  1.00  0.00    -0.048 C  
HETATM   23  C   UNL     1      -8.491   3.645  69.666  1.00  0.00    -0.094 C  
HETATM   24  C   UNL     1      -6.865   5.595  68.816  1.00  0.00    -0.059 C  
HETATM   25  C   UNL     1      -5.196   7.021  70.344  1.00  0.00    -0.023 C  
HETATM   26  H   UNL     1      -6.032   9.055  69.063  1.00  0.00     0.000 HD 
HETATM   27  C   UNL     1      -5.561   5.662  67.960  1.00  0.00    -0.012 C  
HETATM   28  C   UNL     1      -5.833   4.953  66.672  1.00  0.00    -0.022 C  
HETATM   29  C   UNL     1      -7.294   5.242  66.467  1.00  0.00    -0.086 C  
HETATM   30  C   UNL     1      -8.007   5.873  67.722  1.00  0.00    -0.098 C  
HETATM   31  O   UNL     1      -7.771   5.122  65.364  1.00  0.00    -0.084 OA 
HETATM   32  C   UNL     1      -9.595   5.552  68.021  1.00  0.00    -0.147 C  
HETATM   33  C   UNL     1     -10.199   5.105  66.626  1.00  0.00    -0.297 C  
HETATM   34  C   UNL     1      -9.644   4.122  68.756  1.00  0.00    -0.210 C  
HETATM   35  C   UNL     1     -11.078   3.781  69.230  1.00  0.00     5.137 C  
BRANCH  17  36
HETATM   36  C   UNL     1      -9.145   6.626  71.518  1.00  0.00    -0.142 C  
HETATM   37  C   UNL     1      -8.909   6.379  72.814  1.00  0.00    -0.124 C  
ENDBRANCH  17  36
ENDBRANCH  14  15
ENDBRANCH  12  14
ENDBRANCH  11  12
ENDBRANCH  10  11
ENDBRANCH   8  10
TORSDOF 6
ENDMDL
MODEL      243
REMARK 921   NORMALIZED FREE ENERGY PREDICTED BY IDOCK:   41.27 KCAL/MOL
REMARK 922        TOTAL FREE ENERGY PREDICTED BY IDOCK:   54.00 KCAL/MOL
REMARK 923 INTER-LIGAND FREE ENERGY PREDICTED BY IDOCK:   53.75 KCAL/MOL
REMARK 924 INTRA-LIGAND FREE ENERGY PREDICTED BY IDOCK:    0.25 KCAL/MOL
REMARK 927      BINDING AFFINITY PREDICTED BY RF-SCORE:    0.00 PKD
ROOT
HETATM    1  C   UNL     1      -9.150  10.740  71.647  1.00  0.00     7.704 C  
HETATM    2  C   UNL     1      -9.191  11.118  73.143  1.00  0.00    18.916 C  
HETATM    3  C   UNL     1      -9.084   9.778  73.871  1.00  0.00     7.015 C  
HETATM    4  C   UNL     1      -9.009   8.729  72.742  1.00  0.00     0.213 C  
HETATM    5  C   UNL     1      -7.555   8.387  72.271  1.00  0.00    -0.146 C  
HETATM    6  N   UNL     1      -9.799   9.434  71.727  1.00  0.00    -0.116 NA 
HETATM    7  C   UNL     1     -10.009   8.766  70.470  1.00  0.00    -0.189 C  
HETATM    8  C   UNL     1      -6.959   9.284  71.148  1.00  0.00    -0.052 C  
HETATM    9  C   UNL     1      -7.728  10.651  71.003  1.00  0.00     2.670 C  
ENDROOT
BRANCH   8  10
HETATM   10  S   UNL     1      -5.928   8.456  69.476  1.00  0.00    -0.033 SA 
BRANCH  10  11
HETATM   11  C   UNL     1      -6.500   6.717  69.046  1.00  0.00    -0.036 C  
BRANCH  11  12
HETATM   12  C   UNL     1      -7.986   6.221  68.469  1.00  0.00    -0.105 C  
HETATM   13  O   UNL     1      -8.105   4.998  68.311  1.00  0.00    -0.086 OA 
BRANCH  12  14
HETATM   14  O   UNL     1      -9.072   7.018  68.120  1.00  0.00    -0.130 OA 
BRANCH  14  15
HETATM   15  C   UNL     1      -9.020   8.148  66.964  1.00  0.00    -0.141 C  
HETATM   16  C   UNL     1      -7.424   8.109  66.722  1.00  0.00    -0.090 C  
HETATM   17  C   UNL     1      -6.754   8.842  65.530  1.00  0.00    -0.072 C  
HETATM   18  C   UNL     1      -9.629  11.758  64.437  1.00  0.00    -0.085 C  
HETATM   19  C   UNL     1      -5.307   8.442  65.150  1.00  0.00    -0.035 C  
HETATM   20  C   UNL     1      -6.616  10.314  66.030  1.00  0.00    -0.109 C  
HETATM   21  O   UNL     1      -5.345  10.719  66.532  1.00  0.00    -0.054 OA 
HETATM   22  C   UNL     1      -7.210  11.306  65.064  1.00  0.00     0.957 C  
HETATM   23  C   UNL     1     -10.584  10.545  64.345  1.00  0.00     0.047 C  
HETATM   24  C   UNL     1      -8.605  11.830  65.610  1.00  0.00     0.295 C  
HETATM   25  C   UNL     1      -6.192  12.378  64.594  1.00  0.00     7.300 C  
HETATM   26  H   UNL     1      -5.262  11.615  66.836  1.00  0.00     0.000 HD 
HETATM   27  C   UNL     1      -8.346  13.301  66.066  1.00  0.00     1.330 C  
HETATM   28  C   UNL     1      -9.518  13.727  66.891  1.00  0.00    -0.265 C  
HETATM   29  C   UNL     1      -9.921  12.432  67.542  1.00  0.00    -0.196 C  
HETATM   30  C   UNL     1      -9.212  11.161  66.937  1.00  0.00    -0.179 C  
HETATM   31  O   UNL     1     -10.608  12.458  68.534  1.00  0.00    -0.223 OA 
HETATM   32  C   UNL     1      -9.998   9.714  66.900  1.00  0.00    -0.272 C  
HETATM   33  C   UNL     1     -11.118   9.820  68.016  1.00  0.00    -0.168 C  
HETATM   34  C   UNL     1     -10.962   9.747  65.612  1.00  0.00     1.220 C  
HETATM   35  C   UNL     1     -11.641   8.375  65.381  1.00  0.00     9.089 C  
BRANCH  17  36
HETATM   36  C   UNL     1      -7.649   8.513  64.326  1.00  0.00    -0.122 C  
HETATM   37  C   UNL     1      -7.487   7.567  63.391  1.00  0.00    -0.101 C  
ENDBRANCH  17  36
ENDBRANCH  14  15
ENDBRANCH  12  14
ENDBRANCH  11  12
ENDBRANCH  10  11
ENDBRANCH   8  10
TORSDOF 6
ENDMDL
MODEL      244
REMARK 921   NORMALIZED FREE ENERGY PREDICTED BY IDOCK:   42.08 KCAL/MOL
REMARK 922        TOTAL FREE ENERGY PREDICTED BY IDOCK:   55.09 KCAL/MOL
REMARK 923 INTER-LIGAND FREE ENERGY PREDICTED BY IDOCK:   54.31 KCAL/MOL
REMARK 924 INTRA-LIGAND FREE ENERGY PREDICTED BY IDOCK:    0.78 KCAL/MOL
REMARK 927      BINDING AFFINITY PREDICTED BY RF-SCORE:    0.00 PKD
ROOT
HETATM    1  C   UNL     1      -8.151  18.825  69.980  1.00  0.00     1.396 C  
HETATM    2  C   UNL     1      -6.981  19.503  70.722  1.00  0.00     0.700 C  
HETATM    3  C   UNL     1      -6.910  18.768  72.061  1.00  0.00     3.573 C  
HETATM    4  C   UNL     1      -8.054  17.734  71.996  1.00  0.00    13.104 C  
HETATM    5  C   UNL     1      -7.638  16.343  71.411  1.00  0.00     5.954 C  
HETATM    6  N   UNL     1      -8.978  18.477  71.132  1.00  0.00     5.808 NA 
HETATM    7  C   UNL     1     -10.241  17.857  70.827  1.00  0.00     2.532 C  
HETATM    8  C   UNL     1      -7.730  16.183  69.865  1.00  0.00     0.540 C  
HETATM    9  C   UNL     1      -7.780  17.571  69.122  1.00  0.00    -0.042 C  
ENDROOT
BRANCH   8  10
HETATM   10  S   UNL     1      -8.598  14.456  68.965  1.00  0.00     0.084 SA 
BRANCH  10  11
HETATM   11  C   UNL     1      -7.318  13.268  68.267  1.00  0.00    -0.113 C  
BRANCH  11  12
HETATM   12  C   UNL     1      -7.354  12.427  66.825  1.00  0.00     0.205 C  
HETATM   13  O   UNL     1      -7.637  13.106  65.828  1.00  0.00     2.506 OA 
BRANCH  12  14
HETATM   14  O   UNL     1      -7.139  11.066  66.629  1.00  0.00    -0.125 OA 
BRANCH  14  15
HETATM   15  C   UNL     1      -7.707   9.917  67.616  1.00  0.00    -0.091 C  
HETATM   16  C   UNL     1      -9.218   9.896  67.044  1.00  0.00    -0.164 C  
HETATM   17  C   UNL     1     -10.236   8.800  67.453  1.00  0.00    -0.318 C  
HETATM   18  C   UNL     1      -8.651   7.298  71.086  1.00  0.00    -0.130 C  
HETATM   19  C   UNL     1     -11.505   8.625  66.582  1.00  0.00     2.680 C  
HETATM   20  C   UNL     1     -10.790   9.300  68.824  1.00  0.00    -0.088 C  
HETATM   21  O   UNL     1     -12.050   9.967  68.818  1.00  0.00    -0.405 OA 
HETATM   22  C   UNL     1     -10.684   8.254  69.903  1.00  0.00    -0.234 C  
HETATM   23  C   UNL     1      -7.367   7.088  70.248  1.00  0.00    -0.084 C  
HETATM   24  C   UNL     1      -9.485   8.599  70.882  1.00  0.00    -0.242 C  
HETATM   25  C   UNL     1     -12.051   7.918  70.555  1.00  0.00     0.104 C  
HETATM   26  H   UNL     1     -12.386  10.272  69.652  1.00  0.00     0.000 HD 
HETATM   27  C   UNL     1     -10.156   9.073  72.210  1.00  0.00    -0.000 C  
HETATM   28  C   UNL     1      -9.097   9.727  73.039  1.00  0.00     5.248 C  
HETATM   29  C   UNL     1      -8.210  10.328  71.984  1.00  0.00     5.268 C  
HETATM   30  C   UNL     1      -8.528   9.837  70.521  1.00  0.00    -0.002 C  
HETATM   31  O   UNL     1      -7.451  11.217  72.286  1.00  0.00     7.177 OA 
HETATM   32  C   UNL     1      -7.319   9.707  69.410  1.00  0.00    -0.081 C  
HETATM   33  C   UNL     1      -6.167  10.658  69.936  1.00  0.00    -0.098 C  
HETATM   34  C   UNL     1      -6.591   8.298  69.686  1.00  0.00    -0.037 C  
HETATM   35  C   UNL     1      -5.530   7.990  68.602  1.00  0.00    -0.031 C  
BRANCH  17  36
HETATM   36  C   UNL     1      -9.442   7.489  67.371  1.00  0.00    -0.173 C  
HETATM   37  C   UNL     1      -9.476   6.431  68.195  1.00  0.00    -0.114 C  
ENDBRANCH  17  36
ENDBRANCH  14  15
ENDBRANCH  12  14
ENDBRANCH  11  12
ENDBRANCH  10  11
ENDBRANCH   8  10
TORSDOF 6
ENDMDL
MODEL      245
REMARK 921   NORMALIZED FREE ENERGY PREDICTED BY IDOCK:   43.01 KCAL/MOL
REMARK 922        TOTAL FREE ENERGY PREDICTED BY IDOCK:   56.34 KCAL/MOL
REMARK 923 INTER-LIGAND FREE ENERGY PREDICTED BY IDOCK:   52.13 KCAL/MOL
REMARK 924 INTRA-LIGAND FREE ENERGY PREDICTED BY IDOCK:    4.21 KCAL/MOL
REMARK 927      BINDING AFFINITY PREDICTED BY RF-SCORE:    0.00 PKD
ROOT
HETATM    1  C   UNL     1      -9.673  15.033  70.570  1.00  0.00     0.790 C  
HETATM    2  C   UNL     1      -9.612  14.953  72.110  1.00  0.00     4.861 C  
HETATM    3  C   UNL     1      -9.932  13.491  72.423  1.00  0.00    11.603 C  
HETATM    4  C   UNL     1     -10.171  12.844  71.043  1.00  0.00     6.772 C  
HETATM    5  C   UNL     1      -8.889  12.236  70.381  1.00  0.00     5.627 C  
HETATM    6  N   UNL     1     -10.694  14.016  70.332  1.00  0.00     0.644 NA 
HETATM    7  C   UNL     1     -11.086  13.837  68.959  1.00  0.00    -0.259 C  
HETATM    8  C   UNL     1      -8.032  13.200  69.511  1.00  0.00     1.030 C  
HETATM    9  C   UNL     1      -8.340  14.715  69.816  1.00  0.00     0.366 C  
ENDROOT
BRANCH   8  10
HETATM   10  S   UNL     1      -7.289  12.626  67.597  1.00  0.00    -0.152 SA 
BRANCH  10  11
HETATM   11  C   UNL     1      -6.089  11.181  67.676  1.00  0.00    -0.049 C  
BRANCH  11  12
HETATM   12  C   UNL     1      -6.059   9.908  68.757  1.00  0.00    -0.041 C  
HETATM   13  O   UNL     1      -5.182   9.059  68.543  1.00  0.00    -0.034 OA 
BRANCH  12  14
HETATM   14  O   UNL     1      -6.917   9.683  69.830  1.00  0.00    -0.061 OA 
BRANCH  14  15
HETATM   15  C   UNL     1      -8.522   9.556  69.682  1.00  0.00    -0.169 C  
HETATM   16  C   UNL     1      -8.840   9.257  71.238  1.00  0.00    -0.057 C  
HETATM   17  C   UNL     1     -10.288   9.257  71.796  1.00  0.00    -0.204 C  
HETATM   18  C   UNL     1     -12.669   8.660  68.341  1.00  0.00     7.646 C  
HETATM   19  C   UNL     1     -10.475   9.351  73.331  1.00  0.00     4.874 C  
HETATM   20  C   UNL     1     -10.822   7.835  71.441  1.00  0.00    -0.228 C  
HETATM   21  O   UNL     1     -10.804   6.851  72.472  1.00  0.00    -0.224 OA 
HETATM   22  C   UNL     1     -12.132   7.882  70.698  1.00  0.00    -0.003 C  
HETATM   23  C   UNL     1     -11.897   9.886  67.798  1.00  0.00     1.688 C  
HETATM   24  C   UNL     1     -11.898   7.580  69.158  1.00  0.00     1.103 C  
HETATM   25  C   UNL     1     -13.259   7.087  71.407  1.00  0.00    -0.352 C  
HETATM   26  H   UNL     1     -11.129   5.985  72.256  1.00  0.00     0.000 HD 
HETATM   27  C   UNL     1     -12.477   6.150  68.923  1.00  0.00     4.470 C  
HETATM   28  C   UNL     1     -11.985   5.680  67.591  1.00  0.00     3.758 C  
HETATM   29  C   UNL     1     -10.638   6.343  67.512  1.00  0.00    -0.283 C  
HETATM   30  C   UNL     1     -10.391   7.432  68.624  1.00  0.00    -0.215 C  
HETATM   31  O   UNL     1      -9.814   5.918  66.738  1.00  0.00    -0.143 OA 
HETATM   32  C   UNL     1      -9.448   8.744  68.304  1.00  0.00    -0.150 C  
HETATM   33  C   UNL     1      -8.536   8.313  67.082  1.00  0.00    -0.123 C  
HETATM   34  C   UNL     1     -10.380   9.801  67.527  1.00  0.00    -0.291 C  
HETATM   35  C   UNL     1      -9.645  11.146  67.308  1.00  0.00    -0.182 C  
BRANCH  17  36
HETATM   36  C   UNL     1     -10.936  10.505  71.179  1.00  0.00     0.602 C  
HETATM   37  C   UNL     1     -12.235  10.758  70.962  1.00  0.00    -0.485 C  
ENDBRANCH  17  36
ENDBRANCH  14  15
ENDBRANCH  12  14
ENDBRANCH  11  12
ENDBRANCH  10  11
ENDBRANCH   8  10
TORSDOF 6
ENDMDL
MODEL      246
REMARK 921   NORMALIZED FREE ENERGY PREDICTED BY IDOCK:   43.54 KCAL/MOL
REMARK 922        TOTAL FREE ENERGY PREDICTED BY IDOCK:   57.07 KCAL/MOL
REMARK 923 INTER-LIGAND FREE ENERGY PREDICTED BY IDOCK:   27.91 KCAL/MOL
REMARK 924 INTRA-LIGAND FREE ENERGY PREDICTED BY IDOCK:   29.16 KCAL/MOL
REMARK 927      BINDING AFFINITY PREDICTED BY RF-SCORE:    0.00 PKD
ROOT
HETATM    1  C   UNL     1     -13.343  14.665  65.551  1.00  0.00     0.805 C  
HETATM    2  C   UNL     1     -13.124  13.155  65.328  1.00  0.00     0.064 C  
HETATM    3  C   UNL     1     -11.723  12.893  65.881  1.00  0.00    -0.449 C  
HETATM    4  C   UNL     1     -11.234  14.274  66.366  1.00  0.00    -0.337 C  
HETATM    5  C   UNL     1     -11.573  14.594  67.860  1.00  0.00    -0.373 C  
HETATM    6  N   UNL     1     -11.961  15.117  65.411  1.00  0.00    -0.031 NA 
HETATM    7  C   UNL     1     -11.759  16.539  65.497  1.00  0.00     1.099 C  
HETATM    8  C   UNL     1     -12.954  15.256  68.134  1.00  0.00     2.218 C  
HETATM    9  C   UNL     1     -13.955  15.070  66.932  1.00  0.00     7.568 C  
ENDROOT
BRANCH   8  10
HETATM   10  S   UNL     1     -13.161  16.921  69.449  1.00  0.00     7.154 SA 
BRANCH  10  11
HETATM   11  C   UNL     1     -11.628  18.007  69.510  1.00  0.00     3.658 C  
BRANCH  11  12
HETATM   12  C   UNL     1     -10.397  18.012  70.638  1.00  0.00     2.124 C  
HETATM   13  O   UNL     1     -10.770  18.052  71.819  1.00  0.00     1.998 OA 
BRANCH  12  14
HETATM   14  O   UNL     1      -9.026  18.011  70.402  1.00  0.00     2.616 OA 
BRANCH  14  15
HETATM   15  C   UNL     1      -8.257  16.844  69.587  1.00  0.00     0.706 C  
HETATM   16  C   UNL     1      -9.572  16.125  68.985  1.00  0.00    -0.251 C  
HETATM   17  C   UNL     1      -9.482  15.024  67.895  1.00  0.00    -0.195 C  
HETATM   18  C   UNL     1      -5.502  13.613  68.259  1.00  0.00    -0.107 C  
HETATM   19  C   UNL     1     -10.769  14.675  67.107  1.00  0.00    -0.292 C  
HETATM   20  C   UNL     1      -9.175  13.726  68.705  1.00  0.00    -0.069 C  
HETATM   21  O   UNL     1     -10.268  12.856  68.988  1.00  0.00    -0.431 OA 
HETATM   22  C   UNL     1      -7.964  12.997  68.183  1.00  0.00    -0.154 C  
HETATM   23  C   UNL     1      -5.131  15.105  68.086  1.00  0.00    -0.117 C  
HETATM   24  C   UNL     1      -6.726  13.235  69.146  1.00  0.00    -0.092 C  
HETATM   25  C   UNL     1      -8.269  11.531  67.778  1.00  0.00    -0.135 C  
HETATM   26  H   UNL     1     -10.081  12.066  69.481  1.00  0.00     0.000 HD 
HETATM   27  C   UNL     1      -6.510  11.877  69.887  1.00  0.00    -0.048 C  
HETATM   28  C   UNL     1      -5.591  12.136  71.038  1.00  0.00    -0.037 C  
HETATM   29  C   UNL     1      -5.964  13.543  71.416  1.00  0.00     0.183 C  
HETATM   30  C   UNL     1      -6.887  14.268  70.365  1.00  0.00     0.195 C  
HETATM   31  O   UNL     1      -5.674  13.957  72.513  1.00  0.00    -0.417 OA 
HETATM   32  C   UNL     1      -6.773  15.896  70.146  1.00  0.00     0.172 C  
HETATM   33  C   UNL     1      -6.118  16.450  71.477  1.00  0.00     1.672 C  
HETATM   34  C   UNL     1      -5.522  16.141  69.162  1.00  0.00    -0.112 C  
HETATM   35  C   UNL     1      -5.408  17.630  68.755  1.00  0.00    -0.156 C  
BRANCH  17  36
HETATM   36  C   UNL     1      -8.461  15.568  66.886  1.00  0.00    -0.289 C  
HETATM   37  C   UNL     1      -7.646  16.626  67.001  1.00  0.00    -0.237 C  
ENDBRANCH  17  36
ENDBRANCH  14  15
ENDBRANCH  12  14
ENDBRANCH  11  12
ENDBRANCH  10  11
ENDBRANCH   8  10
TORSDOF 6
ENDMDL
MODEL      247
REMARK 921   NORMALIZED FREE ENERGY PREDICTED BY IDOCK:   51.65 KCAL/MOL
REMARK 922        TOTAL FREE ENERGY PREDICTED BY IDOCK:   68.01 KCAL/MOL
REMARK 923 INTER-LIGAND FREE ENERGY PREDICTED BY IDOCK:   10.83 KCAL/MOL
REMARK 924 INTRA-LIGAND FREE ENERGY PREDICTED BY IDOCK:   57.18 KCAL/MOL
REMARK 927      BINDING AFFINITY PREDICTED BY RF-SCORE:    0.00 PKD
ROOT
HETATM    1  C   UNL     1      -7.687   7.514  69.918  1.00  0.00    -0.098 C  
HETATM    2  C   UNL     1      -6.536   8.494  69.607  1.00  0.00    -0.040 C  
HETATM    3  C   UNL     1      -5.296   7.603  69.530  1.00  0.00    -0.023 C  
HETATM    4  C   UNL     1      -5.822   6.182  69.820  1.00  0.00    -0.017 C  
HETATM    5  C   UNL     1      -6.259   5.380  68.548  1.00  0.00    -0.030 C  
HETATM    6  N   UNL     1      -6.942   6.532  70.700  1.00  0.00    -0.063 NA 
HETATM    7  C   UNL     1      -7.719   5.450  71.244  1.00  0.00    -0.103 C  
HETATM    8  C   UNL     1      -7.731   5.568  68.079  1.00  0.00    -0.092 C  
HETATM    9  C   UNL     1      -8.388   6.868  68.678  1.00  0.00    -0.121 C  
ENDROOT
BRANCH   8  10
HETATM   10  S   UNL     1      -8.952   3.912  67.522  1.00  0.00    -0.147 SA 
BRANCH  10  11
HETATM   11  C   UNL     1     -10.596   4.430  66.770  1.00  0.00     0.465 C  
BRANCH  11  12
HETATM   12  C   UNL     1     -10.964   5.822  65.924  1.00  0.00     0.705 C  
HETATM   13  O   UNL     1     -11.862   5.699  65.079  1.00  0.00     2.675 OA 
BRANCH  12  14
HETATM   14  O   UNL     1     -10.360   7.070  66.036  1.00  0.00     0.368 OA 
BRANCH  14  15
HETATM   15  C   UNL     1     -10.195   7.864  67.436  1.00  0.00    -0.251 C  
HETATM   16  C   UNL     1     -10.453   6.601  68.410  1.00  0.00    -0.248 C  
HETATM   17  C   UNL     1     -10.202   6.677  69.939  1.00  0.00    -0.214 C  
HETATM   18  C   UNL     1     -10.317  10.837  70.744  1.00  0.00     1.457 C  
HETATM   19  C   UNL     1     -10.096   5.347  70.725  1.00  0.00    -0.287 C  
HETATM   20  C   UNL     1     -11.501   7.339  70.496  1.00  0.00    -0.279 C  
HETATM   21  O   UNL     1     -12.486   6.476  71.060  1.00  0.00    -0.252 OA 
HETATM   22  C   UNL     1     -11.210   8.540  71.357  1.00  0.00    -0.327 C  
HETATM   23  C   UNL     1      -9.241  10.915  69.634  1.00  0.00     0.372 C  
HETATM   24  C   UNL     1     -11.528   9.874  70.559  1.00  0.00    -0.391 C  
HETATM   25  C   UNL     1     -11.800   8.418  72.786  1.00  0.00    -0.234 C  
HETATM   26  H   UNL     1     -13.276   6.879  71.399  1.00  0.00     0.000 HD 
HETATM   27  C   UNL     1     -12.829  10.445  71.207  1.00  0.00    -0.533 C  
HETATM   28  C   UNL     1     -13.361  11.500  70.290  1.00  0.00     0.979 C  
HETATM   29  C   UNL     1     -12.948  10.971  68.944  1.00  0.00     1.935 C  
HETATM   30  C   UNL     1     -11.936   9.764  69.010  1.00  0.00     0.671 C  
HETATM   31  O   UNL     1     -13.503  11.379  67.952  1.00  0.00     5.216 OA 
HETATM   32  C   UNL     1     -10.810   9.563  67.825  1.00  0.00    -0.258 C  
HETATM   33  C   UNL     1     -11.381  10.345  66.571  1.00  0.00     0.528 C  
HETATM   34  C   UNL     1      -9.593  10.556  68.174  1.00  0.00    -0.163 C  
HETATM   35  C   UNL     1      -8.398  10.343  67.213  1.00  0.00    -0.122 C  
BRANCH  17  36
HETATM   36  C   UNL     1      -8.850   7.394  70.070  1.00  0.00    -0.141 C  
HETATM   37  C   UNL     1      -7.662   7.049  69.553  1.00  0.00    -0.107 C  
ENDBRANCH  17  36
ENDBRANCH  14  15
ENDBRANCH  12  14
ENDBRANCH  11  12
ENDBRANCH  10  11
ENDBRANCH   8  10
TORSDOF 6
ENDMDL
MODEL      248
REMARK 921   NORMALIZED FREE ENERGY PREDICTED BY IDOCK:   65.14 KCAL/MOL
REMARK 922        TOTAL FREE ENERGY PREDICTED BY IDOCK:   86.24 KCAL/MOL
REMARK 923 INTER-LIGAND FREE ENERGY PREDICTED BY IDOCK:   81.77 KCAL/MOL
REMARK 924 INTRA-LIGAND FREE ENERGY PREDICTED BY IDOCK:    4.48 KCAL/MOL
REMARK 927      BINDING AFFINITY PREDICTED BY RF-SCORE:    0.00 PKD
ROOT
HETATM    1  C   UNL     1     -10.246   7.551  65.529  1.00  0.00     2.137 C  
HETATM    2  C   UNL     1     -11.254   6.839  64.604  1.00  0.00     9.799 C  
HETATM    3  C   UNL     1     -12.453   7.787  64.555  1.00  0.00    21.125 C  
HETATM    4  C   UNL     1     -12.053   8.964  65.469  1.00  0.00    11.430 C  
HETATM    5  C   UNL     1     -11.321  10.136  64.734  1.00  0.00     2.810 C  
HETATM    6  N   UNL     1     -11.191   8.236  66.407  1.00  0.00     1.613 NA 
HETATM    7  C   UNL     1     -10.607   8.987  67.486  1.00  0.00    -0.237 C  
HETATM    8  C   UNL     1      -9.773  10.022  64.611  1.00  0.00    -0.269 C  
HETATM    9  C   UNL     1      -9.264   8.548  64.832  1.00  0.00     0.331 C  
ENDROOT
BRANCH   8  10
HETATM   10  S   UNL     1      -8.488  11.670  65.027  1.00  0.00     0.912 SA 
BRANCH  10  11
HETATM   11  C   UNL     1      -9.053  13.268  64.213  1.00  0.00     2.638 C  
BRANCH  11  12
HETATM   12  C   UNL     1      -9.709  14.627  64.928  1.00  0.00     0.330 C  
HETATM   13  O   UNL     1     -10.645  15.147  64.304  1.00  0.00     0.114 OA 
BRANCH  12  14
HETATM   14  O   UNL     1      -9.305  15.248  66.106  1.00  0.00    -0.290 OA 
BRANCH  14  15
HETATM   15  C   UNL     1      -8.929  14.446  67.459  1.00  0.00    -0.190 C  
HETATM   16  C   UNL     1     -10.341  14.658  68.213  1.00  0.00    -0.230 C  
HETATM   17  C   UNL     1     -10.696  13.903  69.522  1.00  0.00     0.029 C  
HETATM   18  C   UNL     1      -6.912  12.755  71.046  1.00  0.00     3.338 C  
HETATM   19  C   UNL     1     -12.183  13.861  69.956  1.00  0.00    -0.408 C  
HETATM   20  C   UNL     1     -10.004  14.747  70.636  1.00  0.00     1.041 C  
HETATM   21  O   UNL     1     -10.818  15.664  71.365  1.00  0.00    -0.198 OA 
HETATM   22  C   UNL     1      -9.122  13.911  71.526  1.00  0.00     8.607 C  
HETATM   23  C   UNL     1      -6.723  12.122  69.647  1.00  0.00     0.035 C  
HETATM   24  C   UNL     1      -7.596  14.150  71.161  1.00  0.00     3.188 C  
HETATM   25  C   UNL     1      -9.509  14.004  73.025  1.00  0.00    10.534 C  
HETATM   26  H   UNL     1     -10.396  16.178  72.043  1.00  0.00     0.000 HD 
HETATM   27  C   UNL     1      -7.013  14.987  72.343  1.00  0.00     3.063 C  
HETATM   28  C   UNL     1      -5.691  15.528  71.901  1.00  0.00     0.650 C  
HETATM   29  C   UNL     1      -5.918  15.722  70.427  1.00  0.00    -0.037 C  
HETATM   30  C   UNL     1      -7.244  15.063  69.888  1.00  0.00    -0.088 C  
HETATM   31  O   UNL     1      -5.190  16.462  69.809  1.00  0.00    -0.124 OA 
HETATM   32  C   UNL     1      -7.310  14.475  68.351  1.00  0.00    -0.114 C  
HETATM   33  C   UNL     1      -6.157  15.227  67.567  1.00  0.00    -0.070 C  
HETATM   34  C   UNL     1      -6.640  13.013  68.388  1.00  0.00    -0.090 C  
HETATM   35  C   UNL     1      -6.785  12.291  67.026  1.00  0.00    -0.042 C  
BRANCH  17  36
HETATM   36  C   UNL     1     -10.256  12.455  69.260  1.00  0.00     0.351 C  
HETATM   37  C   UNL     1      -9.118  12.009  68.710  1.00  0.00     0.074 C  
ENDBRANCH  17  36
ENDBRANCH  14  15
ENDBRANCH  12  14
ENDBRANCH  11  12
ENDBRANCH  10  11
ENDBRANCH   8  10
TORSDOF 6
ENDMDL
MODEL      249
REMARK 921   NORMALIZED FREE ENERGY PREDICTED BY IDOCK:   82.11 KCAL/MOL
REMARK 922        TOTAL FREE ENERGY PREDICTED BY IDOCK:  109.17 KCAL/MOL
REMARK 923 INTER-LIGAND FREE ENERGY PREDICTED BY IDOCK:  109.36 KCAL/MOL
REMARK 924 INTRA-LIGAND FREE ENERGY PREDICTED BY IDOCK:   -0.20 KCAL/MOL
REMARK 927      BINDING AFFINITY PREDICTED BY RF-SCORE:    0.00 PKD
ROOT
HETATM    1  C   UNL     1      -9.188   9.739  62.351  1.00  0.00    -0.269 C  
HETATM    2  C   UNL     1     -10.589   9.093  62.373  1.00  0.00     4.853 C  
HETATM    3  C   UNL     1     -10.579   8.219  63.628  1.00  0.00     9.836 C  
HETATM    4  C   UNL     1      -9.169   8.414  64.223  1.00  0.00     1.030 C  
HETATM    5  C   UNL     1      -9.056   9.587  65.254  1.00  0.00    -0.276 C  
HETATM    6  N   UNL     1      -8.432   8.659  62.979  1.00  0.00    -0.155 NA 
HETATM    7  C   UNL     1      -7.012   8.872  63.083  1.00  0.00    -0.089 C  
HETATM    8  C   UNL     1      -8.742  10.996  64.673  1.00  0.00     0.049 C  
HETATM    9  C   UNL     1      -9.045  11.087  63.130  1.00  0.00    -0.262 C  
ENDROOT
BRANCH   8  10
HETATM   10  S   UNL     1      -7.279  12.273  65.552  1.00  0.00     3.634 SA 
BRANCH  10  11
HETATM   11  C   UNL     1      -6.025  11.344  66.601  1.00  0.00    -0.147 C  
BRANCH  11  12
HETATM   12  C   UNL     1      -6.042   9.742  67.072  1.00  0.00    -0.063 C  
HETATM   13  O   UNL     1      -6.024   8.922  66.142  1.00  0.00    -0.053 OA 
BRANCH  12  14
HETATM   14  O   UNL     1      -6.109   9.236  68.366  1.00  0.00    -0.045 OA 
BRANCH  14  15
HETATM   15  C   UNL     1      -7.367   9.467  69.355  1.00  0.00    -0.078 C  
HETATM   16  C   UNL     1      -8.220  10.422  68.369  1.00  0.00    -0.114 C  
HETATM   17  C   UNL     1      -9.689  10.816  68.674  1.00  0.00    -0.187 C  
HETATM   18  C   UNL     1     -10.029  10.175  72.849  1.00  0.00     7.864 C  
HETATM   19  C   UNL     1     -10.542  11.393  67.516  1.00  0.00    -0.252 C  
HETATM   20  C   UNL     1      -9.554  12.009  69.670  1.00  0.00     1.503 C  
HETATM   21  O   UNL     1      -9.685  13.326  69.138  1.00  0.00    -0.381 OA 
HETATM   22  C   UNL     1     -10.358  11.801  70.928  1.00  0.00     4.674 C  
HETATM   23  C   UNL     1      -9.513   8.756  72.508  1.00  0.00    -0.100 C  
HETATM   24  C   UNL     1      -9.399  11.404  72.128  1.00  0.00    15.739 C  
HETATM   25  C   UNL     1     -11.378  12.940  71.189  1.00  0.00     2.207 C  
HETATM   26  H   UNL     1      -9.603  14.052  69.745  1.00  0.00     0.000 HD 
HETATM   27  C   UNL     1      -9.351  12.660  73.054  1.00  0.00    23.250 C  
HETATM   28  C   UNL     1      -8.213  12.472  74.006  1.00  0.00    15.191 C  
HETATM   29  C   UNL     1      -7.240  11.691  73.168  1.00  0.00    11.782 C  
HETATM   30  C   UNL     1      -7.845  11.147  71.818  1.00  0.00     8.535 C  
HETATM   31  O   UNL     1      -6.076  11.659  73.489  1.00  0.00     1.879 OA 
HETATM   32  C   UNL     1      -7.307   9.726  71.184  1.00  0.00     0.376 C  
HETATM   33  C   UNL     1      -5.873   9.502  71.819  1.00  0.00    -0.002 C  
HETATM   34  C   UNL     1      -8.083   8.551  71.964  1.00  0.00    -0.175 C  
HETATM   35  C   UNL     1      -7.776   7.166  71.346  1.00  0.00    -0.093 C  
BRANCH  17  36
HETATM   36  C   UNL     1     -10.353   9.505  69.120  1.00  0.00    -0.218 C  
HETATM   37  C   UNL     1     -10.775   8.478  68.369  1.00  0.00    -0.084 C  
ENDBRANCH  17  36
ENDBRANCH  14  15
ENDBRANCH  12  14
ENDBRANCH  11  12
ENDBRANCH  10  11
ENDBRANCH   8  10
TORSDOF 6
ENDMDL
